MODEL 1
REMARK VINA RESULT:      -7.8      0.000      0.000
REMARK  Name = 
REMARK  10 active torsions:
REMARK  status: ('A' for Active; 'I' for Inactive)
REMARK    1  A    between atoms: C_1  and  C_2
REMARK    2  A    between atoms: C_2  and  C_3
REMARK    3  A    between atoms: C_3  and  C_4
REMARK    4  A    between atoms: C_3  and  N_5
REMARK    5  A    between atoms: N_10  and  S_11
REMARK    6  A    between atoms: S_11  and  C_14
REMARK    7  A    between atoms: C_16  and  C_17
REMARK    8  A    between atoms: N_19  and  C_20
REMARK    9  A    between atoms: C_23  and  C_24
REMARK   10  A    between atoms: C_30  and  S_31
REMARK                            x       y       z     vdW  Elec       q    Type
REMARK                         _______ _______ _______ _____ _____    ______ ____
ROOT
ATOM      1  C   UNL     1       4.257   5.116  17.899  0.00  0.00    +0.000 A 
ATOM      2  C   UNL     1       3.692   6.376  17.585  0.00  0.00    +0.000 A 
ATOM      3  C   UNL     1       2.768   7.031  18.447  0.00  0.00    +0.000 A 
ATOM      4  C   UNL     1       2.416   6.408  19.641  0.00  0.00    +0.000 A 
ATOM      5 CL   UNL     1       1.390   7.109  20.846  0.00  0.00    +0.000 Cl
ATOM      6  C   UNL     1       2.940   5.146  19.935  0.00  0.00    +0.000 A 
ATOM      7  C   UNL     1       3.844   4.483  19.077  0.00  0.00    +0.000 A 
ENDROOT
BRANCH   3   8
ATOM      8  C   UNL     1       2.294   8.385  18.036  0.00  0.00    +0.000 C 
ATOM      9  O   UNL     1       2.652   8.758  16.922  0.00  0.00    +0.000 OA
ATOM     10  N   UNL     1       1.531   9.125  18.935  0.00  0.00    +0.000 N 
ATOM     11  H   UNL     1       1.452   8.781  19.883  0.00  0.00    +0.000 HD
BRANCH  10  12
ATOM     12  C   UNL     1       1.093  10.454  18.722  0.00  0.00    +0.000 A 
ATOM     13  C   UNL     1       1.989  11.513  18.579  0.00  0.00    +0.000 A 
ATOM     14  C   UNL     1       1.542  12.831  18.538  0.00  0.00    +0.000 A 
ATOM     15  C   UNL     1       0.179  13.117  18.618  0.00  0.00    +0.000 A 
ATOM     16  C   UNL     1      -0.282  14.541  18.704  0.00  0.00    +0.000 C 
ATOM     17  C   UNL     1      -0.733  12.056  18.652  0.00  0.00    +0.000 A 
ATOM     18  C   UNL     1      -0.280  10.728  18.694  0.00  0.00    +0.000 A 
ENDBRANCH  10  12
ENDBRANCH   3   8
BRANCH   1  19
ATOM     19  S   UNL     1       5.333   4.335  16.667  0.00  0.00    +0.000 S 
ATOM     20  O   UNL     1       4.684   3.112  16.278  0.00  0.00    +0.000 OA
ATOM     21  O   UNL     1       6.674   4.278  17.230  0.00  0.00    +0.000 OA
BRANCH  19  27
ATOM     22  N   UNL     1       6.634   4.377  13.332  0.00  0.00    +0.000 N 
ATOM     23  C   UNL     1       7.871   4.688  12.843  0.00  0.00    +0.000 A 
ATOM     24  N   UNL     1       8.408   5.632  13.579  0.00  0.00    +0.000 NA
ATOM     25  N   UNL     1       7.484   5.984  14.537  0.00  0.00    +0.000 NA
ATOM     26  C   UNL     1       6.453   5.175  14.435  0.00  0.00    +0.000 A 
ATOM     27  N   UNL     1       5.294   5.323  15.263  0.00  0.00    +0.000 N 
ATOM     28  H   UNL     1       5.185   6.297  15.524  0.00  0.00    +0.000 HD
BRANCH  22  29
ATOM     29  C   UNL     1       5.715   3.400  12.775  0.00  0.00    +0.000 C 
ATOM     30  C   UNL     1       6.492   2.401  11.914  0.00  0.00    +0.000 C 
BRANCH  29  32
ATOM     31  C   UNL     1       3.786   2.982  11.129  0.00  0.00    +0.000 C 
ATOM     32  C   UNL     1       4.546   4.006  11.960  0.00  0.00    +0.000 C 
ENDBRANCH  29  32
ENDBRANCH  22  29
ENDBRANCH  19  27
ENDBRANCH   1  19
BRANCH   7  33
ATOM     33  S   UNL     1       4.301   2.842  19.588  0.00  0.00    +0.000 S 
ATOM     34  H   UNL     1       3.354   2.657  20.520  0.00  0.00    +0.000 HD
ENDBRANCH   7  33
TORSDOF 7
ENDMDL
MODEL 2
REMARK VINA RESULT:      -7.6      2.227      3.333
REMARK  Name = 
REMARK  10 active torsions:
REMARK  status: ('A' for Active; 'I' for Inactive)
REMARK    1  A    between atoms: C_1  and  C_2
REMARK    2  A    between atoms: C_2  and  C_3
REMARK    3  A    between atoms: C_3  and  C_4
REMARK    4  A    between atoms: C_3  and  N_5
REMARK    5  A    between atoms: N_10  and  S_11
REMARK    6  A    between atoms: S_11  and  C_14
REMARK    7  A    between atoms: C_16  and  C_17
REMARK    8  A    between atoms: N_19  and  C_20
REMARK    9  A    between atoms: C_23  and  C_24
REMARK   10  A    between atoms: C_30  and  S_31
REMARK                            x       y       z     vdW  Elec       q    Type
REMARK                         _______ _______ _______ _____ _____    ______ ____
ROOT
ATOM      1  C   UNL     1       2.793   4.808  18.682  0.00  0.00    +0.000 A 
ATOM      2  C   UNL     1       2.479   6.113  18.232  0.00  0.00    +0.000 A 
ATOM      3  C   UNL     1       2.022   7.133  19.113  0.00  0.00    +0.000 A 
ATOM      4  C   UNL     1       1.885   6.829  20.465  0.00  0.00    +0.000 A 
ATOM      5 CL   UNL     1       1.441   7.974  21.685  0.00  0.00    +0.000 Cl
ATOM      6  C   UNL     1       2.154   5.531  20.906  0.00  0.00    +0.000 A 
ATOM      7  C   UNL     1       2.593   4.511  20.035  0.00  0.00    +0.000 A 
ENDROOT
BRANCH   3   8
ATOM      8  C   UNL     1       1.789   8.485  18.529  0.00  0.00    +0.000 C 
ATOM      9  O   UNL     1       2.328   8.697  17.446  0.00  0.00    +0.000 OA
ATOM     10  N   UNL     1       1.026   9.400  19.251  0.00  0.00    +0.000 N 
ATOM     11  H   UNL     1       0.786   9.166  20.205  0.00  0.00    +0.000 HD
BRANCH  10  12
ATOM     12  C   UNL     1       0.800  10.744  18.868  0.00  0.00    +0.000 A 
ATOM     13  C   UNL     1       1.838  11.671  18.779  0.00  0.00    +0.000 A 
ATOM     14  C   UNL     1       1.577  13.022  18.565  0.00  0.00    +0.000 A 
ATOM     15  C   UNL     1       0.266  13.473  18.416  0.00  0.00    +0.000 A 
ATOM     16  C   UNL     1      -0.013  14.943  18.318  0.00  0.00    +0.000 C 
ATOM     17  C   UNL     1      -0.774  12.536  18.396  0.00  0.00    +0.000 A 
ATOM     18  C   UNL     1      -0.508  11.174  18.612  0.00  0.00    +0.000 A 
ENDBRANCH  10  12
ENDBRANCH   3   8
BRANCH   1  19
ATOM     19  S   UNL     1       3.257   3.568  17.443  0.00  0.00    +0.000 S 
ATOM     20  O   UNL     1       3.079   4.190  16.159  0.00  0.00    +0.000 OA
ATOM     21  O   UNL     1       2.525   2.349  17.748  0.00  0.00    +0.000 OA
BRANCH  19  27
ATOM     22  N   UNL     1       6.324   5.247  16.671  0.00  0.00    +0.000 N 
ATOM     23  C   UNL     1       7.003   5.404  15.497  0.00  0.00    +0.000 A 
ATOM     24  N   UNL     1       6.839   4.338  14.750  0.00  0.00    +0.000 NA
ATOM     25  N   UNL     1       6.082   3.442  15.471  0.00  0.00    +0.000 NA
ATOM     26  C   UNL     1       5.709   4.022  16.590  0.00  0.00    +0.000 A 
ATOM     27  N   UNL     1       4.951   3.323  17.584  0.00  0.00    +0.000 N 
ATOM     28  H   UNL     1       5.166   2.333  17.541  0.00  0.00    +0.000 HD
BRANCH  22  29
ATOM     29  C   UNL     1       6.283   6.197  17.770  0.00  0.00    +0.000 C 
ATOM     30  C   UNL     1       7.233   7.360  17.474  0.00  0.00    +0.000 C 
BRANCH  29  32
ATOM     31  C   UNL     1       8.078   5.647  19.524  0.00  0.00    +0.000 C 
ATOM     32  C   UNL     1       6.602   5.590  19.158  0.00  0.00    +0.000 C 
ENDBRANCH  29  32
ENDBRANCH  22  29
ENDBRANCH  19  27
ENDBRANCH   1  19
BRANCH   7  33
ATOM     33  S   UNL     1       2.770   2.907  20.782  0.00  0.00    +0.000 S 
ATOM     34  H   UNL     1       1.522   2.771  21.253  0.00  0.00    +0.000 HD
ENDBRANCH   7  33
TORSDOF 7
ENDMDL
MODEL 3
REMARK VINA RESULT:      -7.6      2.020      2.744
REMARK  Name = 
REMARK  10 active torsions:
REMARK  status: ('A' for Active; 'I' for Inactive)
REMARK    1  A    between atoms: C_1  and  C_2
REMARK    2  A    between atoms: C_2  and  C_3
REMARK    3  A    between atoms: C_3  and  C_4
REMARK    4  A    between atoms: C_3  and  N_5
REMARK    5  A    between atoms: N_10  and  S_11
REMARK    6  A    between atoms: S_11  and  C_14
REMARK    7  A    between atoms: C_16  and  C_17
REMARK    8  A    between atoms: N_19  and  C_20
REMARK    9  A    between atoms: C_23  and  C_24
REMARK   10  A    between atoms: C_30  and  S_31
REMARK                            x       y       z     vdW  Elec       q    Type
REMARK                         _______ _______ _______ _____ _____    ______ ____
ROOT
ATOM      1  C   UNL     1       2.579   6.636  19.269  0.00  0.00    +0.000 A 
ATOM      2  C   UNL     1       2.239   7.926  18.792  0.00  0.00    +0.000 A 
ATOM      3  C   UNL     1       1.374   8.799  19.510  0.00  0.00    +0.000 A 
ATOM      4  C   UNL     1       0.852   8.365  20.725  0.00  0.00    +0.000 A 
ATOM      5 CL   UNL     1      -0.130   9.334  21.771  0.00  0.00    +0.000 Cl
ATOM      6  C   UNL     1       1.151   7.077  21.180  0.00  0.00    +0.000 A 
ATOM      7  C   UNL     1       1.996   6.201  20.465  0.00  0.00    +0.000 A 
ENDROOT
BRANCH   3   8
ATOM      8  C   UNL     1       1.145  10.156  18.935  0.00  0.00    +0.000 C 
ATOM      9  O   UNL     1       0.641  10.182  17.816  0.00  0.00    +0.000 OA
ATOM     10  N   UNL     1       1.543  11.268  19.674  0.00  0.00    +0.000 N 
ATOM     11  H   UNL     1       2.104  11.110  20.501  0.00  0.00    +0.000 HD
BRANCH  10  12
ATOM     12  C   UNL     1       1.476  12.606  19.219  0.00  0.00    +0.000 A 
ATOM     13  C   UNL     1       2.592  13.270  18.710  0.00  0.00    +0.000 A 
ATOM     14  C   UNL     1       2.548  14.633  18.425  0.00  0.00    +0.000 A 
ATOM     15  C   UNL     1       1.374  15.359  18.625  0.00  0.00    +0.000 A 
ATOM     16  C   UNL     1       1.374  16.847  18.439  0.00  0.00    +0.000 C 
ATOM     17  C   UNL     1       0.220  14.679  19.032  0.00  0.00    +0.000 A 
ATOM     18  C   UNL     1       0.266  13.306  19.320  0.00  0.00    +0.000 A 
ENDBRANCH  10  12
ENDBRANCH   3   8
BRANCH   1  19
ATOM     19  S   UNL     1       3.598   5.577  18.209  0.00  0.00    +0.000 S 
ATOM     20  O   UNL     1       2.708   4.617  17.617  0.00  0.00    +0.000 OA
ATOM     21  O   UNL     1       4.719   5.107  19.007  0.00  0.00    +0.000 OA
BRANCH  19  27
ATOM     22  N   UNL     1       6.216   5.638  15.766  0.00  0.00    +0.000 N 
ATOM     23  C   UNL     1       7.531   5.998  15.852  0.00  0.00    +0.000 A 
ATOM     24  N   UNL     1       7.662   6.974  16.720  0.00  0.00    +0.000 NA
ATOM     25  N   UNL     1       6.402   7.295  17.172  0.00  0.00    +0.000 NA
ATOM     26  C   UNL     1       5.546   6.440  16.658  0.00  0.00    +0.000 A 
ATOM     27  N   UNL     1       4.138   6.546  16.897  0.00  0.00    +0.000 N 
ATOM     28  H   UNL     1       3.893   7.518  17.056  0.00  0.00    +0.000 HD
BRANCH  22  29
ATOM     29  C   UNL     1       5.664   4.615  14.895  0.00  0.00    +0.000 C 
ATOM     30  C   UNL     1       5.407   3.341  15.704  0.00  0.00    +0.000 C 
BRANCH  29  32
ATOM     31  C   UNL     1       5.816   3.433  12.619  0.00  0.00    +0.000 C 
ATOM     32  C   UNL     1       6.530   4.291  13.654  0.00  0.00    +0.000 C 
ENDBRANCH  29  32
ENDBRANCH  22  29
ENDBRANCH  19  27
ENDBRANCH   1  19
BRANCH   7  33
ATOM     33  S   UNL     1       2.157   4.574  21.165  0.00  0.00    +0.000 S 
ATOM     34  H   UNL     1       3.469   4.609  21.442  0.00  0.00    +0.000 HD
ENDBRANCH   7  33
TORSDOF 7
ENDMDL
MODEL 4
REMARK VINA RESULT:      -7.5      4.549     10.016
REMARK  Name = 
REMARK  10 active torsions:
REMARK  status: ('A' for Active; 'I' for Inactive)
REMARK    1  A    between atoms: C_1  and  C_2
REMARK    2  A    between atoms: C_2  and  C_3
REMARK    3  A    between atoms: C_3  and  C_4
REMARK    4  A    between atoms: C_3  and  N_5
REMARK    5  A    between atoms: N_10  and  S_11
REMARK    6  A    between atoms: S_11  and  C_14
REMARK    7  A    between atoms: C_16  and  C_17
REMARK    8  A    between atoms: N_19  and  C_20
REMARK    9  A    between atoms: C_23  and  C_24
REMARK   10  A    between atoms: C_30  and  S_31
REMARK                            x       y       z     vdW  Elec       q    Type
REMARK                         _______ _______ _______ _____ _____    ______ ____
ROOT
ATOM      1  C   UNL     1      -0.226  11.314  19.945  0.00  0.00    +0.000 A 
ATOM      2  C   UNL     1       0.596  10.555  19.077  0.00  0.00    +0.000 A 
ATOM      3  C   UNL     1       1.150   9.300  19.457  0.00  0.00    +0.000 A 
ATOM      4  C   UNL     1       0.866   8.806  20.727  0.00  0.00    +0.000 A 
ATOM      5 CL   UNL     1       1.373   7.257  21.310  0.00  0.00    +0.000 Cl
ATOM      6  C   UNL     1       0.090   9.571  21.602  0.00  0.00    +0.000 A 
ATOM      7  C   UNL     1      -0.450  10.823  21.237  0.00  0.00    +0.000 A 
ENDROOT
BRANCH   3   8
ATOM      8  C   UNL     1       1.945   8.566  18.429  0.00  0.00    +0.000 C 
ATOM      9  O   UNL     1       1.912   9.037  17.296  0.00  0.00    +0.000 OA
ATOM     10  N   UNL     1       2.619   7.409  18.810  0.00  0.00    +0.000 N 
ATOM     11  H   UNL     1       2.425   7.029  19.727  0.00  0.00    +0.000 HD
BRANCH  10  12
ATOM     12  C   UNL     1       3.332   6.562  17.929  0.00  0.00    +0.000 A 
ATOM     13  C   UNL     1       3.032   5.206  17.803  0.00  0.00    +0.000 A 
ATOM     14  C   UNL     1       3.847   4.356  17.060  0.00  0.00    +0.000 A 
ATOM     15  C   UNL     1       4.975   4.852  16.407  0.00  0.00    +0.000 A 
ATOM     16  C   UNL     1       5.916   3.909  15.720  0.00  0.00    +0.000 C 
ATOM     17  C   UNL     1       5.223   6.229  16.438  0.00  0.00    +0.000 A 
ATOM     18  C   UNL     1       4.401   7.084  17.188  0.00  0.00    +0.000 A 
ENDBRANCH  10  12
ENDBRANCH   3   8
BRANCH   1  19
ATOM     19  S   UNL     1      -0.777  12.947  19.385  0.00  0.00    +0.000 S 
ATOM     20  O   UNL     1      -2.197  12.995  19.606  0.00  0.00    +0.000 OA
ATOM     21  O   UNL     1      -0.262  13.146  18.039  0.00  0.00    +0.000 OA
BRANCH  19  27
ATOM     22  N   UNL     1       2.214  14.859  19.849  0.00  0.00    +0.000 N 
ATOM     23  C   UNL     1       3.443  14.519  20.338  0.00  0.00    +0.000 A 
ATOM     24  N   UNL     1       3.305  13.609  21.274  0.00  0.00    +0.000 NA
ATOM     25  N   UNL     1       1.957  13.388  21.438  0.00  0.00    +0.000 NA
ATOM     26  C   UNL     1       1.309  14.080  20.528  0.00  0.00    +0.000 A 
ATOM     27  N   UNL     1      -0.122  14.102  20.474  0.00  0.00    +0.000 N 
ATOM     28  H   UNL     1      -0.499  13.958  21.405  0.00  0.00    +0.000 HD
BRANCH  22  29
ATOM     29  C   UNL     1       1.946  15.852  18.823  0.00  0.00    +0.000 C 
ATOM     30  C   UNL     1       3.113  15.888  17.832  0.00  0.00    +0.000 C 
BRANCH  29  32
ATOM     31  C   UNL     1       0.249  17.764  19.077  0.00  0.00    +0.000 C 
ATOM     32  C   UNL     1       1.662  17.275  19.362  0.00  0.00    +0.000 C 
ENDBRANCH  29  32
ENDBRANCH  22  29
ENDBRANCH  19  27
ENDBRANCH   1  19
BRANCH   7  33
ATOM     33  S   UNL     1      -1.314  11.678  22.535  0.00  0.00    +0.000 S 
ATOM     34  H   UNL     1      -1.827  12.678  21.804  0.00  0.00    +0.000 HD
ENDBRANCH   7  33
TORSDOF 7
ENDMDL
MODEL 5
REMARK VINA RESULT:      -7.5      4.121      9.754
REMARK  Name = 
REMARK  10 active torsions:
REMARK  status: ('A' for Active; 'I' for Inactive)
REMARK    1  A    between atoms: C_1  and  C_2
REMARK    2  A    between atoms: C_2  and  C_3
REMARK    3  A    between atoms: C_3  and  C_4
REMARK    4  A    between atoms: C_3  and  N_5
REMARK    5  A    between atoms: N_10  and  S_11
REMARK    6  A    between atoms: S_11  and  C_14
REMARK    7  A    between atoms: C_16  and  C_17
REMARK    8  A    between atoms: N_19  and  C_20
REMARK    9  A    between atoms: C_23  and  C_24
REMARK   10  A    between atoms: C_30  and  S_31
REMARK                            x       y       z     vdW  Elec       q    Type
REMARK                         _______ _______ _______ _____ _____    ______ ____
ROOT
ATOM      1  C   UNL     1       0.474  10.310  20.592  0.00  0.00    +0.000 A 
ATOM      2  C   UNL     1       1.248   9.743  19.551  0.00  0.00    +0.000 A 
ATOM      3  C   UNL     1       1.678   8.386  19.575  0.00  0.00    +0.000 A 
ATOM      4  C   UNL     1       1.315   7.594  20.661  0.00  0.00    +0.000 A 
ATOM      5 CL   UNL     1       1.666   5.905  20.800  0.00  0.00    +0.000 Cl
ATOM      6  C   UNL     1       0.586   8.161  21.710  0.00  0.00    +0.000 A 
ATOM      7  C   UNL     1       0.171   9.510  21.700  0.00  0.00    +0.000 A 
ENDROOT
BRANCH   3   8
ATOM      8  C   UNL     1       2.432   7.889  18.388  0.00  0.00    +0.000 C 
ATOM      9  O   UNL     1       2.275   8.529  17.352  0.00  0.00    +0.000 OA
ATOM     10  N   UNL     1       3.212   6.744  18.526  0.00  0.00    +0.000 N 
ATOM     11  H   UNL     1       3.120   6.210  19.381  0.00  0.00    +0.000 HD
BRANCH  10  12
ATOM     12  C   UNL     1       3.905   6.105  17.470  0.00  0.00    +0.000 A 
ATOM     13  C   UNL     1       3.832   4.728  17.266  0.00  0.00    +0.000 A 
ATOM     14  C   UNL     1       4.648   4.097  16.330  0.00  0.00    +0.000 A 
ATOM     15  C   UNL     1       5.544   4.839  15.560  0.00  0.00    +0.000 A 
ATOM     16  C   UNL     1       6.508   4.137  14.652  0.00  0.00    +0.000 C 
ATOM     17  C   UNL     1       5.547   6.233  15.683  0.00  0.00    +0.000 A 
ATOM     18  C   UNL     1       4.724   6.867  16.627  0.00  0.00    +0.000 A 
ENDBRANCH  10  12
ENDBRANCH   3   8
BRANCH   1  19
ATOM     19  S   UNL     1       0.085  12.079  20.499  0.00  0.00    +0.000 S 
ATOM     20  O   UNL     1       0.739  12.698  21.620  0.00  0.00    +0.000 OA
ATOM     21  O   UNL     1      -1.357  12.204  20.361  0.00  0.00    +0.000 OA
BRANCH  19  27
ATOM     22  N   UNL     1       2.048  14.916  19.542  0.00  0.00    +0.000 N 
ATOM     23  C   UNL     1       1.698  16.199  19.230  0.00  0.00    +0.000 A 
ATOM     24  N   UNL     1       0.529  16.202  18.636  0.00  0.00    +0.000 NA
ATOM     25  N   UNL     1       0.129  14.892  18.507  0.00  0.00    +0.000 NA
ATOM     26  C   UNL     1       1.004  14.128  19.122  0.00  0.00    +0.000 A 
ATOM     27  N   UNL     1       0.894  12.701  19.117  0.00  0.00    +0.000 N 
ATOM     28  H   UNL     1       0.423  12.399  18.271  0.00  0.00    +0.000 HD
BRANCH  22  29
ATOM     29  C   UNL     1       3.283  14.497  20.182  0.00  0.00    +0.000 C 
ATOM     30  C   UNL     1       3.267  14.928  21.651  0.00  0.00    +0.000 C 
BRANCH  29  32
ATOM     31  C   UNL     1       4.688  14.589  18.033  0.00  0.00    +0.000 C 
ATOM     32  C   UNL     1       4.571  15.007  19.492  0.00  0.00    +0.000 C 
ENDBRANCH  29  32
ENDBRANCH  22  29
ENDBRANCH  19  27
ENDBRANCH   1  19
BRANCH   7  33
ATOM     33  S   UNL     1      -0.649  10.056  23.181  0.00  0.00    +0.000 S 
ATOM     34  H   UNL     1       0.359   9.866  24.044  0.00  0.00    +0.000 HD
ENDBRANCH   7  33
TORSDOF 7
ENDMDL
MODEL 6
REMARK VINA RESULT:      -7.4      4.301      9.920
REMARK  Name = 
REMARK  10 active torsions:
REMARK  status: ('A' for Active; 'I' for Inactive)
REMARK    1  A    between atoms: C_1  and  C_2
REMARK    2  A    between atoms: C_2  and  C_3
REMARK    3  A    between atoms: C_3  and  C_4
REMARK    4  A    between atoms: C_3  and  N_5
REMARK    5  A    between atoms: N_10  and  S_11
REMARK    6  A    between atoms: S_11  and  C_14
REMARK    7  A    between atoms: C_16  and  C_17
REMARK    8  A    between atoms: N_19  and  C_20
REMARK    9  A    between atoms: C_23  and  C_24
REMARK   10  A    between atoms: C_30  and  S_31
REMARK                            x       y       z     vdW  Elec       q    Type
REMARK                         _______ _______ _______ _____ _____    ______ ____
ROOT
ATOM      1  C   UNL     1       0.102  11.182  19.503  0.00  0.00    +0.000 A 
ATOM      2  C   UNL     1       0.981  10.403  18.712  0.00  0.00    +0.000 A 
ATOM      3  C   UNL     1       1.460   9.131  19.136  0.00  0.00    +0.000 A 
ATOM      4  C   UNL     1       1.041   8.640  20.369  0.00  0.00    +0.000 A 
ATOM      5 CL   UNL     1       1.444   7.075  20.988  0.00  0.00    +0.000 Cl
ATOM      6  C   UNL     1       0.206   9.424  21.170  0.00  0.00    +0.000 A 
ATOM      7  C   UNL     1      -0.260  10.693  20.763  0.00  0.00    +0.000 A 
ENDROOT
BRANCH   3   8
ATOM      8  C   UNL     1       2.329   8.378  18.185  0.00  0.00    +0.000 C 
ATOM      9  O   UNL     1       2.308   8.770  17.021  0.00  0.00    +0.000 OA
ATOM     10  N   UNL     1       3.055   7.291  18.663  0.00  0.00    +0.000 N 
ATOM     11  H   UNL     1       2.852   6.962  19.598  0.00  0.00    +0.000 HD
BRANCH  10  12
ATOM     12  C   UNL     1       3.843   6.430  17.863  0.00  0.00    +0.000 A 
ATOM     13  C   UNL     1       4.986   6.877  17.202  0.00  0.00    +0.000 A 
ATOM     14  C   UNL     1       5.653   6.062  16.290  0.00  0.00    +0.000 A 
ATOM     15  C   UNL     1       5.198   4.769  16.034  0.00  0.00    +0.000 A 
ATOM     16  C   UNL     1       5.842   3.949  14.957  0.00  0.00    +0.000 C 
ATOM     17  C   UNL     1       4.116   4.274  16.772  0.00  0.00    +0.000 A 
ATOM     18  C   UNL     1       3.446   5.097  17.691  0.00  0.00    +0.000 A 
ENDBRANCH  10  12
ENDBRANCH   3   8
BRANCH   1  19
ATOM     19  S   UNL     1      -0.346  12.833  18.903  0.00  0.00    +0.000 S 
ATOM     20  O   UNL     1       0.849  13.398  18.339  0.00  0.00    +0.000 OA
ATOM     21  O   UNL     1      -1.014  13.528  19.992  0.00  0.00    +0.000 OA
BRANCH  19  27
ATOM     22  N   UNL     1      -3.562  11.434  18.179  0.00  0.00    +0.000 N 
ATOM     23  C   UNL     1      -3.973  10.143  18.007  0.00  0.00    +0.000 A 
ATOM     24  N   UNL     1      -3.011   9.448  17.449  0.00  0.00    +0.000 NA
ATOM     25  N   UNL     1      -1.969  10.311  17.201  0.00  0.00    +0.000 NA
ATOM     26  C   UNL     1      -2.271  11.484  17.712  0.00  0.00    +0.000 A 
ATOM     27  N   UNL     1      -1.405  12.615  17.568  0.00  0.00    +0.000 N 
ATOM     28  H   UNL     1      -0.872  12.528  16.710  0.00  0.00    +0.000 HD
BRANCH  22  29
ATOM     29  C   UNL     1      -4.352  12.517  18.739  0.00  0.00    +0.000 C 
ATOM     30  C   UNL     1      -4.137  12.574  20.254  0.00  0.00    +0.000 C 
BRANCH  29  32
ATOM     31  C   UNL     1      -6.219  12.945  17.027  0.00  0.00    +0.000 C 
ATOM     32  C   UNL     1      -5.865  12.442  18.419  0.00  0.00    +0.000 C 
ENDBRANCH  29  32
ENDBRANCH  22  29
ENDBRANCH  19  27
ENDBRANCH   1  19
BRANCH   7  33
ATOM     33  S   UNL     1      -1.221  11.567  21.978  0.00  0.00    +0.000 S 
ATOM     34  H   UNL     1      -0.213  12.167  22.630  0.00  0.00    +0.000 HD
ENDBRANCH   7  33
TORSDOF 7
ENDMDL
MODEL 7
REMARK VINA RESULT:      -7.4      6.392     10.489
REMARK  Name = 
REMARK  10 active torsions:
REMARK  status: ('A' for Active; 'I' for Inactive)
REMARK    1  A    between atoms: C_1  and  C_2
REMARK    2  A    between atoms: C_2  and  C_3
REMARK    3  A    between atoms: C_3  and  C_4
REMARK    4  A    between atoms: C_3  and  N_5
REMARK    5  A    between atoms: N_10  and  S_11
REMARK    6  A    between atoms: S_11  and  C_14
REMARK    7  A    between atoms: C_16  and  C_17
REMARK    8  A    between atoms: N_19  and  C_20
REMARK    9  A    between atoms: C_23  and  C_24
REMARK   10  A    between atoms: C_30  and  S_31
REMARK                            x       y       z     vdW  Elec       q    Type
REMARK                         _______ _______ _______ _____ _____    ______ ____
ROOT
ATOM      1  C   UNL     1      -1.245  13.834  21.273  0.00  0.00    +0.000 A 
ATOM      2  C   UNL     1      -0.713  12.742  20.546  0.00  0.00    +0.000 A 
ATOM      3  C   UNL     1      -0.539  11.454  21.127  0.00  0.00    +0.000 A 
ATOM      4  C   UNL     1      -0.911  11.269  22.455  0.00  0.00    +0.000 A 
ATOM      5 CL   UNL     1      -0.861   9.749  23.283  0.00  0.00    +0.000 Cl
ATOM      6  C   UNL     1      -1.397  12.354  23.188  0.00  0.00    +0.000 A 
ATOM      7  C   UNL     1      -1.558  13.638  22.623  0.00  0.00    +0.000 A 
ENDROOT
BRANCH   3   8
ATOM      8  C   UNL     1      -0.031  10.369  20.238  0.00  0.00    +0.000 C 
ATOM      9  O   UNL     1      -0.691  10.158  19.224  0.00  0.00    +0.000 OA
ATOM     10  N   UNL     1       1.105   9.665  20.629  0.00  0.00    +0.000 N 
ATOM     11  H   UNL     1       1.454   9.814  21.567  0.00  0.00    +0.000 HD
BRANCH  10  12
ATOM     12  C   UNL     1       1.645   8.553  19.939  0.00  0.00    +0.000 A 
ATOM     13  C   UNL     1       1.983   8.616  18.588  0.00  0.00    +0.000 A 
ATOM     14  C   UNL     1       2.354   7.471  17.886  0.00  0.00    +0.000 A 
ATOM     15  C   UNL     1       2.414   6.236  18.532  0.00  0.00    +0.000 A 
ATOM     16  C   UNL     1       2.686   4.992  17.741  0.00  0.00    +0.000 C 
ATOM     17  C   UNL     1       2.180   6.182  19.911  0.00  0.00    +0.000 A 
ATOM     18  C   UNL     1       1.806   7.337  20.616  0.00  0.00    +0.000 A 
ENDBRANCH  10  12
ENDBRANCH   3   8
BRANCH   1  19
ATOM     19  S   UNL     1      -1.312  15.450  20.455  0.00  0.00    +0.000 S 
ATOM     20  O   UNL     1      -0.396  16.303  21.164  0.00  0.00    +0.000 OA
ATOM     21  O   UNL     1      -2.711  15.836  20.361  0.00  0.00    +0.000 OA
BRANCH  19  27
ATOM     22  N   UNL     1       1.875  15.701  18.843  0.00  0.00    +0.000 N 
ATOM     23  C   UNL     1       2.599  16.781  18.424  0.00  0.00    +0.000 A 
ATOM     24  N   UNL     1       1.782  17.725  18.021  0.00  0.00    +0.000 NA
ATOM     25  N   UNL     1       0.500  17.236  18.128  0.00  0.00    +0.000 NA
ATOM     26  C   UNL     1       0.555  16.051  18.696  0.00  0.00    +0.000 A 
ATOM     27  N   UNL     1      -0.619  15.256  18.896  0.00  0.00    +0.000 N 
ATOM     28  H   UNL     1      -1.303  15.474  18.179  0.00  0.00    +0.000 HD
BRANCH  22  29
ATOM     29  C   UNL     1       2.417  14.446  19.335  0.00  0.00    +0.000 C 
ATOM     30  C   UNL     1       3.432  14.729  20.445  0.00  0.00    +0.000 C 
BRANCH  29  32
ATOM     31  C   UNL     1       2.410  12.177  18.129  0.00  0.00    +0.000 C 
ATOM     32  C   UNL     1       3.057  13.550  18.246  0.00  0.00    +0.000 C 
ENDBRANCH  29  32
ENDBRANCH  22  29
ENDBRANCH  19  27
ENDBRANCH   1  19
BRANCH   7  33
ATOM     33  S   UNL     1      -2.087  14.899  23.760  0.00  0.00    +0.000 S 
ATOM     34  H   UNL     1      -3.289  15.155  23.222  0.00  0.00    +0.000 HD
ENDBRANCH   7  33
TORSDOF 7
ENDMDL
MODEL 8
REMARK VINA RESULT:      -7.3      6.630     12.387
REMARK  Name = 
REMARK  10 active torsions:
REMARK  status: ('A' for Active; 'I' for Inactive)
REMARK    1  A    between atoms: C_1  and  C_2
REMARK    2  A    between atoms: C_2  and  C_3
REMARK    3  A    between atoms: C_3  and  C_4
REMARK    4  A    between atoms: C_3  and  N_5
REMARK    5  A    between atoms: N_10  and  S_11
REMARK    6  A    between atoms: S_11  and  C_14
REMARK    7  A    between atoms: C_16  and  C_17
REMARK    8  A    between atoms: N_19  and  C_20
REMARK    9  A    between atoms: C_23  and  C_24
REMARK   10  A    between atoms: C_30  and  S_31
REMARK                            x       y       z     vdW  Elec       q    Type
REMARK                         _______ _______ _______ _____ _____    ______ ____
ROOT
ATOM      1  C   UNL     1      -1.755  13.994  20.576  0.00  0.00    +0.000 A 
ATOM      2  C   UNL     1      -1.402  12.688  20.160  0.00  0.00    +0.000 A 
ATOM      3  C   UNL     1      -0.296  12.436  19.300  0.00  0.00    +0.000 A 
ATOM      4  C   UNL     1       0.464  13.516  18.861  0.00  0.00    +0.000 A 
ATOM      5 CL   UNL     1       1.897  13.379  17.899  0.00  0.00    +0.000 Cl
ATOM      6  C   UNL     1       0.094  14.811  19.236  0.00  0.00    +0.000 A 
ATOM      7  C   UNL     1      -1.011  15.069  20.075  0.00  0.00    +0.000 A 
ENDROOT
BRANCH   3   8
ATOM      8  C   UNL     1       0.014  11.010  18.988  0.00  0.00    +0.000 C 
ATOM      9  O   UNL     1      -0.760  10.456  18.211  0.00  0.00    +0.000 OA
ATOM     10  N   UNL     1       1.108  10.414  19.610  0.00  0.00    +0.000 N 
ATOM     11  H   UNL     1       1.559  10.921  20.360  0.00  0.00    +0.000 HD
BRANCH  10  12
ATOM     12  C   UNL     1       1.465   9.050  19.484  0.00  0.00    +0.000 A 
ATOM     13  C   UNL     1       1.324   8.149  20.538  0.00  0.00    +0.000 A 
ATOM     14  C   UNL     1       1.834   6.856  20.450  0.00  0.00    +0.000 A 
ATOM     15  C   UNL     1       2.482   6.430  19.291  0.00  0.00    +0.000 A 
ATOM     16  C   UNL     1       3.141   5.084  19.255  0.00  0.00    +0.000 C 
ATOM     17  C   UNL     1       2.533   7.292  18.189  0.00  0.00    +0.000 A 
ATOM     18  C   UNL     1       2.018   8.594  18.280  0.00  0.00    +0.000 A 
ENDBRANCH  10  12
ENDBRANCH   3   8
BRANCH   1  19
ATOM     19  S   UNL     1      -3.251  14.194  21.579  0.00  0.00    +0.000 S 
ATOM     20  O   UNL     1      -4.227  14.824  20.732  0.00  0.00    +0.000 OA
ATOM     21  O   UNL     1      -2.863  14.846  22.820  0.00  0.00    +0.000 OA
BRANCH  19  27
ATOM     22  N   UNL     1      -6.404  12.545  21.985  0.00  0.00    +0.000 N 
ATOM     23  C   UNL     1      -7.269  12.486  23.040  0.00  0.00    +0.000 A 
ATOM     24  N   UNL     1      -6.591  12.507  24.163  0.00  0.00    +0.000 NA
ATOM     25  N   UNL     1      -5.254  12.528  23.837  0.00  0.00    +0.000 NA
ATOM     26  C   UNL     1      -5.147  12.631  22.531  0.00  0.00    +0.000 A 
ATOM     27  N   UNL     1      -3.874  12.621  21.876  0.00  0.00    +0.000 N 
ATOM     28  H   UNL     1      -3.213  12.082  22.425  0.00  0.00    +0.000 HD
BRANCH  22  29
ATOM     29  C   UNL     1      -6.767  12.517  20.578  0.00  0.00    +0.000 C 
ATOM     30  C   UNL     1      -7.858  13.557  20.312  0.00  0.00    +0.000 C 
BRANCH  29  32
ATOM     31  C   UNL     1      -6.791  10.852  18.622  0.00  0.00    +0.000 C 
ATOM     32  C   UNL     1      -7.215  11.130  20.057  0.00  0.00    +0.000 C 
ENDBRANCH  29  32
ENDBRANCH  22  29
ENDBRANCH  19  27
ENDBRANCH   1  19
BRANCH   7  33
ATOM     33  S   UNL     1      -1.370  16.791  20.338  0.00  0.00    +0.000 S 
ATOM     34  H   UNL     1      -2.708  16.724  20.275  0.00  0.00    +0.000 HD
ENDBRANCH   7  33
TORSDOF 7
ENDMDL
MODEL 9
REMARK VINA RESULT:      -7.2      4.027     10.190
REMARK  Name = 
REMARK  10 active torsions:
REMARK  status: ('A' for Active; 'I' for Inactive)
REMARK    1  A    between atoms: C_1  and  C_2
REMARK    2  A    between atoms: C_2  and  C_3
REMARK    3  A    between atoms: C_3  and  C_4
REMARK    4  A    between atoms: C_3  and  N_5
REMARK    5  A    between atoms: N_10  and  S_11
REMARK    6  A    between atoms: S_11  and  C_14
REMARK    7  A    between atoms: C_16  and  C_17
REMARK    8  A    between atoms: N_19  and  C_20
REMARK    9  A    between atoms: C_23  and  C_24
REMARK   10  A    between atoms: C_30  and  S_31
REMARK                            x       y       z     vdW  Elec       q    Type
REMARK                         _______ _______ _______ _____ _____    ______ ____
ROOT
ATOM      1  C   UNL     1       0.432  10.388  20.141  0.00  0.00    +0.000 A 
ATOM      2  C   UNL     1       1.256   9.749  19.182  0.00  0.00    +0.000 A 
ATOM      3  C   UNL     1       1.760   8.432  19.370  0.00  0.00    +0.000 A 
ATOM      4  C   UNL     1       1.423   7.752  20.537  0.00  0.00    +0.000 A 
ATOM      5 CL   UNL     1       1.865   6.113  20.877  0.00  0.00    +0.000 Cl
ATOM      6  C   UNL     1       0.645   8.394  21.504  0.00  0.00    +0.000 A 
ATOM      7  C   UNL     1       0.155   9.706  21.331  0.00  0.00    +0.000 A 
ENDROOT
BRANCH   3   8
ATOM      8  C   UNL     1       2.562   7.844  18.258  0.00  0.00    +0.000 C 
ATOM      9  O   UNL     1       2.363   8.325  17.146  0.00  0.00    +0.000 OA
ATOM     10  N   UNL     1       3.431   6.794  18.546  0.00  0.00    +0.000 N 
ATOM     11  H   UNL     1       3.375   6.372  19.464  0.00  0.00    +0.000 HD
BRANCH  10  12
ATOM     12  C   UNL     1       4.182   6.079  17.583  0.00  0.00    +0.000 A 
ATOM     13  C   UNL     1       5.146   6.698  16.789  0.00  0.00    +0.000 A 
ATOM     14  C   UNL     1       5.755   6.018  15.737  0.00  0.00    +0.000 A 
ATOM     15  C   UNL     1       5.422   4.691  15.467  0.00  0.00    +0.000 A 
ATOM     16  C   UNL     1       5.984   4.011  14.255  0.00  0.00    +0.000 C 
ATOM     17  C   UNL     1       4.535   4.029  16.324  0.00  0.00    +0.000 A 
ATOM     18  C   UNL     1       3.923   4.716  17.385  0.00  0.00    +0.000 A 
ENDBRANCH  10  12
ENDBRANCH   3   8
BRANCH   1  19
ATOM     19  S   UNL     1      -0.052  12.108  19.836  0.00  0.00    +0.000 S 
ATOM     20  O   UNL     1      -1.489  12.140  19.883  0.00  0.00    +0.000 OA
ATOM     21  O   UNL     1       0.628  12.548  18.628  0.00  0.00    +0.000 OA
BRANCH  19  27
ATOM     22  N   UNL     1       1.627  15.182  20.578  0.00  0.00    +0.000 N 
ATOM     23  C   UNL     1       2.949  15.525  20.550  0.00  0.00    +0.000 A 
ATOM     24  N   UNL     1       3.677  14.487  20.887  0.00  0.00    +0.000 NA
ATOM     25  N   UNL     1       2.814  13.459  21.194  0.00  0.00    +0.000 NA
ATOM     26  C   UNL     1       1.589  13.855  20.931  0.00  0.00    +0.000 A 
ATOM     27  N   UNL     1       0.454  13.024  21.198  0.00  0.00    +0.000 N 
ATOM     28  H   UNL     1       0.661  12.407  21.977  0.00  0.00    +0.000 HD
BRANCH  22  29
ATOM     29  C   UNL     1       0.509  16.064  20.293  0.00  0.00    +0.000 C 
ATOM     30  C   UNL     1       0.195  16.023  18.795  0.00  0.00    +0.000 C 
BRANCH  29  32
ATOM     31  C   UNL     1      -0.536  18.391  20.604  0.00  0.00    +0.000 C 
ATOM     32  C   UNL     1       0.709  17.528  20.754  0.00  0.00    +0.000 C 
ENDBRANCH  29  32
ENDBRANCH  22  29
ENDBRANCH  19  27
ENDBRANCH   1  19
BRANCH   7  33
ATOM     33  S   UNL     1      -0.721  10.372  22.728  0.00  0.00    +0.000 S 
ATOM     34  H   UNL     1      -1.899   9.762  22.530  0.00  0.00    +0.000 HD
ENDBRANCH   7  33
TORSDOF 7
ENDMDL
