MODEL 1
REMARK VINA RESULT:      -6.8      0.000      0.000
REMARK  Name = 
REMARK  5 active torsions:
REMARK  status: ('A' for Active; 'I' for Inactive)
REMARK    1  A    between atoms: C_2  and  C_3
REMARK    2  A    between atoms: C_3  and  O_4
REMARK    3  A    between atoms: O_4  and  C_5
REMARK    4  A    between atoms: C_8  and  C_9
REMARK    5  A    between atoms: C_9  and  N_10
REMARK                            x       y       z     vdW  Elec       q    Type
REMARK                         _______ _______ _______ _____ _____    ______ ____
ROOT
ATOM      1  C   UNL     1       2.058   4.200  17.879  0.00  0.00    +0.000 A 
ATOM      2  C   UNL     1       2.181   5.557  18.179  0.00  0.00    +0.000 A 
ATOM      3  C   UNL     1       3.267   6.290  17.694  0.00  0.00    +0.000 A 
ATOM      4  C   UNL     1       4.252   5.674  16.914  0.00  0.00    +0.000 A 
ATOM      5  C   UNL     1       4.165   4.294  16.682  0.00  0.00    +0.000 A 
ATOM      6  C   UNL     1       3.075   3.563  17.164  0.00  0.00    +0.000 A 
ENDROOT
BRANCH   1   7
ATOM      7  O   UNL     1       0.994   3.414  18.236  0.00  0.00    +0.000 OA
BRANCH   7   8
ATOM      8  C   UNL     1       1.289   2.428  19.227  0.00  0.00    +0.000 C 
BRANCH   8  10
ATOM      9  C   UNL     1       2.113   3.085  21.501  0.00  0.00    +0.000 C 
ATOM     10  C   UNL     1       1.138   3.049  20.583  0.00  0.00    +0.000 C 
ENDBRANCH   8  10
ENDBRANCH   7   8
ENDBRANCH   1   7
BRANCH   4  11
ATOM     11  C   UNL     1       5.393   6.492  16.358  0.00  0.00    +0.000 C 
BRANCH  11  12
ATOM     12  N   UNL     1       6.287   6.870  17.427  0.00  0.00    +0.000 N 
ATOM     13  C   UNL     1       7.144   5.958  17.915  0.00  0.00    +0.000 A 
ATOM     14  N   UNL     1       7.590   4.896  17.168  0.00  0.00    +0.000 NA
ATOM     15  N   UNL     1       8.404   4.198  17.949  0.00  0.00    +0.000 NA
ATOM     16  N   UNL     1       8.407   4.869  19.105  0.00  0.00    +0.000 N 
ATOM     17  N   UNL     1       7.641   5.968  19.152  0.00  0.00    +0.000 NA
ATOM     18  H   UNL     1       5.886   7.497  18.113  0.00  0.00    +0.000 HD
ATOM     19  H   UNL     1       8.949   4.553  19.904  0.00  0.00    +0.000 HD
ENDBRANCH  11  12
ENDBRANCH   4  11
TORSDOF 5
ENDMDL
MODEL 2
REMARK VINA RESULT:      -6.8      4.171      6.029
REMARK  Name = 
REMARK  5 active torsions:
REMARK  status: ('A' for Active; 'I' for Inactive)
REMARK    1  A    between atoms: C_2  and  C_3
REMARK    2  A    between atoms: C_3  and  O_4
REMARK    3  A    between atoms: O_4  and  C_5
REMARK    4  A    between atoms: C_8  and  C_9
REMARK    5  A    between atoms: C_9  and  N_10
REMARK                            x       y       z     vdW  Elec       q    Type
REMARK                         _______ _______ _______ _____ _____    ______ ____
ROOT
ATOM      1  C   UNL     1       5.654   6.194  16.743  0.00  0.00    +0.000 A 
ATOM      2  C   UNL     1       4.532   6.545  17.496  0.00  0.00    +0.000 A 
ATOM      3  C   UNL     1       3.565   5.586  17.806  0.00  0.00    +0.000 A 
ATOM      4  C   UNL     1       3.699   4.266  17.358  0.00  0.00    +0.000 A 
ATOM      5  C   UNL     1       4.787   3.938  16.537  0.00  0.00    +0.000 A 
ATOM      6  C   UNL     1       5.756   4.899  16.231  0.00  0.00    +0.000 A 
ENDROOT
BRANCH   1   7
ATOM      7  O   UNL     1       6.696   7.037  16.455  0.00  0.00    +0.000 OA
BRANCH   7   8
ATOM      8  C   UNL     1       7.561   7.310  17.558  0.00  0.00    +0.000 C 
BRANCH   8  10
ATOM      9  C   UNL     1       8.657   9.383  18.441  0.00  0.00    +0.000 C 
ATOM     10  C   UNL     1       7.715   8.795  17.692  0.00  0.00    +0.000 C 
ENDBRANCH   8  10
ENDBRANCH   7   8
ENDBRANCH   1   7
BRANCH   4  11
ATOM     11  C   UNL     1       2.670   3.232  17.744  0.00  0.00    +0.000 C 
BRANCH  11  12
ATOM     12  N   UNL     1       1.809   3.762  18.776  0.00  0.00    +0.000 N 
ATOM     13  C   UNL     1       1.935   3.303  20.031  0.00  0.00    +0.000 A 
ATOM     14  N   UNL     1       3.110   2.776  20.507  0.00  0.00    +0.000 NA
ATOM     15  N   UNL     1       2.884   2.416  21.762  0.00  0.00    +0.000 NA
ATOM     16  N   UNL     1       1.605   2.743  21.974  0.00  0.00    +0.000 N 
ATOM     17  N   UNL     1       0.957   3.293  20.938  0.00  0.00    +0.000 NA
ATOM     18  H   UNL     1       0.860   3.954  18.478  0.00  0.00    +0.000 HD
ATOM     19  H   UNL     1       1.151   2.571  22.866  0.00  0.00    +0.000 HD
ENDBRANCH  11  12
ENDBRANCH   4  11
TORSDOF 5
ENDMDL
MODEL 3
REMARK VINA RESULT:      -6.7      4.367      6.442
REMARK  Name = 
REMARK  5 active torsions:
REMARK  status: ('A' for Active; 'I' for Inactive)
REMARK    1  A    between atoms: C_2  and  C_3
REMARK    2  A    between atoms: C_3  and  O_4
REMARK    3  A    between atoms: O_4  and  C_5
REMARK    4  A    between atoms: C_8  and  C_9
REMARK    5  A    between atoms: C_9  and  N_10
REMARK                            x       y       z     vdW  Elec       q    Type
REMARK                         _______ _______ _______ _____ _____    ______ ____
ROOT
ATOM      1  C   UNL     1       6.524   6.635  17.169  0.00  0.00    +0.000 A 
ATOM      2  C   UNL     1       5.526   6.223  16.286  0.00  0.00    +0.000 A 
ATOM      3  C   UNL     1       4.719   5.126  16.597  0.00  0.00    +0.000 A 
ATOM      4  C   UNL     1       4.908   4.417  17.789  0.00  0.00    +0.000 A 
ATOM      5  C   UNL     1       5.964   4.786  18.636  0.00  0.00    +0.000 A 
ATOM      6  C   UNL     1       6.767   5.887  18.324  0.00  0.00    +0.000 A 
ENDROOT
BRANCH   1   7
ATOM      7  O   UNL     1       7.313   7.743  16.996  0.00  0.00    +0.000 OA
BRANCH   7   8
ATOM      8  C   UNL     1       8.166   8.043  18.102  0.00  0.00    +0.000 C 
BRANCH   8  10
ATOM      9  C   UNL     1       9.135  10.140  19.073  0.00  0.00    +0.000 C 
ATOM     10  C   UNL     1       8.434   9.518  18.117  0.00  0.00    +0.000 C 
ENDBRANCH   8  10
ENDBRANCH   7   8
ENDBRANCH   1   7
BRANCH   4  11
ATOM     11  C   UNL     1       3.995   3.264  18.133  0.00  0.00    +0.000 C 
BRANCH  11  12
ATOM     12  N   UNL     1       2.717   3.770  18.573  0.00  0.00    +0.000 N 
ATOM     13  C   UNL     1       2.232   3.375  19.761  0.00  0.00    +0.000 A 
ATOM     14  N   UNL     1       3.046   2.959  20.786  0.00  0.00    +0.000 NA
ATOM     15  N   UNL     1       2.251   2.635  21.795  0.00  0.00    +0.000 NA
ATOM     16  N   UNL     1       1.018   2.873  21.334  0.00  0.00    +0.000 N 
ATOM     17  N   UNL     1       0.937   3.328  20.076  0.00  0.00    +0.000 NA
ATOM     18  H   UNL     1       2.028   3.877  17.838  0.00  0.00    +0.000 HD
ATOM     19  H   UNL     1       0.194   2.704  21.902  0.00  0.00    +0.000 HD
ENDBRANCH  11  12
ENDBRANCH   4  11
TORSDOF 5
ENDMDL
MODEL 4
REMARK VINA RESULT:      -6.7      4.313      6.668
REMARK  Name = 
REMARK  5 active torsions:
REMARK  status: ('A' for Active; 'I' for Inactive)
REMARK    1  A    between atoms: C_2  and  C_3
REMARK    2  A    between atoms: C_3  and  O_4
REMARK    3  A    between atoms: O_4  and  C_5
REMARK    4  A    between atoms: C_8  and  C_9
REMARK    5  A    between atoms: C_9  and  N_10
REMARK                            x       y       z     vdW  Elec       q    Type
REMARK                         _______ _______ _______ _____ _____    ______ ____
ROOT
ATOM      1  C   UNL     1       7.559   6.869  18.146  0.00  0.00    +0.000 A 
ATOM      2  C   UNL     1       7.583   5.520  18.504  0.00  0.00    +0.000 A 
ATOM      3  C   UNL     1       6.656   4.630  17.957  0.00  0.00    +0.000 A 
ATOM      4  C   UNL     1       5.684   5.077  17.055  0.00  0.00    +0.000 A 
ATOM      5  C   UNL     1       5.614   6.447  16.760  0.00  0.00    +0.000 A 
ATOM      6  C   UNL     1       6.546   7.335  17.305  0.00  0.00    +0.000 A 
ENDROOT
BRANCH   1   7
ATOM      7  O   UNL     1       8.470   7.804  18.562  0.00  0.00    +0.000 OA
BRANCH   7   8
ATOM      8  C   UNL     1       8.268   9.112  18.022  0.00  0.00    +0.000 C 
BRANCH   8  10
ATOM      9  C   UNL     1       9.690  11.157  18.295  0.00  0.00    +0.000 C 
ATOM     10  C   UNL     1       9.071  10.092  18.822  0.00  0.00    +0.000 C 
ENDBRANCH   8  10
ENDBRANCH   7   8
ENDBRANCH   1   7
BRANCH   4  11
ATOM     11  C   UNL     1       4.721   4.093  16.435  0.00  0.00    +0.000 C 
BRANCH  11  12
ATOM     12  N   UNL     1       4.649   2.904  17.252  0.00  0.00    +0.000 N 
ATOM     13  C   UNL     1       3.474   2.562  17.805  0.00  0.00    +0.000 A 
ATOM     14  N   UNL     1       2.270   2.937  17.263  0.00  0.00    +0.000 NA
ATOM     15  N   UNL     1       1.327   2.447  18.056  0.00  0.00    +0.000 NA
ATOM     16  N   UNL     1       2.003   1.811  19.018  0.00  0.00    +0.000 N 
ATOM     17  N   UNL     1       3.340   1.849  18.924  0.00  0.00    +0.000 NA
ATOM     18  H   UNL     1       5.464   2.736  17.829  0.00  0.00    +0.000 HD
ATOM     19  H   UNL     1       1.528   1.339  19.781  0.00  0.00    +0.000 HD
ENDBRANCH  11  12
ENDBRANCH   4  11
TORSDOF 5
ENDMDL
MODEL 5
REMARK VINA RESULT:      -6.6      1.019      1.675
REMARK  Name = 
REMARK  5 active torsions:
REMARK  status: ('A' for Active; 'I' for Inactive)
REMARK    1  A    between atoms: C_2  and  C_3
REMARK    2  A    between atoms: C_3  and  O_4
REMARK    3  A    between atoms: O_4  and  C_5
REMARK    4  A    between atoms: C_8  and  C_9
REMARK    5  A    between atoms: C_9  and  N_10
REMARK                            x       y       z     vdW  Elec       q    Type
REMARK                         _______ _______ _______ _____ _____    ______ ____
ROOT
ATOM      1  C   UNL     1       2.388   4.707  18.260  0.00  0.00    +0.000 A 
ATOM      2  C   UNL     1       2.910   3.558  17.664  0.00  0.00    +0.000 A 
ATOM      3  C   UNL     1       4.068   3.632  16.886  0.00  0.00    +0.000 A 
ATOM      4  C   UNL     1       4.713   4.858  16.682  0.00  0.00    +0.000 A 
ATOM      5  C   UNL     1       4.140   6.020  17.217  0.00  0.00    +0.000 A 
ATOM      6  C   UNL     1       2.984   5.943  17.999  0.00  0.00    +0.000 A 
ENDROOT
BRANCH   1   7
ATOM      7  O   UNL     1       1.309   4.727  19.104  0.00  0.00    +0.000 OA
BRANCH   7   8
ATOM      8  C   UNL     1       1.642   4.771  20.493  0.00  0.00    +0.000 C 
BRANCH   8  10
ATOM      9  C   UNL     1       2.420   2.667  21.609  0.00  0.00    +0.000 C 
ATOM     10  C   UNL     1       1.437   3.408  21.081  0.00  0.00    +0.000 C 
ENDBRANCH   8  10
ENDBRANCH   7   8
ENDBRANCH   1   7
BRANCH   4  11
ATOM     11  C   UNL     1       5.990   4.912  15.879  0.00  0.00    +0.000 C 
BRANCH  11  12
ATOM     12  N   UNL     1       6.808   6.010  16.339  0.00  0.00    +0.000 N 
ATOM     13  C   UNL     1       7.396   5.926  17.543  0.00  0.00    +0.000 A 
ATOM     14  N   UNL     1       7.702   4.723  18.129  0.00  0.00    +0.000 NA
ATOM     15  N   UNL     1       8.256   5.001  19.301  0.00  0.00    +0.000 NA
ATOM     16  N   UNL     1       8.257   6.337  19.356  0.00  0.00    +0.000 N 
ATOM     17  N   UNL     1       7.732   6.972  18.298  0.00  0.00    +0.000 NA
ATOM     18  H   UNL     1       6.463   6.929  16.088  0.00  0.00    +0.000 HD
ATOM     19  H   UNL     1       8.623   6.837  20.160  0.00  0.00    +0.000 HD
ENDBRANCH  11  12
ENDBRANCH   4  11
TORSDOF 5
ENDMDL
MODEL 6
REMARK VINA RESULT:      -6.6      4.203      6.188
REMARK  Name = 
REMARK  5 active torsions:
REMARK  status: ('A' for Active; 'I' for Inactive)
REMARK    1  A    between atoms: C_2  and  C_3
REMARK    2  A    between atoms: C_3  and  O_4
REMARK    3  A    between atoms: O_4  and  C_5
REMARK    4  A    between atoms: C_8  and  C_9
REMARK    5  A    between atoms: C_9  and  N_10
REMARK                            x       y       z     vdW  Elec       q    Type
REMARK                         _______ _______ _______ _____ _____    ______ ____
ROOT
ATOM      1  C   UNL     1       5.749   6.341  16.969  0.00  0.00    +0.000 A 
ATOM      2  C   UNL     1       6.033   4.977  16.887  0.00  0.00    +0.000 A 
ATOM      3  C   UNL     1       5.039   4.034  17.157  0.00  0.00    +0.000 A 
ATOM      4  C   UNL     1       3.752   4.439  17.527  0.00  0.00    +0.000 A 
ATOM      5  C   UNL     1       3.494   5.809  17.685  0.00  0.00    +0.000 A 
ATOM      6  C   UNL     1       4.489   6.751  17.409  0.00  0.00    +0.000 A 
ENDROOT
BRANCH   1   7
ATOM      7  O   UNL     1       6.627   7.343  16.646  0.00  0.00    +0.000 OA
BRANCH   7   8
ATOM      8  C   UNL     1       7.666   7.553  17.603  0.00  0.00    +0.000 C 
BRANCH   8  10
ATOM      9  C   UNL     1       8.792   9.565  18.585  0.00  0.00    +0.000 C 
ATOM     10  C   UNL     1       7.906   9.027  17.737  0.00  0.00    +0.000 C 
ENDBRANCH   8  10
ENDBRANCH   7   8
ENDBRANCH   1   7
BRANCH   4  11
ATOM     11  C   UNL     1       2.677   3.407  17.768  0.00  0.00    +0.000 C 
BRANCH  11  12
ATOM     12  N   UNL     1       1.801   3.855  18.826  0.00  0.00    +0.000 N 
ATOM     13  C   UNL     1       1.952   3.344  20.059  0.00  0.00    +0.000 A 
ATOM     14  N   UNL     1       3.150   2.844  20.505  0.00  0.00    +0.000 NA
ATOM     15  N   UNL     1       2.946   2.417  21.744  0.00  0.00    +0.000 NA
ATOM     16  N   UNL     1       1.656   2.682  21.975  0.00  0.00    +0.000 N 
ATOM     17  N   UNL     1       0.981   3.253  20.968  0.00  0.00    +0.000 NA
ATOM     18  H   UNL     1       0.843   4.022  18.541  0.00  0.00    +0.000 HD
ATOM     19  H   UNL     1       1.214   2.451  22.860  0.00  0.00    +0.000 HD
ENDBRANCH  11  12
ENDBRANCH   4  11
TORSDOF 5
ENDMDL
MODEL 7
REMARK VINA RESULT:      -6.6      0.979      1.162
REMARK  Name = 
REMARK  5 active torsions:
REMARK  status: ('A' for Active; 'I' for Inactive)
REMARK    1  A    between atoms: C_2  and  C_3
REMARK    2  A    between atoms: C_3  and  O_4
REMARK    3  A    between atoms: O_4  and  C_5
REMARK    4  A    between atoms: C_8  and  C_9
REMARK    5  A    between atoms: C_9  and  N_10
REMARK                            x       y       z     vdW  Elec       q    Type
REMARK                         _______ _______ _______ _____ _____    ______ ____
ROOT
ATOM      1  C   UNL     1       2.465   4.419  18.265  0.00  0.00    +0.000 A 
ATOM      2  C   UNL     1       2.911   5.714  18.001  0.00  0.00    +0.000 A 
ATOM      3  C   UNL     1       4.043   5.922  17.211  0.00  0.00    +0.000 A 
ATOM      4  C   UNL     1       4.753   4.838  16.682  0.00  0.00    +0.000 A 
ATOM      5  C   UNL     1       4.347   3.537  17.015  0.00  0.00    +0.000 A 
ATOM      6  C   UNL     1       3.211   3.332  17.803  0.00  0.00    +0.000 A 
ENDROOT
BRANCH   1   7
ATOM      7  O   UNL     1       1.323   4.111  18.958  0.00  0.00    +0.000 OA
BRANCH   7   8
ATOM      8  C   UNL     1       1.322   4.541  20.321  0.00  0.00    +0.000 C 
BRANCH   8  10
ATOM      9  C   UNL     1       2.452   2.639  21.497  0.00  0.00    +0.000 C 
ATOM     10  C   UNL     1       1.344   3.332  21.207  0.00  0.00    +0.000 C 
ENDBRANCH   8  10
ENDBRANCH   7   8
ENDBRANCH   1   7
BRANCH   4  11
ATOM     11  C   UNL     1       5.946   5.081  15.790  0.00  0.00    +0.000 C 
BRANCH  11  12
ATOM     12  N   UNL     1       6.749   6.153  16.331  0.00  0.00    +0.000 N 
ATOM     13  C   UNL     1       7.352   5.982  17.519  0.00  0.00    +0.000 A 
ATOM     14  N   UNL     1       7.687   4.740  18.000  0.00  0.00    +0.000 NA
ATOM     15  N   UNL     1       8.249   4.932  19.185  0.00  0.00    +0.000 NA
ATOM     16  N   UNL     1       8.226   6.259  19.351  0.00  0.00    +0.000 N 
ATOM     17  N   UNL     1       7.677   6.968  18.354  0.00  0.00    +0.000 NA
ATOM     18  H   UNL     1       6.384   7.082  16.160  0.00  0.00    +0.000 HD
ATOM     19  H   UNL     1       8.592   6.698  20.189  0.00  0.00    +0.000 HD
ENDBRANCH  11  12
ENDBRANCH   4  11
TORSDOF 5
ENDMDL
MODEL 8
REMARK VINA RESULT:      -6.5      4.070      6.043
REMARK  Name = 
REMARK  5 active torsions:
REMARK  status: ('A' for Active; 'I' for Inactive)
REMARK    1  A    between atoms: C_2  and  C_3
REMARK    2  A    between atoms: C_3  and  O_4
REMARK    3  A    between atoms: O_4  and  C_5
REMARK    4  A    between atoms: C_8  and  C_9
REMARK    5  A    between atoms: C_9  and  N_10
REMARK                            x       y       z     vdW  Elec       q    Type
REMARK                         _______ _______ _______ _____ _____    ______ ____
ROOT
ATOM      1  C   UNL     1       6.281   5.913  16.823  0.00  0.00    +0.000 A 
ATOM      2  C   UNL     1       5.141   6.363  17.490  0.00  0.00    +0.000 A 
ATOM      3  C   UNL     1       4.029   5.528  17.626  0.00  0.00    +0.000 A 
ATOM      4  C   UNL     1       4.037   4.237  17.087  0.00  0.00    +0.000 A 
ATOM      5  C   UNL     1       5.155   3.818  16.350  0.00  0.00    +0.000 A 
ATOM      6  C   UNL     1       6.267   4.655  16.219  0.00  0.00    +0.000 A 
ENDROOT
BRANCH   1   7
ATOM      7  O   UNL     1       7.448   6.622  16.706  0.00  0.00    +0.000 OA
BRANCH   7   8
ATOM      8  C   UNL     1       7.869   7.276  17.905  0.00  0.00    +0.000 C 
BRANCH   8  10
ATOM      9  C   UNL     1       8.666   9.604  18.378  0.00  0.00    +0.000 C 
ATOM     10  C   UNL     1       7.931   8.752  17.651  0.00  0.00    +0.000 C 
ENDBRANCH   8  10
ENDBRANCH   7   8
ENDBRANCH   1   7
BRANCH   4  11
ATOM     11  C   UNL     1       2.846   3.330  17.286  0.00  0.00    +0.000 C 
BRANCH  11  12
ATOM     12  N   UNL     1       3.063   2.487  18.438  0.00  0.00    +0.000 N 
ATOM     13  C   UNL     1       2.601   2.884  19.635  0.00  0.00    +0.000 A 
ATOM     14  N   UNL     1       1.530   3.733  19.763  0.00  0.00    +0.000 NA
ATOM     15  N   UNL     1       1.350   3.923  21.063  0.00  0.00    +0.000 NA
ATOM     16  N   UNL     1       2.306   3.187  21.639  0.00  0.00    +0.000 N 
ATOM     17  N   UNL     1       3.119   2.521  20.808  0.00  0.00    +0.000 NA
ATOM     18  H   UNL     1       3.960   2.016  18.455  0.00  0.00    +0.000 HD
ATOM     19  H   UNL     1       2.413   3.147  22.648  0.00  0.00    +0.000 HD
ENDBRANCH  11  12
ENDBRANCH   4  11
TORSDOF 5
ENDMDL
MODEL 9
REMARK VINA RESULT:      -6.5      4.347      6.047
REMARK  Name = 
REMARK  5 active torsions:
REMARK  status: ('A' for Active; 'I' for Inactive)
REMARK    1  A    between atoms: C_2  and  C_3
REMARK    2  A    between atoms: C_3  and  O_4
REMARK    3  A    between atoms: O_4  and  C_5
REMARK    4  A    between atoms: C_8  and  C_9
REMARK    5  A    between atoms: C_9  and  N_10
REMARK                            x       y       z     vdW  Elec       q    Type
REMARK                         _______ _______ _______ _____ _____    ______ ____
ROOT
ATOM      1  C   UNL     1       6.347   5.181  16.339  0.00  0.00    +0.000 A 
ATOM      2  C   UNL     1       5.370   6.135  16.055  0.00  0.00    +0.000 A 
ATOM      3  C   UNL     1       4.382   6.434  16.996  0.00  0.00    +0.000 A 
ATOM      4  C   UNL     1       4.350   5.774  18.230  0.00  0.00    +0.000 A 
ATOM      5  C   UNL     1       5.288   4.760  18.479  0.00  0.00    +0.000 A 
ATOM      6  C   UNL     1       6.278   4.467  17.537  0.00  0.00    +0.000 A 
ENDROOT
BRANCH   1   7
ATOM      7  O   UNL     1       7.402   4.876  15.519  0.00  0.00    +0.000 OA
BRANCH   7   8
ATOM      8  C   UNL     1       7.117   4.970  14.123  0.00  0.00    +0.000 C 
BRANCH   8  10
ATOM      9  C   UNL     1       6.097   3.377  12.479  0.00  0.00    +0.000 C 
ATOM     10  C   UNL     1       6.230   3.826  13.734  0.00  0.00    +0.000 C 
ENDBRANCH   8  10
ENDBRANCH   7   8
ENDBRANCH   1   7
BRANCH   4  11
ATOM     11  C   UNL     1       3.306   6.143  19.256  0.00  0.00    +0.000 C 
BRANCH  11  12
ATOM     12  N   UNL     1       3.321   5.183  20.334  0.00  0.00    +0.000 N 
ATOM     13  C   UNL     1       2.327   4.283  20.422  0.00  0.00    +0.000 A 
ATOM     14  N   UNL     1       1.606   3.876  19.327  0.00  0.00    +0.000 NA
ATOM     15  N   UNL     1       0.710   3.003  19.767  0.00  0.00    +0.000 NA
ATOM     16  N   UNL     1       0.938   2.930  21.082  0.00  0.00    +0.000 N 
ATOM     17  N   UNL     1       1.926   3.703  21.553  0.00  0.00    +0.000 NA
ATOM     18  H   UNL     1       3.657   5.544  21.219  0.00  0.00    +0.000 HD
ATOM     19  H   UNL     1       0.385   2.331  21.686  0.00  0.00    +0.000 HD
ENDBRANCH  11  12
ENDBRANCH   4  11
TORSDOF 5
ENDMDL
