MODEL 1
REMARK VINA RESULT:      -8.5      0.000      0.000
REMARK  Name = 
REMARK  6 active torsions:
REMARK  status: ('A' for Active; 'I' for Inactive)
REMARK    1  A    between atoms: C_2  and  C_3
REMARK    2  A    between atoms: C_3  and  C_15
REMARK    3  A    between atoms: C_4  and  C_5
REMARK    4  A    between atoms: N_20  and  C_21
REMARK    5  A    between atoms: C_24  and  C_25
REMARK    6  A    between atoms: C_25  and  O_27
REMARK                            x       y       z     vdW  Elec       q    Type
REMARK                         _______ _______ _______ _____ _____    ______ ____
ROOT
ATOM      1  C   UNL     1       1.498   8.443  20.825  0.00  0.00    +0.000 C 
ATOM      2  C   UNL     1       0.707   9.516  20.668  0.00  0.00    +0.000 C 
ATOM      3  S   UNL     1       0.016  10.080  19.203  0.00  0.00    +0.000 S 
ATOM      4  C   UNL     1      -0.848  11.399  19.992  0.00  0.00    +0.000 C 
ATOM      5  S   UNL     1      -1.716  12.511  19.095  0.00  0.00    +0.000 S 
ATOM      6  N   UNL     1      -0.612  11.360  21.357  0.00  0.00    +0.000 N 
ATOM      7  C   UNL     1       0.264  10.376  21.812  0.00  0.00    +0.000 C 
ATOM      8  O   UNL     1       0.623  10.176  22.962  0.00  0.00    +0.000 OA
ENDROOT
BRANCH   6   9
ATOM      9  C   UNL     1      -1.229  12.247  22.291  0.00  0.00    +0.000 A 
ATOM     10  C   UNL     1      -0.611  13.447  22.657  0.00  0.00    +0.000 A 
ATOM     11  C   UNL     1      -1.236  14.321  23.556  0.00  0.00    +0.000 A 
ATOM     12  C   UNL     1      -2.468  13.989  24.140  0.00  0.00    +0.000 A 
ATOM     13  C   UNL     1      -3.081  12.780  23.795  0.00  0.00    +0.000 A 
ATOM     14  C   UNL     1      -2.466  11.920  22.871  0.00  0.00    +0.000 A 
BRANCH  12  15
ATOM     15  C   UNL     1      -3.082  14.983  25.065  0.00  0.00    +0.000 C 
ATOM     16  O   UNL     1      -2.434  15.556  25.926  0.00  0.00    +0.000 OA
BRANCH  15  17
ATOM     17  O   UNL     1      -4.408  15.172  24.909  0.00  0.00    +0.000 OA
ATOM     18  H   UNL     1      -4.691  16.053  24.610  0.00  0.00    +0.000 HD
ENDBRANCH  15  17
ENDBRANCH  12  15
ENDBRANCH   6   9
BRANCH   1  19
ATOM     19  C   UNL     1       1.999   7.550  19.778  0.00  0.00    +0.000 C 
ATOM     20  C   UNL     1       2.145   6.226  20.007  0.00  0.00    +0.000 C 
BRANCH  20  21
ATOM     21  C   UNL     1       2.558   5.247  18.982  0.00  0.00    +0.000 A 
ATOM     22  C   UNL     1       1.559   4.472  18.376  0.00  0.00    +0.000 A 
ATOM     23  C   UNL     1       1.900   3.450  17.492  0.00  0.00    +0.000 A 
ATOM     24  C   UNL     1       3.238   3.215  17.185  0.00  0.00    +0.000 A 
ATOM     25  C   UNL     1       4.253   4.014  17.728  0.00  0.00    +0.000 A 
ATOM     26  C   UNL     1       5.590   3.789  17.365  0.00  0.00    +0.000 A 
ATOM     27  C   UNL     1       6.616   4.575  17.883  0.00  0.00    +0.000 A 
ATOM     28  C   UNL     1       6.319   5.590  18.783  0.00  0.00    +0.000 A 
ATOM     29  C   UNL     1       4.993   5.820  19.163  0.00  0.00    +0.000 A 
ATOM     30  C   UNL     1       3.927   5.048  18.643  0.00  0.00    +0.000 A 
ENDBRANCH  20  21
BRANCH  19  32
ATOM     31  N   UNL     1       2.473   8.618  17.460  0.00  0.00    +0.000 NA
ATOM     32  C   UNL     1       2.262   8.129  18.489  0.00  0.00    +0.000 C 
ENDBRANCH  19  32
ENDBRANCH   1  19
TORSDOF 6
ENDMDL
MODEL 2
REMARK VINA RESULT:      -8.0      1.510      1.859
REMARK  Name = 
REMARK  6 active torsions:
REMARK  status: ('A' for Active; 'I' for Inactive)
REMARK    1  A    between atoms: C_2  and  C_3
REMARK    2  A    between atoms: C_3  and  C_15
REMARK    3  A    between atoms: C_4  and  C_5
REMARK    4  A    between atoms: N_20  and  C_21
REMARK    5  A    between atoms: C_24  and  C_25
REMARK    6  A    between atoms: C_25  and  O_27
REMARK                            x       y       z     vdW  Elec       q    Type
REMARK                         _______ _______ _______ _____ _____    ______ ____
ROOT
ATOM      1  C   UNL     1       1.571   7.742  21.221  0.00  0.00    +0.000 C 
ATOM      2  C   UNL     1       0.874   8.839  20.888  0.00  0.00    +0.000 C 
ATOM      3  S   UNL     1       0.226   9.218  19.346  0.00  0.00    +0.000 S 
ATOM      4  C   UNL     1      -0.519  10.714  19.907  0.00  0.00    +0.000 C 
ATOM      5  S   UNL     1      -1.293  11.738  18.836  0.00  0.00    +0.000 S 
ATOM      6  N   UNL     1      -0.279  10.875  21.263  0.00  0.00    +0.000 N 
ATOM      7  C   UNL     1       0.512   9.905  21.876  0.00  0.00    +0.000 C 
ATOM      8  O   UNL     1       0.860   9.863  23.046  0.00  0.00    +0.000 OA
ENDROOT
BRANCH   6   9
ATOM      9  C   UNL     1      -0.813  11.950  22.038  0.00  0.00    +0.000 A 
ATOM     10  C   UNL     1      -1.989  11.787  22.776  0.00  0.00    +0.000 A 
ATOM     11  C   UNL     1      -2.490  12.841  23.551  0.00  0.00    +0.000 A 
ATOM     12  C   UNL     1      -1.850  14.089  23.565  0.00  0.00    +0.000 A 
ATOM     13  C   UNL     1      -0.684  14.264  22.812  0.00  0.00    +0.000 A 
ATOM     14  C   UNL     1      -0.169  13.198  22.059  0.00  0.00    +0.000 A 
BRANCH  12  15
ATOM     15  C   UNL     1      -2.429  15.151  24.436  0.00  0.00    +0.000 C 
ATOM     16  O   UNL     1      -2.088  16.319  24.350  0.00  0.00    +0.000 OA
BRANCH  15  17
ATOM     17  O   UNL     1      -3.323  14.722  25.350  0.00  0.00    +0.000 OA
ATOM     18  H   UNL     1      -3.564  13.781  25.317  0.00  0.00    +0.000 HD
ENDBRANCH  15  17
ENDBRANCH  12  15
ENDBRANCH   6   9
BRANCH   1  19
ATOM     19  C   UNL     1       1.988   6.653  20.336  0.00  0.00    +0.000 C 
ATOM     20  C   UNL     1       2.444   6.907  19.089  0.00  0.00    +0.000 C 
BRANCH  20  21
ATOM     21  C   UNL     1       2.966   5.877  18.169  0.00  0.00    +0.000 A 
ATOM     22  C   UNL     1       2.129   4.796  17.854  0.00  0.00    +0.000 A 
ATOM     23  C   UNL     1       2.610   3.735  17.090  0.00  0.00    +0.000 A 
ATOM     24  C   UNL     1       3.917   3.759  16.610  0.00  0.00    +0.000 A 
ATOM     25  C   UNL     1       4.754   4.855  16.858  0.00  0.00    +0.000 A 
ATOM     26  C   UNL     1       6.053   4.878  16.323  0.00  0.00    +0.000 A 
ATOM     27  C   UNL     1       6.901   5.960  16.547  0.00  0.00    +0.000 A 
ATOM     28  C   UNL     1       6.466   7.028  17.321  0.00  0.00    +0.000 A 
ATOM     29  C   UNL     1       5.180   7.015  17.870  0.00  0.00    +0.000 A 
ATOM     30  C   UNL     1       4.289   5.937  17.649  0.00  0.00    +0.000 A 
ENDBRANCH  20  21
BRANCH  19  32
ATOM     31  N   UNL     1       1.947   4.238  21.288  0.00  0.00    +0.000 NA
ATOM     32  C   UNL     1       1.955   5.319  20.872  0.00  0.00    +0.000 C 
ENDBRANCH  19  32
ENDBRANCH   1  19
TORSDOF 6
ENDMDL
MODEL 3
REMARK VINA RESULT:      -7.9      1.567      1.744
REMARK  Name = 
REMARK  6 active torsions:
REMARK  status: ('A' for Active; 'I' for Inactive)
REMARK    1  A    between atoms: C_2  and  C_3
REMARK    2  A    between atoms: C_3  and  C_15
REMARK    3  A    between atoms: C_4  and  C_5
REMARK    4  A    between atoms: N_20  and  C_21
REMARK    5  A    between atoms: C_24  and  C_25
REMARK    6  A    between atoms: C_25  and  O_27
REMARK                            x       y       z     vdW  Elec       q    Type
REMARK                         _______ _______ _______ _____ _____    ______ ____
ROOT
ATOM      1  C   UNL     1       1.611   7.659  21.173  0.00  0.00    +0.000 C 
ATOM      2  C   UNL     1       0.990   8.795  20.818  0.00  0.00    +0.000 C 
ATOM      3  S   UNL     1       0.436   9.217  19.250  0.00  0.00    +0.000 S 
ATOM      4  C   UNL     1      -0.253  10.748  19.789  0.00  0.00    +0.000 C 
ATOM      5  S   UNL     1      -0.920  11.818  18.691  0.00  0.00    +0.000 S 
ATOM      6  N   UNL     1      -0.069  10.888  21.155  0.00  0.00    +0.000 N 
ATOM      7  C   UNL     1       0.639   9.873  21.796  0.00  0.00    +0.000 C 
ATOM      8  O   UNL     1       0.929   9.805  22.981  0.00  0.00    +0.000 OA
ENDROOT
BRANCH   6   9
ATOM      9  C   UNL     1      -0.580  11.985  21.913  0.00  0.00    +0.000 A 
ATOM     10  C   UNL     1       0.064  13.227  21.902  0.00  0.00    +0.000 A 
ATOM     11  C   UNL     1      -0.459  14.302  22.631  0.00  0.00    +0.000 A 
ATOM     12  C   UNL     1      -1.608  14.144  23.420  0.00  0.00    +0.000 A 
ATOM     13  C   UNL     1      -2.245  12.898  23.452  0.00  0.00    +0.000 A 
ATOM     14  C   UNL     1      -1.734  11.830  22.697  0.00  0.00    +0.000 A 
BRANCH  12  15
ATOM     15  C   UNL     1      -2.119  15.342  24.143  0.00  0.00    +0.000 C 
ATOM     16  O   UNL     1      -2.648  15.262  25.240  0.00  0.00    +0.000 OA
BRANCH  15  17
ATOM     17  O   UNL     1      -1.990  16.511  23.484  0.00  0.00    +0.000 OA
ATOM     18  H   UNL     1      -1.246  16.583  22.862  0.00  0.00    +0.000 HD
ENDBRANCH  15  17
ENDBRANCH  12  15
ENDBRANCH   6   9
BRANCH   1  19
ATOM     19  C   UNL     1       2.010   6.555  20.299  0.00  0.00    +0.000 C 
ATOM     20  C   UNL     1       2.487   6.790  19.057  0.00  0.00    +0.000 C 
BRANCH  20  21
ATOM     21  C   UNL     1       2.993   5.741  18.149  0.00  0.00    +0.000 A 
ATOM     22  C   UNL     1       2.146   4.660  17.860  0.00  0.00    +0.000 A 
ATOM     23  C   UNL     1       2.612   3.584  17.109  0.00  0.00    +0.000 A 
ATOM     24  C   UNL     1       3.914   3.591  16.617  0.00  0.00    +0.000 A 
ATOM     25  C   UNL     1       4.762   4.685  16.838  0.00  0.00    +0.000 A 
ATOM     26  C   UNL     1       6.055   4.691  16.290  0.00  0.00    +0.000 A 
ATOM     27  C   UNL     1       6.912   5.771  16.487  0.00  0.00    +0.000 A 
ATOM     28  C   UNL     1       6.492   6.854  17.247  0.00  0.00    +0.000 A 
ATOM     29  C   UNL     1       5.211   6.859  17.809  0.00  0.00    +0.000 A 
ATOM     30  C   UNL     1       4.312   5.783  17.615  0.00  0.00    +0.000 A 
ENDBRANCH  20  21
BRANCH  19  32
ATOM     31  N   UNL     1       1.875   4.145  21.256  0.00  0.00    +0.000 NA
ATOM     32  C   UNL     1       1.935   5.225  20.842  0.00  0.00    +0.000 C 
ENDBRANCH  19  32
ENDBRANCH   1  19
TORSDOF 6
ENDMDL
MODEL 4
REMARK VINA RESULT:      -7.9      1.309      2.452
REMARK  Name = 
REMARK  6 active torsions:
REMARK  status: ('A' for Active; 'I' for Inactive)
REMARK    1  A    between atoms: C_2  and  C_3
REMARK    2  A    between atoms: C_3  and  C_15
REMARK    3  A    between atoms: C_4  and  C_5
REMARK    4  A    between atoms: N_20  and  C_21
REMARK    5  A    between atoms: C_24  and  C_25
REMARK    6  A    between atoms: C_25  and  O_27
REMARK                            x       y       z     vdW  Elec       q    Type
REMARK                         _______ _______ _______ _____ _____    ______ ____
ROOT
ATOM      1  C   UNL     1       1.259   9.327  20.671  0.00  0.00    +0.000 C 
ATOM      2  C   UNL     1       0.211  10.137  20.460  0.00  0.00    +0.000 C 
ATOM      3  S   UNL     1      -0.773  10.202  19.056  0.00  0.00    +0.000 S 
ATOM      4  C   UNL     1      -1.839  11.435  19.729  0.00  0.00    +0.000 C 
ATOM      5  S   UNL     1      -3.061  12.104  18.806  0.00  0.00    +0.000 S 
ATOM      6  N   UNL     1      -1.437  11.747  21.018  0.00  0.00    +0.000 N 
ATOM      7  C   UNL     1      -0.293  11.104  21.488  0.00  0.00    +0.000 C 
ATOM      8  O   UNL     1       0.243  11.243  22.576  0.00  0.00    +0.000 OA
ENDROOT
BRANCH   6   9
ATOM      9  C   UNL     1      -2.139  12.656  21.867  0.00  0.00    +0.000 A 
ATOM     10  C   UNL     1      -2.962  12.186  22.896  0.00  0.00    +0.000 A 
ATOM     11  C   UNL     1      -3.627  13.088  23.738  0.00  0.00    +0.000 A 
ATOM     12  C   UNL     1      -3.518  14.472  23.537  0.00  0.00    +0.000 A 
ATOM     13  C   UNL     1      -2.713  14.946  22.495  0.00  0.00    +0.000 A 
ATOM     14  C   UNL     1      -2.025  14.042  21.672  0.00  0.00    +0.000 A 
BRANCH  12  15
ATOM     15  C   UNL     1      -4.233  15.365  24.490  0.00  0.00    +0.000 C 
ATOM     16  O   UNL     1      -3.641  16.053  25.305  0.00  0.00    +0.000 OA
BRANCH  15  17
ATOM     17  O   UNL     1      -5.579  15.329  24.415  0.00  0.00    +0.000 OA
ATOM     18  H   UNL     1      -5.993  15.867  23.719  0.00  0.00    +0.000 HD
ENDBRANCH  15  17
ENDBRANCH  12  15
ENDBRANCH   6   9
BRANCH   1  19
ATOM     19  C   UNL     1       1.838   8.362  19.735  0.00  0.00    +0.000 C 
ATOM     20  C   UNL     1       2.169   7.115  20.138  0.00  0.00    +0.000 C 
BRANCH  20  21
ATOM     21  C   UNL     1       2.674   6.058  19.239  0.00  0.00    +0.000 A 
ATOM     22  C   UNL     1       3.723   6.384  18.367  0.00  0.00    +0.000 A 
ATOM     23  C   UNL     1       4.156   5.465  17.414  0.00  0.00    +0.000 A 
ATOM     24  C   UNL     1       3.568   4.205  17.345  0.00  0.00    +0.000 A 
ATOM     25  C   UNL     1       2.561   3.831  18.244  0.00  0.00    +0.000 A 
ATOM     26  C   UNL     1       2.016   2.537  18.186  0.00  0.00    +0.000 A 
ATOM     27  C   UNL     1       1.021   2.138  19.074  0.00  0.00    +0.000 A 
ATOM     28  C   UNL     1       0.548   3.031  20.025  0.00  0.00    +0.000 A 
ATOM     29  C   UNL     1       1.071   4.327  20.089  0.00  0.00    +0.000 A 
ATOM     30  C   UNL     1       2.093   4.758  19.210  0.00  0.00    +0.000 A 
ENDBRANCH  20  21
BRANCH  19  32
ATOM     31  N   UNL     1       2.081   9.085  17.253  0.00  0.00    +0.000 NA
ATOM     32  C   UNL     1       1.975   8.775  18.365  0.00  0.00    +0.000 C 
ENDBRANCH  19  32
ENDBRANCH   1  19
TORSDOF 6
ENDMDL
MODEL 5
REMARK VINA RESULT:      -7.9      0.862      2.171
REMARK  Name = 
REMARK  6 active torsions:
REMARK  status: ('A' for Active; 'I' for Inactive)
REMARK    1  A    between atoms: C_2  and  C_3
REMARK    2  A    between atoms: C_3  and  C_15
REMARK    3  A    between atoms: C_4  and  C_5
REMARK    4  A    between atoms: N_20  and  C_21
REMARK    5  A    between atoms: C_24  and  C_25
REMARK    6  A    between atoms: C_25  and  O_27
REMARK                            x       y       z     vdW  Elec       q    Type
REMARK                         _______ _______ _______ _____ _____    ______ ____
ROOT
ATOM      1  C   UNL     1       1.510   8.725  20.823  0.00  0.00    +0.000 C 
ATOM      2  C   UNL     1       0.650   9.739  20.636  0.00  0.00    +0.000 C 
ATOM      3  S   UNL     1      -0.065  10.221  19.154  0.00  0.00    +0.000 S 
ATOM      4  C   UNL     1      -1.023  11.496  19.907  0.00  0.00    +0.000 C 
ATOM      5  S   UNL     1      -1.956  12.526  18.978  0.00  0.00    +0.000 S 
ATOM      6  N   UNL     1      -0.797  11.504  21.274  0.00  0.00    +0.000 N 
ATOM      7  C   UNL     1       0.140  10.592  21.757  0.00  0.00    +0.000 C 
ATOM      8  O   UNL     1       0.502  10.443  22.913  0.00  0.00    +0.000 OA
ENDROOT
BRANCH   6   9
ATOM      9  C   UNL     1      -1.479  12.369  22.183  0.00  0.00    +0.000 A 
ATOM     10  C   UNL     1      -0.903  13.573  22.597  0.00  0.00    +0.000 A 
ATOM     11  C   UNL     1      -1.592  14.424  23.471  0.00  0.00    +0.000 A 
ATOM     12  C   UNL     1      -2.849  14.065  23.981  0.00  0.00    +0.000 A 
ATOM     13  C   UNL     1      -3.421  12.851  23.586  0.00  0.00    +0.000 A 
ATOM     14  C   UNL     1      -2.741  12.014  22.688  0.00  0.00    +0.000 A 
BRANCH  12  15
ATOM     15  C   UNL     1      -3.530  15.036  24.883  0.00  0.00    +0.000 C 
ATOM     16  O   UNL     1      -4.446  15.745  24.500  0.00  0.00    +0.000 OA
BRANCH  15  17
ATOM     17  O   UNL     1      -3.037  15.102  26.136  0.00  0.00    +0.000 OA
ATOM     18  H   UNL     1      -2.621  15.941  26.398  0.00  0.00    +0.000 HD
ENDBRANCH  15  17
ENDBRANCH  12  15
ENDBRANCH   6   9
BRANCH   1  19
ATOM     19  C   UNL     1       2.079   7.844  19.801  0.00  0.00    +0.000 C 
ATOM     20  C   UNL     1       2.482   6.592  20.111  0.00  0.00    +0.000 C 
BRANCH  20  21
ATOM     21  C   UNL     1       2.982   5.613  19.124  0.00  0.00    +0.000 A 
ATOM     22  C   UNL     1       4.070   5.988  18.323  0.00  0.00    +0.000 A 
ATOM     23  C   UNL     1       4.506   5.155  17.295  0.00  0.00    +0.000 A 
ATOM     24  C   UNL     1       3.880   3.930  17.079  0.00  0.00    +0.000 A 
ATOM     25  C   UNL     1       2.831   3.503  17.905  0.00  0.00    +0.000 A 
ATOM     26  C   UNL     1       2.247   2.243  17.698  0.00  0.00    +0.000 A 
ATOM     27  C   UNL     1       1.210   1.791  18.511  0.00  0.00    +0.000 A 
ATOM     28  C   UNL     1       0.733   2.601  19.533  0.00  0.00    +0.000 A 
ATOM     29  C   UNL     1       1.296   3.864  19.744  0.00  0.00    +0.000 A 
ATOM     30  C   UNL     1       2.361   4.345  18.945  0.00  0.00    +0.000 A 
ENDBRANCH  20  21
BRANCH  19  32
ATOM     31  N   UNL     1       2.189   8.742  17.368  0.00  0.00    +0.000 NA
ATOM     32  C   UNL     1       2.126   8.344  18.454  0.00  0.00    +0.000 C 
ENDBRANCH  19  32
ENDBRANCH   1  19
TORSDOF 6
ENDMDL
MODEL 6
REMARK VINA RESULT:      -7.8      0.995      2.319
REMARK  Name = 
REMARK  6 active torsions:
REMARK  status: ('A' for Active; 'I' for Inactive)
REMARK    1  A    between atoms: C_2  and  C_3
REMARK    2  A    between atoms: C_3  and  C_15
REMARK    3  A    between atoms: C_4  and  C_5
REMARK    4  A    between atoms: N_20  and  C_21
REMARK    5  A    between atoms: C_24  and  C_25
REMARK    6  A    between atoms: C_25  and  O_27
REMARK                            x       y       z     vdW  Elec       q    Type
REMARK                         _______ _______ _______ _____ _____    ______ ____
ROOT
ATOM      1  C   UNL     1       1.233   8.798  20.914  0.00  0.00    +0.000 C 
ATOM      2  C   UNL     1       0.698  10.015  20.729  0.00  0.00    +0.000 C 
ATOM      3  S   UNL     1       0.563  10.864  19.245  0.00  0.00    +0.000 S 
ATOM      4  C   UNL     1      -0.282  12.227  19.979  0.00  0.00    +0.000 C 
ATOM      5  S   UNL     1      -0.667  13.581  19.076  0.00  0.00    +0.000 S 
ATOM      6  N   UNL     1      -0.466  11.989  21.331  0.00  0.00    +0.000 N 
ATOM      7  C   UNL     1       0.076  10.808  21.836  0.00  0.00    +0.000 C 
ATOM      8  O   UNL     1       0.048  10.414  22.992  0.00  0.00    +0.000 OA
ENDROOT
BRANCH   6   9
ATOM      9  C   UNL     1      -1.185  12.867  22.198  0.00  0.00    +0.000 A 
ATOM     10  C   UNL     1      -2.551  12.682  22.434  0.00  0.00    +0.000 A 
ATOM     11  C   UNL     1      -3.240  13.536  23.305  0.00  0.00    +0.000 A 
ATOM     12  C   UNL     1      -2.589  14.616  23.918  0.00  0.00    +0.000 A 
ATOM     13  C   UNL     1      -1.227  14.820  23.668  0.00  0.00    +0.000 A 
ATOM     14  C   UNL     1      -0.532  13.945  22.818  0.00  0.00    +0.000 A 
BRANCH  12  15
ATOM     15  C   UNL     1      -3.384  15.462  24.852  0.00  0.00    +0.000 C 
ATOM     16  O   UNL     1      -2.858  16.180  25.686  0.00  0.00    +0.000 OA
BRANCH  15  17
ATOM     17  O   UNL     1      -4.723  15.346  24.735  0.00  0.00    +0.000 OA
ATOM     18  H   UNL     1      -5.255  15.662  25.485  0.00  0.00    +0.000 HD
ENDBRANCH  15  17
ENDBRANCH  12  15
ENDBRANCH   6   9
BRANCH   1  19
ATOM     19  C   UNL     1       1.876   7.949  19.909  0.00  0.00    +0.000 C 
ATOM     20  C   UNL     1       2.323   6.713  20.227  0.00  0.00    +0.000 C 
BRANCH  20  21
ATOM     21  C   UNL     1       2.899   5.763  19.254  0.00  0.00    +0.000 A 
ATOM     22  C   UNL     1       4.015   6.181  18.512  0.00  0.00    +0.000 A 
ATOM     23  C   UNL     1       4.525   5.374  17.497  0.00  0.00    +0.000 A 
ATOM     24  C   UNL     1       3.946   4.135  17.236  0.00  0.00    +0.000 A 
ATOM     25  C   UNL     1       2.871   3.667  18.003  0.00  0.00    +0.000 A 
ATOM     26  C   UNL     1       2.335   2.393  17.751  0.00  0.00    +0.000 A 
ATOM     27  C   UNL     1       1.273   1.901  18.506  0.00  0.00    +0.000 A 
ATOM     28  C   UNL     1       0.723   2.682  19.513  0.00  0.00    +0.000 A 
ATOM     29  C   UNL     1       1.237   3.958  19.768  0.00  0.00    +0.000 A 
ATOM     30  C   UNL     1       2.325   4.480  19.029  0.00  0.00    +0.000 A 
ENDBRANCH  20  21
BRANCH  19  32
ATOM     31  N   UNL     1       1.980   8.871  17.484  0.00  0.00    +0.000 NA
ATOM     32  C   UNL     1       1.947   8.457  18.566  0.00  0.00    +0.000 C 
ENDBRANCH  19  32
ENDBRANCH   1  19
TORSDOF 6
ENDMDL
MODEL 7
REMARK VINA RESULT:      -7.4      3.643      4.319
REMARK  Name = 
REMARK  6 active torsions:
REMARK  status: ('A' for Active; 'I' for Inactive)
REMARK    1  A    between atoms: C_2  and  C_3
REMARK    2  A    between atoms: C_3  and  C_15
REMARK    3  A    between atoms: C_4  and  C_5
REMARK    4  A    between atoms: N_20  and  C_21
REMARK    5  A    between atoms: C_24  and  C_25
REMARK    6  A    between atoms: C_25  and  O_27
REMARK                            x       y       z     vdW  Elec       q    Type
REMARK                         _______ _______ _______ _____ _____    ______ ____
ROOT
ATOM      1  C   UNL     1       2.882   8.324  17.752  0.00  0.00    +0.000 C 
ATOM      2  C   UNL     1       2.142   9.114  18.545  0.00  0.00    +0.000 C 
ATOM      3  S   UNL     1       1.407   8.680  20.032  0.00  0.00    +0.000 S 
ATOM      4  C   UNL     1       0.774  10.301  20.316  0.00  0.00    +0.000 C 
ATOM      5  S   UNL     1      -0.210  10.617  21.630  0.00  0.00    +0.000 S 
ATOM      6  N   UNL     1       1.163  11.142  19.285  0.00  0.00    +0.000 N 
ATOM      7  C   UNL     1       1.890  10.560  18.248  0.00  0.00    +0.000 C 
ATOM      8  O   UNL     1       2.313  11.108  17.241  0.00  0.00    +0.000 OA
ENDROOT
BRANCH   6   9
ATOM      9  C   UNL     1       0.877  12.540  19.255  0.00  0.00    +0.000 A 
ATOM     10  C   UNL     1      -0.288  13.021  18.649  0.00  0.00    +0.000 A 
ATOM     11  C   UNL     1      -0.570  14.394  18.646  0.00  0.00    +0.000 A 
ATOM     12  C   UNL     1       0.329  15.313  19.207  0.00  0.00    +0.000 A 
ATOM     13  C   UNL     1       1.507  14.839  19.795  0.00  0.00    +0.000 A 
ATOM     14  C   UNL     1       1.773  13.461  19.822  0.00  0.00    +0.000 A 
BRANCH  12  15
ATOM     15  C   UNL     1      -0.055  16.752  19.189  0.00  0.00    +0.000 C 
ATOM     16  O   UNL     1       0.570  17.599  19.807  0.00  0.00    +0.000 OA
BRANCH  15  17
ATOM     17  O   UNL     1      -1.161  17.044  18.476  0.00  0.00    +0.000 OA
ATOM     18  H   UNL     1      -1.492  16.351  17.879  0.00  0.00    +0.000 HD
ENDBRANCH  15  17
ENDBRANCH  12  15
ENDBRANCH   6   9
BRANCH   1  19
ATOM     19  C   UNL     1       3.177   6.902  17.942  0.00  0.00    +0.000 C 
ATOM     20  C   UNL     1       2.181   5.996  18.056  0.00  0.00    +0.000 C 
BRANCH  20  21
ATOM     21  C   UNL     1       2.392   4.538  18.160  0.00  0.00    +0.000 A 
ATOM     22  C   UNL     1       2.660   3.829  16.980  0.00  0.00    +0.000 A 
ATOM     23  C   UNL     1       2.748   2.439  17.000  0.00  0.00    +0.000 A 
ATOM     24  C   UNL     1       2.600   1.750  18.200  0.00  0.00    +0.000 A 
ATOM     25  C   UNL     1       2.393   2.437  19.404  0.00  0.00    +0.000 A 
ATOM     26  C   UNL     1       2.295   1.723  20.609  0.00  0.00    +0.000 A 
ATOM     27  C   UNL     1       2.099   2.383  21.820  0.00  0.00    +0.000 A 
ATOM     28  C   UNL     1       1.986   3.767  21.840  0.00  0.00    +0.000 A 
ATOM     29  C   UNL     1       2.070   4.492  20.646  0.00  0.00    +0.000 A 
ATOM     30  C   UNL     1       2.283   3.851  19.402  0.00  0.00    +0.000 A 
ENDBRANCH  20  21
BRANCH  19  32
ATOM     31  N   UNL     1       5.678   6.205  17.949  0.00  0.00    +0.000 NA
ATOM     32  C   UNL     1       4.560   6.510  17.934  0.00  0.00    +0.000 C 
ENDBRANCH  19  32
ENDBRANCH   1  19
TORSDOF 6
ENDMDL
MODEL 8
REMARK VINA RESULT:      -7.4      1.822      2.167
REMARK  Name = 
REMARK  6 active torsions:
REMARK  status: ('A' for Active; 'I' for Inactive)
REMARK    1  A    between atoms: C_2  and  C_3
REMARK    2  A    between atoms: C_3  and  C_15
REMARK    3  A    between atoms: C_4  and  C_5
REMARK    4  A    between atoms: N_20  and  C_21
REMARK    5  A    between atoms: C_24  and  C_25
REMARK    6  A    between atoms: C_25  and  O_27
REMARK                            x       y       z     vdW  Elec       q    Type
REMARK                         _______ _______ _______ _____ _____    ______ ____
ROOT
ATOM      1  C   UNL     1       1.707   8.279  20.594  0.00  0.00    +0.000 C 
ATOM      2  C   UNL     1       0.919   9.264  20.137  0.00  0.00    +0.000 C 
ATOM      3  S   UNL     1       0.074   9.296  18.644  0.00  0.00    +0.000 S 
ATOM      4  C   UNL     1      -0.678  10.855  18.980  0.00  0.00    +0.000 C 
ATOM      5  S   UNL     1      -1.627  11.612  17.830  0.00  0.00    +0.000 S 
ATOM      6  N   UNL     1      -0.290  11.300  20.233  0.00  0.00    +0.000 N 
ATOM      7  C   UNL     1       0.619  10.501  20.926  0.00  0.00    +0.000 C 
ATOM      8  O   UNL     1       1.104  10.712  22.026  0.00  0.00    +0.000 OA
ENDROOT
BRANCH   6   9
ATOM      9  C   UNL     1      -0.784  12.497  20.835  0.00  0.00    +0.000 A 
ATOM     10  C   UNL     1      -1.950  12.482  21.608  0.00  0.00    +0.000 A 
ATOM     11  C   UNL     1      -2.413  13.658  22.213  0.00  0.00    +0.000 A 
ATOM     12  C   UNL     1      -1.745  14.877  22.019  0.00  0.00    +0.000 A 
ATOM     13  C   UNL     1      -0.590  14.901  21.229  0.00  0.00    +0.000 A 
ATOM     14  C   UNL     1      -0.113  13.716  20.649  0.00  0.00    +0.000 A 
BRANCH  12  15
ATOM     15  C   UNL     1      -2.284  16.077  22.719  0.00  0.00    +0.000 C 
ATOM     16  O   UNL     1      -2.219  17.195  22.234  0.00  0.00    +0.000 OA
BRANCH  15  17
ATOM     17  O   UNL     1      -2.810  15.845  23.938  0.00  0.00    +0.000 OA
ATOM     18  H   UNL     1      -2.188  15.593  24.642  0.00  0.00    +0.000 HD
ENDBRANCH  15  17
ENDBRANCH  12  15
ENDBRANCH   6   9
BRANCH   1  19
ATOM     19  C   UNL     1       2.074   7.042  19.903  0.00  0.00    +0.000 C 
ATOM     20  C   UNL     1       2.580   7.071  18.649  0.00  0.00    +0.000 C 
BRANCH  20  21
ATOM     21  C   UNL     1       3.056   5.880  17.918  0.00  0.00    +0.000 A 
ATOM     22  C   UNL     1       2.158   4.817  17.740  0.00  0.00    +0.000 A 
ATOM     23  C   UNL     1       2.587   3.623  17.166  0.00  0.00    +0.000 A 
ATOM     24  C   UNL     1       3.906   3.491  16.739  0.00  0.00    +0.000 A 
ATOM     25  C   UNL     1       4.808   4.557  16.849  0.00  0.00    +0.000 A 
ATOM     26  C   UNL     1       6.120   4.416  16.366  0.00  0.00    +0.000 A 
ATOM     27  C   UNL     1       7.032   5.464  16.455  0.00  0.00    +0.000 A 
ATOM     28  C   UNL     1       6.649   6.664  17.039  0.00  0.00    +0.000 A 
ATOM     29  C   UNL     1       5.350   6.817  17.534  0.00  0.00    +0.000 A 
ATOM     30  C   UNL     1       4.395   5.776  17.446  0.00  0.00    +0.000 A 
ENDBRANCH  20  21
BRANCH  19  32
ATOM     31  N   UNL     1       1.812   4.812  21.206  0.00  0.00    +0.000 NA
ATOM     32  C   UNL     1       1.937   5.813  20.635  0.00  0.00    +0.000 C 
ENDBRANCH  19  32
ENDBRANCH   1  19
TORSDOF 6
ENDMDL
MODEL 9
REMARK VINA RESULT:      -7.4      3.619     10.638
REMARK  Name = 
REMARK  6 active torsions:
REMARK  status: ('A' for Active; 'I' for Inactive)
REMARK    1  A    between atoms: C_2  and  C_3
REMARK    2  A    between atoms: C_3  and  C_15
REMARK    3  A    between atoms: C_4  and  C_5
REMARK    4  A    between atoms: N_20  and  C_21
REMARK    5  A    between atoms: C_24  and  C_25
REMARK    6  A    between atoms: C_25  and  O_27
REMARK                            x       y       z     vdW  Elec       q    Type
REMARK                         _______ _______ _______ _____ _____    ______ ____
ROOT
ATOM      1  C   UNL     1       0.572  10.469  19.162  0.00  0.00    +0.000 C 
ATOM      2  C   UNL     1       1.154   9.275  19.356  0.00  0.00    +0.000 C 
ATOM      3  S   UNL     1       0.918   8.219  20.686  0.00  0.00    +0.000 S 
ATOM      4  C   UNL     1       1.984   6.978  20.028  0.00  0.00    +0.000 C 
ATOM      5  S   UNL     1       2.337   5.600  20.907  0.00  0.00    +0.000 S 
ATOM      6  N   UNL     1       2.472   7.386  18.797  0.00  0.00    +0.000 N 
ATOM      7  C   UNL     1       2.093   8.656  18.366  0.00  0.00    +0.000 C 
ATOM      8  O   UNL     1       2.420   9.217  17.331  0.00  0.00    +0.000 OA
ENDROOT
BRANCH   6   9
ATOM      9  C   UNL     1       3.303   6.573  17.967  0.00  0.00    +0.000 A 
ATOM     10  C   UNL     1       4.435   7.108  17.344  0.00  0.00    +0.000 A 
ATOM     11  C   UNL     1       5.256   6.295  16.551  0.00  0.00    +0.000 A 
ATOM     12  C   UNL     1       4.935   4.947  16.330  0.00  0.00    +0.000 A 
ATOM     13  C   UNL     1       3.791   4.413  16.934  0.00  0.00    +0.000 A 
ATOM     14  C   UNL     1       2.987   5.222  17.751  0.00  0.00    +0.000 A 
BRANCH  12  15
ATOM     15  C   UNL     1       5.872   4.142  15.498  0.00  0.00    +0.000 C 
ATOM     16  O   UNL     1       6.496   4.628  14.568  0.00  0.00    +0.000 OA
BRANCH  15  17
ATOM     17  O   UNL     1       5.951   2.835  15.820  0.00  0.00    +0.000 OA
ATOM     18  H   UNL     1       6.669   2.576  16.423  0.00  0.00    +0.000 HD
ENDBRANCH  15  17
ENDBRANCH  12  15
ENDBRANCH   6   9
BRANCH   1  19
ATOM     19  C   UNL     1      -0.344  11.166  20.067  0.00  0.00    +0.000 C 
ATOM     20  C   UNL     1       0.026  11.471  21.330  0.00  0.00    +0.000 C 
BRANCH  20  21
ATOM     21  C   UNL     1      -0.802  12.249  22.273  0.00  0.00    +0.000 A 
ATOM     22  C   UNL     1      -1.875  11.594  22.897  0.00  0.00    +0.000 A 
ATOM     23  C   UNL     1      -2.761  12.307  23.701  0.00  0.00    +0.000 A 
ATOM     24  C   UNL     1      -2.567  13.669  23.913  0.00  0.00    +0.000 A 
ATOM     25  C   UNL     1      -1.469  14.335  23.352  0.00  0.00    +0.000 A 
ATOM     26  C   UNL     1      -1.268  15.700  23.619  0.00  0.00    +0.000 A 
ATOM     27  C   UNL     1      -0.179  16.382  23.082  0.00  0.00    +0.000 A 
ATOM     28  C   UNL     1       0.716  15.712  22.259  0.00  0.00    +0.000 A 
ATOM     29  C   UNL     1       0.523  14.356  21.974  0.00  0.00    +0.000 A 
ATOM     30  C   UNL     1      -0.565  13.631  22.516  0.00  0.00    +0.000 A 
ENDBRANCH  20  21
BRANCH  19  32
ATOM     31  N   UNL     1      -2.641  11.913  19.115  0.00  0.00    +0.000 NA
ATOM     32  C   UNL     1      -1.617  11.567  19.533  0.00  0.00    +0.000 C 
ENDBRANCH  19  32
ENDBRANCH   1  19
TORSDOF 6
ENDMDL
