MODEL 1
REMARK VINA RESULT:      -7.9      0.000      0.000
REMARK  Name = 
REMARK  23 active torsions:
REMARK  status: ('A' for Active; 'I' for Inactive)
REMARK    1  A    between atoms: C_1  and  C_2
REMARK    2  A    between atoms: C_2  and  C_3
REMARK    3  A    between atoms: C_3  and  C_4
REMARK    4  A    between atoms: C_4  and  N_5
REMARK    5  A    between atoms: C_6  and  C_8
REMARK    6  A    between atoms: C_8  and  C_9
REMARK    7  A    between atoms: C_8  and  C_10
REMARK    8  A    between atoms: C_10  and  C_11
REMARK    9  A    between atoms: C_11  and  O_12
REMARK   10  A    between atoms: C_11  and  C_13
REMARK   11  A    between atoms: C_13  and  N_14
REMARK   12  A    between atoms: C_13  and  C_15
REMARK   13  A    between atoms: C_15  and  C_16
REMARK   14  A    between atoms: C_16  and  C_17
REMARK   15  A    between atoms: C_16  and  C_29
REMARK   16  A    between atoms: C_17  and  C_18
REMARK   17  A    between atoms: C_21  and  C_22
REMARK   18  A    between atoms: C_22  and  C_23
REMARK   19  A    between atoms: C_22  and  C_24
REMARK   20  A    between atoms: C_22  and  C_25
REMARK   21  A    between atoms: C_26  and  O_27
REMARK   22  A    between atoms: C_29  and  C_30
REMARK   23  A    between atoms: C_29  and  C_31
REMARK                            x       y       z     vdW  Elec       q    Type
REMARK                         _______ _______ _______ _____ _____    ______ ____
ROOT
ATOM      1  C   UNL     1       3.601   3.256  17.843  0.00  0.00    +0.000 C 
ENDROOT
BRANCH   1   2
ATOM      2  N   UNL     1       3.193   1.833  17.969  0.00  0.00    +0.000 NA
ATOM      3  H   UNL     1       3.677   1.240  17.301  0.00  0.00    +0.000 HD
ATOM      4  H   UNL     1       2.193   1.756  17.778  0.00  0.00    +0.000 HD
ENDBRANCH   1   2
BRANCH   1   5
ATOM      5  C   UNL     1       2.266   4.035  17.825  0.00  0.00    +0.000 C 
BRANCH   5   6
ATOM      6  C   UNL     1       1.683   4.869  19.011  0.00  0.00    +0.000 C 
BRANCH   6   7
ATOM      7  C   UNL     1       1.225   4.177  20.339  0.00  0.00    +0.000 C 
ATOM      8  C   UNL     1       0.571   2.815  20.017  0.00  0.00    +0.000 C 
ATOM      9  C   UNL     1       2.265   3.936  21.418  0.00  0.00    +0.000 C 
ENDBRANCH   6   7
BRANCH   6  10
ATOM     10  C   UNL     1       2.753   5.998  19.344  0.00  0.00    +0.000 C 
BRANCH  10  11
ATOM     11  C   UNL     1       2.174   7.392  19.542  0.00  0.00    +0.000 A 
ATOM     12  C   UNL     1       1.561   7.790  20.730  0.00  0.00    +0.000 A 
ATOM     13  C   UNL     1       0.918   9.042  20.831  0.00  0.00    +0.000 A 
ATOM     14  C   UNL     1       0.876   9.961  19.760  0.00  0.00    +0.000 A 
ATOM     15  C   UNL     1       1.500   9.529  18.580  0.00  0.00    +0.000 A 
ATOM     16  C   UNL     1       2.155   8.298  18.478  0.00  0.00    +0.000 A 
BRANCH  14  17
ATOM     17  C   UNL     1       0.433  11.424  20.002  0.00  0.00    +0.000 C 
ATOM     18  C   UNL     1      -0.045  11.423  21.471  0.00  0.00    +0.000 C 
ATOM     19  C   UNL     1       1.518  12.517  19.827  0.00  0.00    +0.000 C 
ATOM     20  C   UNL     1      -0.741  11.923  19.117  0.00  0.00    +0.000 C 
ENDBRANCH  14  17
BRANCH  15  21
ATOM     21  O   UNL     1       1.547  10.289  17.455  0.00  0.00    +0.000 OA
ATOM     22  H   UNL     1       0.788  10.900  17.524  0.00  0.00    +0.000 HD
ENDBRANCH  15  21
ENDBRANCH  10  11
ENDBRANCH   6  10
ENDBRANCH   5   6
ENDBRANCH   1   5
BRANCH   1  23
ATOM     23  C   UNL     1       4.866   3.582  18.730  0.00  0.00    +0.000 C 
BRANCH  23  24
ATOM     24  O   UNL     1       5.059   2.550  19.702  0.00  0.00    +0.000 OA
ATOM     25  H   UNL     1       5.997   2.398  19.850  0.00  0.00    +0.000 HD
ENDBRANCH  23  24
BRANCH  23  26
ATOM     26  C   UNL     1       6.227   4.187  18.260  0.00  0.00    +0.000 C 
BRANCH  26  27
ATOM     27  C   UNL     1       6.262   5.492  17.438  0.00  0.00    +0.000 C 
ATOM     28  C   UNL     1       7.397   6.394  17.903  0.00  0.00    +0.000 C 
BRANCH  27  30
ATOM     29  N   UNL     1       5.551   4.496  15.264  0.00  0.00    +0.000 N 
ATOM     30  C   UNL     1       6.468   5.282  15.921  0.00  0.00    +0.000 C 
ATOM     31  O   UNL     1       7.368   5.849  15.302  0.00  0.00    +0.000 OA
ATOM     32  H   UNL     1       4.850   3.975  15.781  0.00  0.00    +0.000 HD
BRANCH  29  33
ATOM     33  C   UNL     1       5.512   4.489  13.807  0.00  0.00    +0.000 C 
BRANCH  33  34
ATOM     34  C   UNL     1       6.407   3.413  13.189  0.00  0.00    +0.000 C 
BRANCH  34  36
ATOM     35  C   UNL     1       4.413   3.357  11.647  0.00  0.00    +0.000 C 
ATOM     36  C   UNL     1       5.844   2.887  11.865  0.00  0.00    +0.000 C 
ENDBRANCH  34  36
ENDBRANCH  33  34
ENDBRANCH  29  33
ENDBRANCH  27  30
ENDBRANCH  26  27
ENDBRANCH  23  26
ENDBRANCH   1  23
TORSDOF 16
ENDMDL
MODEL 2
REMARK VINA RESULT:      -7.6      1.642      2.313
REMARK  Name = 
REMARK  23 active torsions:
REMARK  status: ('A' for Active; 'I' for Inactive)
REMARK    1  A    between atoms: C_1  and  C_2
REMARK    2  A    between atoms: C_2  and  C_3
REMARK    3  A    between atoms: C_3  and  C_4
REMARK    4  A    between atoms: C_4  and  N_5
REMARK    5  A    between atoms: C_6  and  C_8
REMARK    6  A    between atoms: C_8  and  C_9
REMARK    7  A    between atoms: C_8  and  C_10
REMARK    8  A    between atoms: C_10  and  C_11
REMARK    9  A    between atoms: C_11  and  O_12
REMARK   10  A    between atoms: C_11  and  C_13
REMARK   11  A    between atoms: C_13  and  N_14
REMARK   12  A    between atoms: C_13  and  C_15
REMARK   13  A    between atoms: C_15  and  C_16
REMARK   14  A    between atoms: C_16  and  C_17
REMARK   15  A    between atoms: C_16  and  C_29
REMARK   16  A    between atoms: C_17  and  C_18
REMARK   17  A    between atoms: C_21  and  C_22
REMARK   18  A    between atoms: C_22  and  C_23
REMARK   19  A    between atoms: C_22  and  C_24
REMARK   20  A    between atoms: C_22  and  C_25
REMARK   21  A    between atoms: C_26  and  O_27
REMARK   22  A    between atoms: C_29  and  C_30
REMARK   23  A    between atoms: C_29  and  C_31
REMARK                            x       y       z     vdW  Elec       q    Type
REMARK                         _______ _______ _______ _____ _____    ______ ____
ROOT
ATOM      1  C   UNL     1       4.840   4.223  18.949  0.00  0.00    +0.000 C 
ENDROOT
BRANCH   1   2
ATOM      2  N   UNL     1       5.081   2.912  19.605  0.00  0.00    +0.000 NA
ATOM      3  H   UNL     1       5.461   2.228  18.957  0.00  0.00    +0.000 HD
ATOM      4  H   UNL     1       4.195   2.546  19.953  0.00  0.00    +0.000 HD
ENDBRANCH   1   2
BRANCH   1   5
ATOM      5  C   UNL     1       3.895   4.966  19.920  0.00  0.00    +0.000 C 
BRANCH   5   6
ATOM      6  C   UNL     1       2.457   5.475  19.580  0.00  0.00    +0.000 C 
BRANCH   6   7
ATOM      7  C   UNL     1       1.359   4.497  19.043  0.00  0.00    +0.000 C 
ATOM      8  C   UNL     1       1.634   4.171  17.558  0.00  0.00    +0.000 C 
ATOM      9  C   UNL     1       1.158   3.178  19.765  0.00  0.00    +0.000 C 
ENDBRANCH   6   7
BRANCH   6  10
ATOM     10  C   UNL     1       1.916   6.216  20.879  0.00  0.00    +0.000 C 
BRANCH  10  11
ATOM     11  C   UNL     1       1.462   7.652  20.656  0.00  0.00    +0.000 A 
ATOM     12  C   UNL     1       1.543   8.281  19.414  0.00  0.00    +0.000 A 
ATOM     13  C   UNL     1       1.239   9.652  19.273  0.00  0.00    +0.000 A 
ATOM     14  C   UNL     1       0.819  10.450  20.360  0.00  0.00    +0.000 A 
ATOM     15  C   UNL     1       0.750   9.787  21.594  0.00  0.00    +0.000 A 
ATOM     16  C   UNL     1       1.032   8.425  21.737  0.00  0.00    +0.000 A 
BRANCH  14  17
ATOM     17  C   UNL     1       0.211  11.852  20.112  0.00  0.00    +0.000 C 
ATOM     18  C   UNL     1       1.280  12.818  20.671  0.00  0.00    +0.000 C 
ATOM     19  C   UNL     1      -0.086  12.230  18.638  0.00  0.00    +0.000 C 
ATOM     20  C   UNL     1      -1.125  12.141  20.846  0.00  0.00    +0.000 C 
ENDBRANCH  14  17
BRANCH  15  21
ATOM     21  O   UNL     1       0.369  10.409  22.740  0.00  0.00    +0.000 OA
ATOM     22  H   UNL     1      -0.129  11.199  22.452  0.00  0.00    +0.000 HD
ENDBRANCH  15  21
ENDBRANCH  10  11
ENDBRANCH   6  10
ENDBRANCH   5   6
ENDBRANCH   1   5
BRANCH   1  23
ATOM     23  C   UNL     1       6.155   4.799  18.293  0.00  0.00    +0.000 C 
BRANCH  23  24
ATOM     24  O   UNL     1       7.215   4.808  19.254  0.00  0.00    +0.000 OA
ATOM     25  H   UNL     1       7.514   3.911  19.434  0.00  0.00    +0.000 HD
ENDBRANCH  23  24
BRANCH  23  26
ATOM     26  C   UNL     1       6.693   4.538  16.850  0.00  0.00    +0.000 C 
BRANCH  26  27
ATOM     27  C   UNL     1       5.793   4.790  15.622  0.00  0.00    +0.000 C 
ATOM     28  C   UNL     1       5.325   6.238  15.581  0.00  0.00    +0.000 C 
BRANCH  27  30
ATOM     29  N   UNL     1       6.069   3.410  13.561  0.00  0.00    +0.000 N 
ATOM     30  C   UNL     1       6.481   4.517  14.266  0.00  0.00    +0.000 C 
ATOM     31  O   UNL     1       7.309   5.292  13.789  0.00  0.00    +0.000 OA
ATOM     32  H   UNL     1       5.436   2.735  13.980  0.00  0.00    +0.000 HD
BRANCH  29  33
ATOM     33  C   UNL     1       6.455   3.251  12.165  0.00  0.00    +0.000 C 
BRANCH  33  34
ATOM     34  C   UNL     1       5.362   2.608  11.311  0.00  0.00    +0.000 C 
BRANCH  34  36
ATOM     35  C   UNL     1       3.376   3.677  10.183  0.00  0.00    +0.000 C 
ATOM     36  C   UNL     1       4.002   3.283  11.513  0.00  0.00    +0.000 C 
ENDBRANCH  34  36
ENDBRANCH  33  34
ENDBRANCH  29  33
ENDBRANCH  27  30
ENDBRANCH  26  27
ENDBRANCH  23  26
ENDBRANCH   1  23
TORSDOF 16
ENDMDL
MODEL 3
REMARK VINA RESULT:      -7.6      1.528      1.950
REMARK  Name = 
REMARK  23 active torsions:
REMARK  status: ('A' for Active; 'I' for Inactive)
REMARK    1  A    between atoms: C_1  and  C_2
REMARK    2  A    between atoms: C_2  and  C_3
REMARK    3  A    between atoms: C_3  and  C_4
REMARK    4  A    between atoms: C_4  and  N_5
REMARK    5  A    between atoms: C_6  and  C_8
REMARK    6  A    between atoms: C_8  and  C_9
REMARK    7  A    between atoms: C_8  and  C_10
REMARK    8  A    between atoms: C_10  and  C_11
REMARK    9  A    between atoms: C_11  and  O_12
REMARK   10  A    between atoms: C_11  and  C_13
REMARK   11  A    between atoms: C_13  and  N_14
REMARK   12  A    between atoms: C_13  and  C_15
REMARK   13  A    between atoms: C_15  and  C_16
REMARK   14  A    between atoms: C_16  and  C_17
REMARK   15  A    between atoms: C_16  and  C_29
REMARK   16  A    between atoms: C_17  and  C_18
REMARK   17  A    between atoms: C_21  and  C_22
REMARK   18  A    between atoms: C_22  and  C_23
REMARK   19  A    between atoms: C_22  and  C_24
REMARK   20  A    between atoms: C_22  and  C_25
REMARK   21  A    between atoms: C_26  and  O_27
REMARK   22  A    between atoms: C_29  and  C_30
REMARK   23  A    between atoms: C_29  and  C_31
REMARK                            x       y       z     vdW  Elec       q    Type
REMARK                         _______ _______ _______ _____ _____    ______ ____
ROOT
ATOM      1  C   UNL     1       4.795   5.402  18.445  0.00  0.00    +0.000 C 
ENDROOT
BRANCH   1   2
ATOM      2  N   UNL     1       4.395   6.645  17.736  0.00  0.00    +0.000 NA
ATOM      3  H   UNL     1       4.797   6.695  16.805  0.00  0.00    +0.000 HD
ATOM      4  H   UNL     1       4.737   7.451  18.260  0.00  0.00    +0.000 HD
ENDBRANCH   1   2
BRANCH   1   5
ATOM      5  C   UNL     1       3.830   5.323  19.649  0.00  0.00    +0.000 C 
BRANCH   5   6
ATOM      6  C   UNL     1       2.289   5.578  19.599  0.00  0.00    +0.000 C 
BRANCH   6   7
ATOM      7  C   UNL     1       1.273   4.388  19.562  0.00  0.00    +0.000 C 
ATOM      8  C   UNL     1       1.267   3.752  18.155  0.00  0.00    +0.000 C 
ATOM      9  C   UNL     1       1.450   3.263  20.566  0.00  0.00    +0.000 C 
ENDBRANCH   6   7
BRANCH   6  10
ATOM     10  C   UNL     1       1.944   6.532  20.823  0.00  0.00    +0.000 C 
BRANCH  10  11
ATOM     11  C   UNL     1       1.582   7.962  20.441  0.00  0.00    +0.000 A 
ATOM     12  C   UNL     1       0.937   8.833  21.317  0.00  0.00    +0.000 A 
ATOM     13  C   UNL     1       0.499  10.104  20.886  0.00  0.00    +0.000 A 
ATOM     14  C   UNL     1       0.703  10.568  19.568  0.00  0.00    +0.000 A 
ATOM     15  C   UNL     1       1.353   9.666  18.712  0.00  0.00    +0.000 A 
ATOM     16  C   UNL     1       1.806   8.414  19.138  0.00  0.00    +0.000 A 
BRANCH  14  17
ATOM     17  C   UNL     1       0.483  12.061  19.222  0.00  0.00    +0.000 C 
ATOM     18  C   UNL     1       0.182  12.712  20.591  0.00  0.00    +0.000 C 
ATOM     19  C   UNL     1       1.673  12.805  18.563  0.00  0.00    +0.000 C 
ATOM     20  C   UNL     1      -0.711  12.360  18.277  0.00  0.00    +0.000 C 
ENDBRANCH  14  17
BRANCH  15  21
ATOM     21  O   UNL     1       1.624   9.954  17.413  0.00  0.00    +0.000 OA
ATOM     22  H   UNL     1       0.806   9.740  16.924  0.00  0.00    +0.000 HD
ENDBRANCH  15  21
ENDBRANCH  10  11
ENDBRANCH   6  10
ENDBRANCH   5   6
ENDBRANCH   1   5
BRANCH   1  23
ATOM     23  C   UNL     1       5.133   4.236  17.436  0.00  0.00    +0.000 C 
BRANCH  23  24
ATOM     24  O   UNL     1       4.525   3.018  17.875  0.00  0.00    +0.000 OA
ATOM     25  H   UNL     1       5.073   2.264  17.641  0.00  0.00    +0.000 HD
ENDBRANCH  23  24
BRANCH  23  26
ATOM     26  C   UNL     1       5.193   4.315  15.877  0.00  0.00    +0.000 C 
BRANCH  26  27
ATOM     27  C   UNL     1       6.224   5.226  15.178  0.00  0.00    +0.000 C 
ATOM     28  C   UNL     1       7.438   5.451  16.067  0.00  0.00    +0.000 C 
BRANCH  27  30
ATOM     29  N   UNL     1       6.260   3.460  13.416  0.00  0.00    +0.000 N 
ATOM     30  C   UNL     1       6.761   4.668  13.841  0.00  0.00    +0.000 C 
ATOM     31  O   UNL     1       7.547   5.303  13.140  0.00  0.00    +0.000 OA
ATOM     32  H   UNL     1       5.664   2.904  14.021  0.00  0.00    +0.000 HD
BRANCH  29  33
ATOM     33  C   UNL     1       6.495   3.016  12.048  0.00  0.00    +0.000 C 
BRANCH  33  34
ATOM     34  C   UNL     1       5.233   2.489  11.363  0.00  0.00    +0.000 C 
BRANCH  34  36
ATOM     35  C   UNL     1       3.314   3.630  10.191  0.00  0.00    +0.000 C 
ATOM     36  C   UNL     1       4.053   3.455  11.510  0.00  0.00    +0.000 C 
ENDBRANCH  34  36
ENDBRANCH  33  34
ENDBRANCH  29  33
ENDBRANCH  27  30
ENDBRANCH  26  27
ENDBRANCH  23  26
ENDBRANCH   1  23
TORSDOF 16
ENDMDL
MODEL 4
REMARK VINA RESULT:      -7.5      1.744      2.492
REMARK  Name = 
REMARK  23 active torsions:
REMARK  status: ('A' for Active; 'I' for Inactive)
REMARK    1  A    between atoms: C_1  and  C_2
REMARK    2  A    between atoms: C_2  and  C_3
REMARK    3  A    between atoms: C_3  and  C_4
REMARK    4  A    between atoms: C_4  and  N_5
REMARK    5  A    between atoms: C_6  and  C_8
REMARK    6  A    between atoms: C_8  and  C_9
REMARK    7  A    between atoms: C_8  and  C_10
REMARK    8  A    between atoms: C_10  and  C_11
REMARK    9  A    between atoms: C_11  and  O_12
REMARK   10  A    between atoms: C_11  and  C_13
REMARK   11  A    between atoms: C_13  and  N_14
REMARK   12  A    between atoms: C_13  and  C_15
REMARK   13  A    between atoms: C_15  and  C_16
REMARK   14  A    between atoms: C_16  and  C_17
REMARK   15  A    between atoms: C_16  and  C_29
REMARK   16  A    between atoms: C_17  and  C_18
REMARK   17  A    between atoms: C_21  and  C_22
REMARK   18  A    between atoms: C_22  and  C_23
REMARK   19  A    between atoms: C_22  and  C_24
REMARK   20  A    between atoms: C_22  and  C_25
REMARK   21  A    between atoms: C_26  and  O_27
REMARK   22  A    between atoms: C_29  and  C_30
REMARK   23  A    between atoms: C_29  and  C_31
REMARK                            x       y       z     vdW  Elec       q    Type
REMARK                         _______ _______ _______ _____ _____    ______ ____
ROOT
ATOM      1  C   UNL     1       5.756   4.798  18.757  0.00  0.00    +0.000 C 
ENDROOT
BRANCH   1   2
ATOM      2  N   UNL     1       6.766   5.142  19.790  0.00  0.00    +0.000 NA
ATOM      3  H   UNL     1       6.890   6.146  19.879  0.00  0.00    +0.000 HD
ATOM      4  H   UNL     1       7.666   4.745  19.520  0.00  0.00    +0.000 HD
ENDBRANCH   1   2
BRANCH   1   5
ATOM      5  C   UNL     1       4.583   5.766  19.034  0.00  0.00    +0.000 C 
BRANCH   5   6
ATOM      6  C   UNL     1       3.066   5.423  18.887  0.00  0.00    +0.000 C 
BRANCH   6   7
ATOM      7  C   UNL     1       2.587   3.947  18.675  0.00  0.00    +0.000 C 
ATOM      8  C   UNL     1       1.245   3.726  19.407  0.00  0.00    +0.000 C 
ATOM      9  C   UNL     1       2.415   3.446  17.253  0.00  0.00    +0.000 C 
ENDBRANCH   6   7
BRANCH   6  10
ATOM     10  C   UNL     1       2.333   6.041  20.155  0.00  0.00    +0.000 C 
BRANCH  10  11
ATOM     11  C   UNL     1       1.921   7.500  20.010  0.00  0.00    +0.000 A 
ATOM     12  C   UNL     1       1.286   8.207  21.031  0.00  0.00    +0.000 A 
ATOM     13  C   UNL     1       0.799   9.514  20.815  0.00  0.00    +0.000 A 
ATOM     14  C   UNL     1       0.942  10.181  19.579  0.00  0.00    +0.000 A 
ATOM     15  C   UNL     1       1.583   9.441  18.573  0.00  0.00    +0.000 A 
ATOM     16  C   UNL     1       2.084   8.154  18.786  0.00  0.00    +0.000 A 
BRANCH  14  17
ATOM     17  C   UNL     1       0.671  11.701  19.475  0.00  0.00    +0.000 C 
ATOM     18  C   UNL     1      -0.603  11.786  18.603  0.00  0.00    +0.000 C 
ATOM     19  C   UNL     1       0.420  12.456  20.805  0.00  0.00    +0.000 C 
ATOM     20  C   UNL     1       1.782  12.533  18.780  0.00  0.00    +0.000 C 
ENDBRANCH  14  17
BRANCH  15  21
ATOM     21  O   UNL     1       1.797   9.933  17.326  0.00  0.00    +0.000 OA
ATOM     22  H   UNL     1       2.252  10.787  17.459  0.00  0.00    +0.000 HD
ENDBRANCH  15  21
ENDBRANCH  10  11
ENDBRANCH   6  10
ENDBRANCH   5   6
ENDBRANCH   1   5
BRANCH   1  23
ATOM     23  C   UNL     1       6.427   4.512  17.356  0.00  0.00    +0.000 C 
BRANCH  23  24
ATOM     24  O   UNL     1       7.816   4.218  17.531  0.00  0.00    +0.000 OA
ATOM     25  H   UNL     1       8.328   4.554  16.789  0.00  0.00    +0.000 HD
ENDBRANCH  23  24
BRANCH  23  26
ATOM     26  C   UNL     1       5.821   3.718  16.155  0.00  0.00    +0.000 C 
BRANCH  26  27
ATOM     27  C   UNL     1       5.497   4.434  14.827  0.00  0.00    +0.000 C 
ATOM     28  C   UNL     1       5.296   5.926  15.052  0.00  0.00    +0.000 C 
BRANCH  27  30
ATOM     29  N   UNL     1       6.553   3.191  12.939  0.00  0.00    +0.000 N 
ATOM     30  C   UNL     1       6.596   4.301  13.750  0.00  0.00    +0.000 C 
ATOM     31  O   UNL     1       7.435   5.182  13.564  0.00  0.00    +0.000 OA
ATOM     32  H   UNL     1       5.905   2.433  13.132  0.00  0.00    +0.000 HD
BRANCH  29  33
ATOM     33  C   UNL     1       7.367   3.141  11.731  0.00  0.00    +0.000 C 
BRANCH  33  34
ATOM     34  C   UNL     1       6.969   2.006  10.787  0.00  0.00    +0.000 C 
BRANCH  34  36
ATOM     35  C   UNL     1       6.210  -0.328  11.365  0.00  0.00    +0.000 C 
ATOM     36  C   UNL     1       5.838   1.148  11.364  0.00  0.00    +0.000 C 
ENDBRANCH  34  36
ENDBRANCH  33  34
ENDBRANCH  29  33
ENDBRANCH  27  30
ENDBRANCH  26  27
ENDBRANCH  23  26
ENDBRANCH   1  23
TORSDOF 16
ENDMDL
MODEL 5
REMARK VINA RESULT:      -7.5      1.342      1.642
REMARK  Name = 
REMARK  23 active torsions:
REMARK  status: ('A' for Active; 'I' for Inactive)
REMARK    1  A    between atoms: C_1  and  C_2
REMARK    2  A    between atoms: C_2  and  C_3
REMARK    3  A    between atoms: C_3  and  C_4
REMARK    4  A    between atoms: C_4  and  N_5
REMARK    5  A    between atoms: C_6  and  C_8
REMARK    6  A    between atoms: C_8  and  C_9
REMARK    7  A    between atoms: C_8  and  C_10
REMARK    8  A    between atoms: C_10  and  C_11
REMARK    9  A    between atoms: C_11  and  O_12
REMARK   10  A    between atoms: C_11  and  C_13
REMARK   11  A    between atoms: C_13  and  N_14
REMARK   12  A    between atoms: C_13  and  C_15
REMARK   13  A    between atoms: C_15  and  C_16
REMARK   14  A    between atoms: C_16  and  C_17
REMARK   15  A    between atoms: C_16  and  C_29
REMARK   16  A    between atoms: C_17  and  C_18
REMARK   17  A    between atoms: C_21  and  C_22
REMARK   18  A    between atoms: C_22  and  C_23
REMARK   19  A    between atoms: C_22  and  C_24
REMARK   20  A    between atoms: C_22  and  C_25
REMARK   21  A    between atoms: C_26  and  O_27
REMARK   22  A    between atoms: C_29  and  C_30
REMARK   23  A    between atoms: C_29  and  C_31
REMARK                            x       y       z     vdW  Elec       q    Type
REMARK                         _______ _______ _______ _____ _____    ______ ____
ROOT
ATOM      1  C   UNL     1       3.751   4.207  17.808  0.00  0.00    +0.000 C 
ENDROOT
BRANCH   1   2
ATOM      2  N   UNL     1       3.476   2.751  17.705  0.00  0.00    +0.000 NA
ATOM      3  H   UNL     1       4.193   2.268  17.171  0.00  0.00    +0.000 HD
ATOM      4  H   UNL     1       2.589   2.614  17.220  0.00  0.00    +0.000 HD
ENDBRANCH   1   2
BRANCH   1   5
ATOM      5  C   UNL     1       2.350   4.854  17.887  0.00  0.00    +0.000 C 
BRANCH   5   6
ATOM      6  C   UNL     1       1.623   5.294  19.199  0.00  0.00    +0.000 C 
BRANCH   6   7
ATOM      7  C   UNL     1       1.243   4.250  20.302  0.00  0.00    +0.000 C 
ATOM      8  C   UNL     1       0.710   2.962  19.638  0.00  0.00    +0.000 C 
ATOM      9  C   UNL     1       2.313   3.837  21.296  0.00  0.00    +0.000 C 
ENDBRANCH   6   7
BRANCH   6  10
ATOM     10  C   UNL     1       2.504   6.450  19.843  0.00  0.00    +0.000 C 
BRANCH  10  11
ATOM     11  C   UNL     1       1.860   7.831  19.831  0.00  0.00    +0.000 A 
ATOM     12  C   UNL     1       1.747   8.596  18.671  0.00  0.00    +0.000 A 
ATOM     13  C   UNL     1       1.267   9.922  18.720  0.00  0.00    +0.000 A 
ATOM     14  C   UNL     1       0.858  10.536  19.924  0.00  0.00    +0.000 A 
ATOM     15  C   UNL     1       0.986   9.739  21.072  0.00  0.00    +0.000 A 
ATOM     16  C   UNL     1       1.443   8.418  21.028  0.00  0.00    +0.000 A 
BRANCH  14  17
ATOM     17  C   UNL     1       0.064  11.864  19.895  0.00  0.00    +0.000 C 
ATOM     18  C   UNL     1      -1.398  11.420  20.126  0.00  0.00    +0.000 C 
ATOM     19  C   UNL     1       0.442  12.924  20.961  0.00  0.00    +0.000 C 
ATOM     20  C   UNL     1       0.120  12.648  18.557  0.00  0.00    +0.000 C 
ENDBRANCH  14  17
BRANCH  15  21
ATOM     21  O   UNL     1       0.641  10.177  22.310  0.00  0.00    +0.000 OA
ATOM     22  H   UNL     1      -0.324  10.322  22.275  0.00  0.00    +0.000 HD
ENDBRANCH  15  21
ENDBRANCH  10  11
ENDBRANCH   6  10
ENDBRANCH   5   6
ENDBRANCH   1   5
BRANCH   1  23
ATOM     23  C   UNL     1       4.976   4.504  18.759  0.00  0.00    +0.000 C 
BRANCH  23  24
ATOM     24  O   UNL     1       5.694   3.295  19.022  0.00  0.00    +0.000 OA
ATOM     25  H   UNL     1       5.163   2.529  18.783  0.00  0.00    +0.000 HD
ENDBRANCH  23  24
BRANCH  23  26
ATOM     26  C   UNL     1       5.932   5.739  18.721  0.00  0.00    +0.000 C 
BRANCH  26  27
ATOM     27  C   UNL     1       6.429   6.304  17.374  0.00  0.00    +0.000 C 
ATOM     28  C   UNL     1       7.531   7.332  17.591  0.00  0.00    +0.000 C 
BRANCH  27  30
ATOM     29  N   UNL     1       6.625   5.302  15.097  0.00  0.00    +0.000 N 
ATOM     30  C   UNL     1       7.011   5.241  16.416  0.00  0.00    +0.000 C 
ATOM     31  O   UNL     1       7.844   4.415  16.788  0.00  0.00    +0.000 OA
ATOM     32  H   UNL     1       5.890   5.937  14.801  0.00  0.00    +0.000 HD
BRANCH  29  33
ATOM     33  C   UNL     1       7.343   4.528  14.092  0.00  0.00    +0.000 C 
BRANCH  33  34
ATOM     34  C   UNL     1       6.658   4.540  12.725  0.00  0.00    +0.000 C 
BRANCH  34  36
ATOM     35  C   UNL     1       5.934   2.352  11.702  0.00  0.00    +0.000 C 
ATOM     36  C   UNL     1       5.544   3.492  12.631  0.00  0.00    +0.000 C 
ENDBRANCH  34  36
ENDBRANCH  33  34
ENDBRANCH  29  33
ENDBRANCH  27  30
ENDBRANCH  26  27
ENDBRANCH  23  26
ENDBRANCH   1  23
TORSDOF 16
ENDMDL
MODEL 6
REMARK VINA RESULT:      -7.5      2.383      4.316
REMARK  Name = 
REMARK  23 active torsions:
REMARK  status: ('A' for Active; 'I' for Inactive)
REMARK    1  A    between atoms: C_1  and  C_2
REMARK    2  A    between atoms: C_2  and  C_3
REMARK    3  A    between atoms: C_3  and  C_4
REMARK    4  A    between atoms: C_4  and  N_5
REMARK    5  A    between atoms: C_6  and  C_8
REMARK    6  A    between atoms: C_8  and  C_9
REMARK    7  A    between atoms: C_8  and  C_10
REMARK    8  A    between atoms: C_10  and  C_11
REMARK    9  A    between atoms: C_11  and  O_12
REMARK   10  A    between atoms: C_11  and  C_13
REMARK   11  A    between atoms: C_13  and  N_14
REMARK   12  A    between atoms: C_13  and  C_15
REMARK   13  A    between atoms: C_15  and  C_16
REMARK   14  A    between atoms: C_16  and  C_17
REMARK   15  A    between atoms: C_16  and  C_29
REMARK   16  A    between atoms: C_17  and  C_18
REMARK   17  A    between atoms: C_21  and  C_22
REMARK   18  A    between atoms: C_22  and  C_23
REMARK   19  A    between atoms: C_22  and  C_24
REMARK   20  A    between atoms: C_22  and  C_25
REMARK   21  A    between atoms: C_26  and  O_27
REMARK   22  A    between atoms: C_29  and  C_30
REMARK   23  A    between atoms: C_29  and  C_31
REMARK                            x       y       z     vdW  Elec       q    Type
REMARK                         _______ _______ _______ _____ _____    ______ ____
ROOT
ATOM      1  C   UNL     1       4.069   3.673  17.342  0.00  0.00    +0.000 C 
ENDROOT
BRANCH   1   2
ATOM      2  N   UNL     1       3.941   2.227  17.654  0.00  0.00    +0.000 NA
ATOM      3  H   UNL     1       3.139   1.809  17.191  0.00  0.00    +0.000 HD
ATOM      4  H   UNL     1       3.807   2.114  18.659  0.00  0.00    +0.000 HD
ENDBRANCH   1   2
BRANCH   1   5
ATOM      5  C   UNL     1       2.653   4.242  17.587  0.00  0.00    +0.000 C 
BRANCH   5   6
ATOM      6  C   UNL     1       2.067   4.661  18.973  0.00  0.00    +0.000 C 
BRANCH   6   7
ATOM      7  C   UNL     1       1.926   3.625  20.138  0.00  0.00    +0.000 C 
ATOM      8  C   UNL     1       2.279   4.301  21.481  0.00  0.00    +0.000 C 
ATOM      9  C   UNL     1       0.590   2.928  20.319  0.00  0.00    +0.000 C 
ENDBRANCH   6   7
BRANCH   6  10
ATOM     10  C   UNL     1       2.921   5.907  19.472  0.00  0.00    +0.000 C 
BRANCH  10  11
ATOM     11  C   UNL     1       2.181   7.238  19.459  0.00  0.00    +0.000 A 
ATOM     12  C   UNL     1       2.188   8.089  18.354  0.00  0.00    +0.000 A 
ATOM     13  C   UNL     1       1.604   9.373  18.424  0.00  0.00    +0.000 A 
ATOM     14  C   UNL     1       0.971   9.855  19.590  0.00  0.00    +0.000 A 
ATOM     15  C   UNL     1       0.984   8.975  20.683  0.00  0.00    +0.000 A 
ATOM     16  C   UNL     1       1.544   7.695  20.615  0.00  0.00    +0.000 A 
BRANCH  14  17
ATOM     17  C   UNL     1       0.090  11.126  19.533  0.00  0.00    +0.000 C 
ATOM     18  C   UNL     1      -1.256  10.613  18.974  0.00  0.00    +0.000 C 
ATOM     19  C   UNL     1      -0.169  11.854  20.877  0.00  0.00    +0.000 C 
ATOM     20  C   UNL     1       0.600  12.252  18.594  0.00  0.00    +0.000 C 
ENDBRANCH  14  17
BRANCH  15  21
ATOM     21  O   UNL     1       0.423   9.284  21.880  0.00  0.00    +0.000 OA
ATOM     22  H   UNL     1      -0.505   9.515  21.679  0.00  0.00    +0.000 HD
ENDBRANCH  15  21
ENDBRANCH  10  11
ENDBRANCH   6  10
ENDBRANCH   5   6
ENDBRANCH   1   5
BRANCH   1  23
ATOM     23  C   UNL     1       5.426   4.270  17.885  0.00  0.00    +0.000 C 
BRANCH  23  24
ATOM     24  O   UNL     1       5.859   3.533  19.032  0.00  0.00    +0.000 OA
ATOM     25  H   UNL     1       5.109   3.121  19.471  0.00  0.00    +0.000 HD
ENDBRANCH  23  24
BRANCH  23  26
ATOM     26  C   UNL     1       6.639   4.791  17.049  0.00  0.00    +0.000 C 
BRANCH  26  27
ATOM     27  C   UNL     1       6.813   6.300  16.779  0.00  0.00    +0.000 C 
ATOM     28  C   UNL     1       5.468   7.012  16.801  0.00  0.00    +0.000 C 
BRANCH  27  30
ATOM     29  N   UNL     1       8.019   8.344  17.548  0.00  0.00    +0.000 N 
ATOM     30  C   UNL     1       7.707   7.030  17.805  0.00  0.00    +0.000 C 
ATOM     31  O   UNL     1       8.069   6.493  18.851  0.00  0.00    +0.000 OA
ATOM     32  H   UNL     1       7.779   8.769  16.657  0.00  0.00    +0.000 HD
BRANCH  29  33
ATOM     33  C   UNL     1       8.605   9.171  18.595  0.00  0.00    +0.000 C 
BRANCH  33  34
ATOM     34  C   UNL     1       8.944  10.585  18.122  0.00  0.00    +0.000 C 
BRANCH  34  36
ATOM     35  C   UNL     1       9.693  11.350  20.405  0.00  0.00    +0.000 C 
ATOM     36  C   UNL     1      10.080  11.209  18.940  0.00  0.00    +0.000 C 
ENDBRANCH  34  36
ENDBRANCH  33  34
ENDBRANCH  29  33
ENDBRANCH  27  30
ENDBRANCH  26  27
ENDBRANCH  23  26
ENDBRANCH   1  23
TORSDOF 16
ENDMDL
MODEL 7
REMARK VINA RESULT:      -7.4      1.820      3.666
REMARK  Name = 
REMARK  23 active torsions:
REMARK  status: ('A' for Active; 'I' for Inactive)
REMARK    1  A    between atoms: C_1  and  C_2
REMARK    2  A    between atoms: C_2  and  C_3
REMARK    3  A    between atoms: C_3  and  C_4
REMARK    4  A    between atoms: C_4  and  N_5
REMARK    5  A    between atoms: C_6  and  C_8
REMARK    6  A    between atoms: C_8  and  C_9
REMARK    7  A    between atoms: C_8  and  C_10
REMARK    8  A    between atoms: C_10  and  C_11
REMARK    9  A    between atoms: C_11  and  O_12
REMARK   10  A    between atoms: C_11  and  C_13
REMARK   11  A    between atoms: C_13  and  N_14
REMARK   12  A    between atoms: C_13  and  C_15
REMARK   13  A    between atoms: C_15  and  C_16
REMARK   14  A    between atoms: C_16  and  C_17
REMARK   15  A    between atoms: C_16  and  C_29
REMARK   16  A    between atoms: C_17  and  C_18
REMARK   17  A    between atoms: C_21  and  C_22
REMARK   18  A    between atoms: C_22  and  C_23
REMARK   19  A    between atoms: C_22  and  C_24
REMARK   20  A    between atoms: C_22  and  C_25
REMARK   21  A    between atoms: C_26  and  O_27
REMARK   22  A    between atoms: C_29  and  C_30
REMARK   23  A    between atoms: C_29  and  C_31
REMARK                            x       y       z     vdW  Elec       q    Type
REMARK                         _______ _______ _______ _____ _____    ______ ____
ROOT
ATOM      1  C   UNL     1       3.987   5.428  18.233  0.00  0.00    +0.000 C 
ENDROOT
BRANCH   1   2
ATOM      2  N   UNL     1       2.888   6.051  17.452  0.00  0.00    +0.000 NA
ATOM      3  H   UNL     1       2.054   5.471  17.443  0.00  0.00    +0.000 HD
ATOM      4  H   UNL     1       3.191   6.166  16.485  0.00  0.00    +0.000 HD
ENDBRANCH   1   2
BRANCH   1   5
ATOM      5  C   UNL     1       3.503   5.503  19.699  0.00  0.00    +0.000 C 
BRANCH   5   6
ATOM      6  C   UNL     1       2.012   5.554  20.164  0.00  0.00    +0.000 C 
BRANCH   6   7
ATOM      7  C   UNL     1       1.286   4.273  20.693  0.00  0.00    +0.000 C 
ATOM      8  C   UNL     1       0.861   3.386  19.502  0.00  0.00    +0.000 C 
ATOM      9  C   UNL     1       2.025   3.384  21.677  0.00  0.00    +0.000 C 
ENDBRANCH   6   7
BRANCH   6  10
ATOM     10  C   UNL     1       1.913   6.708  21.254  0.00  0.00    +0.000 C 
BRANCH  10  11
ATOM     11  C   UNL     1       1.276   8.001  20.763  0.00  0.00    +0.000 A 
ATOM     12  C   UNL     1       0.259   8.650  21.462  0.00  0.00    +0.000 A 
ATOM     13  C   UNL     1      -0.400   9.771  20.913  0.00  0.00    +0.000 A 
ATOM     14  C   UNL     1      -0.059  10.306  19.651  0.00  0.00    +0.000 A 
ATOM     15  C   UNL     1       0.966   9.629  18.974  0.00  0.00    +0.000 A 
ATOM     16  C   UNL     1       1.635   8.530  19.521  0.00  0.00    +0.000 A 
BRANCH  14  17
ATOM     17  C   UNL     1      -0.587  11.697  19.224  0.00  0.00    +0.000 C 
ATOM     18  C   UNL     1      -1.482  11.387  18.003  0.00  0.00    +0.000 C 
ATOM     19  C   UNL     1      -1.421  12.477  20.272  0.00  0.00    +0.000 C 
ATOM     20  C   UNL     1       0.495  12.716  18.777  0.00  0.00    +0.000 C 
ENDBRANCH  14  17
BRANCH  15  21
ATOM     21  O   UNL     1       1.412  10.011  17.749  0.00  0.00    +0.000 OA
ATOM     22  H   UNL     1       1.856   9.225  17.378  0.00  0.00    +0.000 HD
ENDBRANCH  15  21
ENDBRANCH  10  11
ENDBRANCH   6  10
ENDBRANCH   5   6
ENDBRANCH   1   5
BRANCH   1  23
ATOM     23  C   UNL     1       4.575   4.157  17.503  0.00  0.00    +0.000 C 
BRANCH  23  24
ATOM     24  O   UNL     1       3.884   2.982  17.936  0.00  0.00    +0.000 OA
ATOM     25  H   UNL     1       3.673   3.042  18.873  0.00  0.00    +0.000 HD
ENDBRANCH  23  24
BRANCH  23  26
ATOM     26  C   UNL     1       5.023   4.039  16.011  0.00  0.00    +0.000 C 
BRANCH  26  27
ATOM     27  C   UNL     1       6.516   4.142  15.632  0.00  0.00    +0.000 C 
ATOM     28  C   UNL     1       6.689   4.885  14.314  0.00  0.00    +0.000 C 
BRANCH  27  30
ATOM     29  N   UNL     1       7.253   6.256  16.732  0.00  0.00    +0.000 N 
ATOM     30  C   UNL     1       7.384   4.889  16.668  0.00  0.00    +0.000 C 
ATOM     31  O   UNL     1       8.110   4.290  17.462  0.00  0.00    +0.000 OA
ATOM     32  H   UNL     1       6.708   6.758  16.037  0.00  0.00    +0.000 HD
BRANCH  29  33
ATOM     33  C   UNL     1       7.812   6.988  17.862  0.00  0.00    +0.000 C 
BRANCH  33  34
ATOM     34  C   UNL     1       7.914   8.493  17.608  0.00  0.00    +0.000 C 
BRANCH  34  36
ATOM     35  C   UNL     1       9.092  10.621  18.274  0.00  0.00    +0.000 C 
ATOM     36  C   UNL     1       8.723   9.206  18.696  0.00  0.00    +0.000 C 
ENDBRANCH  34  36
ENDBRANCH  33  34
ENDBRANCH  29  33
ENDBRANCH  27  30
ENDBRANCH  26  27
ENDBRANCH  23  26
ENDBRANCH   1  23
TORSDOF 16
ENDMDL
MODEL 8
REMARK VINA RESULT:      -7.2      1.270      1.822
REMARK  Name = 
REMARK  23 active torsions:
REMARK  status: ('A' for Active; 'I' for Inactive)
REMARK    1  A    between atoms: C_1  and  C_2
REMARK    2  A    between atoms: C_2  and  C_3
REMARK    3  A    between atoms: C_3  and  C_4
REMARK    4  A    between atoms: C_4  and  N_5
REMARK    5  A    between atoms: C_6  and  C_8
REMARK    6  A    between atoms: C_8  and  C_9
REMARK    7  A    between atoms: C_8  and  C_10
REMARK    8  A    between atoms: C_10  and  C_11
REMARK    9  A    between atoms: C_11  and  O_12
REMARK   10  A    between atoms: C_11  and  C_13
REMARK   11  A    between atoms: C_13  and  N_14
REMARK   12  A    between atoms: C_13  and  C_15
REMARK   13  A    between atoms: C_15  and  C_16
REMARK   14  A    between atoms: C_16  and  C_17
REMARK   15  A    between atoms: C_16  and  C_29
REMARK   16  A    between atoms: C_17  and  C_18
REMARK   17  A    between atoms: C_21  and  C_22
REMARK   18  A    between atoms: C_22  and  C_23
REMARK   19  A    between atoms: C_22  and  C_24
REMARK   20  A    between atoms: C_22  and  C_25
REMARK   21  A    between atoms: C_26  and  O_27
REMARK   22  A    between atoms: C_29  and  C_30
REMARK   23  A    between atoms: C_29  and  C_31
REMARK                            x       y       z     vdW  Elec       q    Type
REMARK                         _______ _______ _______ _____ _____    ______ ____
ROOT
ATOM      1  C   UNL     1       2.819   3.920  17.494  0.00  0.00    +0.000 C 
ENDROOT
BRANCH   1   2
ATOM      2  N   UNL     1       2.461   2.640  16.830  0.00  0.00    +0.000 NA
ATOM      3  H   UNL     1       3.049   2.454  16.023  0.00  0.00    +0.000 HD
ATOM      4  H   UNL     1       1.497   2.695  16.500  0.00  0.00    +0.000 HD
ENDBRANCH   1   2
BRANCH   1   5
ATOM      5  C   UNL     1       1.494   4.403  18.127  0.00  0.00    +0.000 C 
BRANCH   5   6
ATOM      6  C   UNL     1       1.274   4.726  19.640  0.00  0.00    +0.000 C 
BRANCH   6   7
ATOM      7  C   UNL     1       1.286   3.592  20.719  0.00  0.00    +0.000 C 
ATOM      8  C   UNL     1       1.240   2.213  20.026  0.00  0.00    +0.000 C 
ATOM      9  C   UNL     1       2.432   3.560  21.713  0.00  0.00    +0.000 C 
ENDBRANCH   6   7
BRANCH   6  10
ATOM     10  C   UNL     1       2.340   5.839  20.030  0.00  0.00    +0.000 C 
BRANCH  10  11
ATOM     11  C   UNL     1       1.826   7.272  19.960  0.00  0.00    +0.000 A 
ATOM     12  C   UNL     1       2.016   8.084  18.843  0.00  0.00    +0.000 A 
ATOM     13  C   UNL     1       1.645   9.446  18.865  0.00  0.00    +0.000 A 
ATOM     14  C   UNL     1       1.049  10.051  19.993  0.00  0.00    +0.000 A 
ATOM     15  C   UNL     1       0.874   9.206  21.100  0.00  0.00    +0.000 A 
ATOM     16  C   UNL     1       1.223   7.852  21.079  0.00  0.00    +0.000 A 
BRANCH  14  17
ATOM     17  C   UNL     1       0.388  11.445  19.875  0.00  0.00    +0.000 C 
ATOM     18  C   UNL     1       1.008  12.036  18.589  0.00  0.00    +0.000 C 
ATOM     19  C   UNL     1      -1.157  11.475  19.747  0.00  0.00    +0.000 C 
ATOM     20  C   UNL     1       0.682  12.426  21.042  0.00  0.00    +0.000 C 
ENDBRANCH  14  17
BRANCH  15  21
ATOM     21  O   UNL     1       0.320   9.630  22.265  0.00  0.00    +0.000 OA
ATOM     22  H   UNL     1       0.128  10.578  22.131  0.00  0.00    +0.000 HD
ENDBRANCH  15  21
ENDBRANCH  10  11
ENDBRANCH   6  10
ENDBRANCH   5   6
ENDBRANCH   1   5
BRANCH   1  23
ATOM     23  C   UNL     1       4.224   3.835  18.208  0.00  0.00    +0.000 C 
BRANCH  23  24
ATOM     24  O   UNL     1       4.494   2.484  18.595  0.00  0.00    +0.000 OA
ATOM     25  H   UNL     1       4.751   2.444  19.522  0.00  0.00    +0.000 HD
ENDBRANCH  23  24
BRANCH  23  26
ATOM     26  C   UNL     1       5.535   4.591  17.821  0.00  0.00    +0.000 C 
BRANCH  26  27
ATOM     27  C   UNL     1       5.580   5.490  16.567  0.00  0.00    +0.000 C 
ATOM     28  C   UNL     1       6.173   6.852  16.899  0.00  0.00    +0.000 C 
BRANCH  27  30
ATOM     29  N   UNL     1       5.800   4.062  14.533  0.00  0.00    +0.000 N 
ATOM     30  C   UNL     1       6.426   4.919  15.408  0.00  0.00    +0.000 C 
ATOM     31  O   UNL     1       7.591   5.268  15.219  0.00  0.00    +0.000 OA
ATOM     32  H   UNL     1       4.862   3.721  14.723  0.00  0.00    +0.000 HD
BRANCH  29  33
ATOM     33  C   UNL     1       6.439   3.718  13.269  0.00  0.00    +0.000 C 
BRANCH  33  34
ATOM     34  C   UNL     1       5.437   3.425  12.152  0.00  0.00    +0.000 C 
BRANCH  34  36
ATOM     35  C   UNL     1       7.118   1.881  11.079  0.00  0.00    +0.000 C 
ATOM     36  C   UNL     1       5.669   2.050  11.516  0.00  0.00    +0.000 C 
ENDBRANCH  34  36
ENDBRANCH  33  34
ENDBRANCH  29  33
ENDBRANCH  27  30
ENDBRANCH  26  27
ENDBRANCH  23  26
ENDBRANCH   1  23
TORSDOF 16
ENDMDL
MODEL 9
REMARK VINA RESULT:      -7.2      0.902      1.330
REMARK  Name = 
REMARK  23 active torsions:
REMARK  status: ('A' for Active; 'I' for Inactive)
REMARK    1  A    between atoms: C_1  and  C_2
REMARK    2  A    between atoms: C_2  and  C_3
REMARK    3  A    between atoms: C_3  and  C_4
REMARK    4  A    between atoms: C_4  and  N_5
REMARK    5  A    between atoms: C_6  and  C_8
REMARK    6  A    between atoms: C_8  and  C_9
REMARK    7  A    between atoms: C_8  and  C_10
REMARK    8  A    between atoms: C_10  and  C_11
REMARK    9  A    between atoms: C_11  and  O_12
REMARK   10  A    between atoms: C_11  and  C_13
REMARK   11  A    between atoms: C_13  and  N_14
REMARK   12  A    between atoms: C_13  and  C_15
REMARK   13  A    between atoms: C_15  and  C_16
REMARK   14  A    between atoms: C_16  and  C_17
REMARK   15  A    between atoms: C_16  and  C_29
REMARK   16  A    between atoms: C_17  and  C_18
REMARK   17  A    between atoms: C_21  and  C_22
REMARK   18  A    between atoms: C_22  and  C_23
REMARK   19  A    between atoms: C_22  and  C_24
REMARK   20  A    between atoms: C_22  and  C_25
REMARK   21  A    between atoms: C_26  and  O_27
REMARK   22  A    between atoms: C_29  and  C_30
REMARK   23  A    between atoms: C_29  and  C_31
REMARK                            x       y       z     vdW  Elec       q    Type
REMARK                         _______ _______ _______ _____ _____    ______ ____
ROOT
ATOM      1  C   UNL     1       4.032   4.050  17.724  0.00  0.00    +0.000 C 
ENDROOT
BRANCH   1   2
ATOM      2  N   UNL     1       4.065   2.591  18.003  0.00  0.00    +0.000 NA
ATOM      3  H   UNL     1       4.005   2.394  18.998  0.00  0.00    +0.000 HD
ATOM      4  H   UNL     1       4.950   2.209  17.668  0.00  0.00    +0.000 HD
ENDBRANCH   1   2
BRANCH   1   5
ATOM      5  C   UNL     1       2.528   4.405  17.737  0.00  0.00    +0.000 C 
BRANCH   5   6
ATOM      6  C   UNL     1       1.735   4.966  18.960  0.00  0.00    +0.000 C 
BRANCH   6   7
ATOM      7  C   UNL     1       1.167   4.011  20.063  0.00  0.00    +0.000 C 
ATOM      8  C   UNL     1       0.780   2.657  19.431  0.00  0.00    +0.000 C 
ATOM      9  C   UNL     1       2.037   3.714  21.271  0.00  0.00    +0.000 C 
ENDBRANCH   6   7
BRANCH   6  10
ATOM     10  C   UNL     1       2.661   6.067  19.638  0.00  0.00    +0.000 C 
BRANCH  10  11
ATOM     11  C   UNL     1       2.054   7.462  19.706  0.00  0.00    +0.000 A 
ATOM     12  C   UNL     1       1.331   7.914  20.809  0.00  0.00    +0.000 A 
ATOM     13  C   UNL     1       0.670   9.161  20.784  0.00  0.00    +0.000 A 
ATOM     14  C   UNL     1       0.719  10.021  19.665  0.00  0.00    +0.000 A 
ATOM     15  C   UNL     1       1.453   9.536  18.572  0.00  0.00    +0.000 A 
ATOM     16  C   UNL     1       2.125   8.310  18.598  0.00  0.00    +0.000 A 
BRANCH  14  17
ATOM     17  C   UNL     1       0.243  11.489  19.786  0.00  0.00    +0.000 C 
ATOM     18  C   UNL     1       1.558  12.300  19.781  0.00  0.00    +0.000 C 
ATOM     19  C   UNL     1      -0.678  12.017  18.656  0.00  0.00    +0.000 C 
ATOM     20  C   UNL     1      -0.529  11.837  21.087  0.00  0.00    +0.000 C 
ENDBRANCH  14  17
BRANCH  15  21
ATOM     21  O   UNL     1       1.597  10.236  17.417  0.00  0.00    +0.000 OA
ATOM     22  H   UNL     1       2.443   9.934  17.035  0.00  0.00    +0.000 HD
ENDBRANCH  15  21
ENDBRANCH  10  11
ENDBRANCH   6  10
ENDBRANCH   5   6
ENDBRANCH   1   5
BRANCH   1  23
ATOM     23  C   UNL     1       5.183   4.817  18.485  0.00  0.00    +0.000 C 
BRANCH  23  24
ATOM     24  O   UNL     1       5.894   3.911  19.334  0.00  0.00    +0.000 OA
ATOM     25  H   UNL     1       5.357   3.669  20.095  0.00  0.00    +0.000 HD
ENDBRANCH  23  24
BRANCH  23  26
ATOM     26  C   UNL     1       6.124   5.926  17.918  0.00  0.00    +0.000 C 
BRANCH  26  27
ATOM     27  C   UNL     1       6.898   5.699  16.602  0.00  0.00    +0.000 C 
ATOM     28  C   UNL     1       7.644   4.373  16.635  0.00  0.00    +0.000 C 
BRANCH  27  30
ATOM     29  N   UNL     1       6.123   4.569  14.516  0.00  0.00    +0.000 N 
ATOM     30  C   UNL     1       6.007   5.664  15.340  0.00  0.00    +0.000 C 
ATOM     31  O   UNL     1       5.169   6.536  15.110  0.00  0.00    +0.000 OA
ATOM     32  H   UNL     1       6.857   3.883  14.666  0.00  0.00    +0.000 HD
BRANCH  29  33
ATOM     33  C   UNL     1       5.125   4.329  13.481  0.00  0.00    +0.000 C 
BRANCH  33  34
ATOM     34  C   UNL     1       5.523   3.213  12.514  0.00  0.00    +0.000 C 
BRANCH  34  36
ATOM     35  C   UNL     1       7.369   2.210  11.119  0.00  0.00    +0.000 C 
ATOM     36  C   UNL     1       6.961   3.374  12.011  0.00  0.00    +0.000 C 
ENDBRANCH  34  36
ENDBRANCH  33  34
ENDBRANCH  29  33
ENDBRANCH  27  30
ENDBRANCH  26  27
ENDBRANCH  23  26
ENDBRANCH   1  23
TORSDOF 16
ENDMDL
