MODEL 1
REMARK VINA RESULT:      -6.6      0.000      0.000
REMARK  Name = 
REMARK  7 active torsions:
REMARK  status: ('A' for Active; 'I' for Inactive)
REMARK    1  A    between atoms: C_1  and  O_2
REMARK    2  A    between atoms: O_2  and  C_3
REMARK    3  A    between atoms: C_3  and  C_5
REMARK    4  A    between atoms: C_5  and  C_14
REMARK    5  A    between atoms: C_6  and  C_7
REMARK    6  A    between atoms: C_14  and  S_15
REMARK    7  A    between atoms: S_15  and  C_16
REMARK                            x       y       z     vdW  Elec       q    Type
REMARK                         _______ _______ _______ _____ _____    ______ ____
ROOT
ATOM      1  C   UNL     1       6.122   4.576  15.762  0.00  0.00    +0.000 C 
ATOM      2  C   UNL     1       4.789   4.427  15.926  0.00  0.00    +0.000 C 
ENDROOT
BRANCH   2   3
ATOM      3  C   UNL     1       4.103   4.313  17.216  0.00  0.00    +0.000 A 
ATOM      4  C   UNL     1       3.609   5.457  17.852  0.00  0.00    +0.000 A 
ATOM      5  C   UNL     1       3.012   5.362  19.112  0.00  0.00    +0.000 A 
ATOM      6  C   UNL     1       2.890   4.119  19.729  0.00  0.00    +0.000 A 
ATOM      7 CL   UNL     1       2.200   4.007  21.301  0.00  0.00    +0.000 Cl
ATOM      8  C   UNL     1       3.333   2.967  19.082  0.00  0.00    +0.000 A 
ATOM      9  C   UNL     1       3.941   3.063  17.826  0.00  0.00    +0.000 A 
ENDBRANCH   2   3
BRANCH   1  10
ATOM     10  C   UNL     1       6.685   4.628  14.381  0.00  0.00    +0.000 C 
ATOM     11  O   UNL     1       7.652   5.314  14.082  0.00  0.00    +0.000 OA
BRANCH  10  13
ATOM     12  C   UNL     1       6.620   3.604  12.283  0.00  0.00    +0.000 C 
ATOM     13  O   UNL     1       5.956   3.878  13.518  0.00  0.00    +0.000 OA
ENDBRANCH  10  13
ENDBRANCH   1  10
BRANCH   1  14
ATOM     14  C   UNL     1       7.154   4.611  16.861  0.00  0.00    +0.000 C 
BRANCH  14  15
ATOM     15  S   UNL     1       7.323   6.238  17.655  0.00  0.00    +0.000 S 
BRANCH  15  16
ATOM     16  C   UNL     1       7.593   5.737  19.238  0.00  0.00    +0.000 C 
ATOM     17  N   UNL     1       7.789   5.387  20.328  0.00  0.00    +0.000 NA
ENDBRANCH  15  16
ENDBRANCH  14  15
ENDBRANCH   1  14
TORSDOF 6
ENDMDL
MODEL 2
REMARK VINA RESULT:      -6.5      0.370      1.227
REMARK  Name = 
REMARK  7 active torsions:
REMARK  status: ('A' for Active; 'I' for Inactive)
REMARK    1  A    between atoms: C_1  and  O_2
REMARK    2  A    between atoms: O_2  and  C_3
REMARK    3  A    between atoms: C_3  and  C_5
REMARK    4  A    between atoms: C_5  and  C_14
REMARK    5  A    between atoms: C_6  and  C_7
REMARK    6  A    between atoms: C_14  and  S_15
REMARK    7  A    between atoms: S_15  and  C_16
REMARK                            x       y       z     vdW  Elec       q    Type
REMARK                         _______ _______ _______ _____ _____    ______ ____
ROOT
ATOM      1  C   UNL     1       5.963   4.516  15.963  0.00  0.00    +0.000 C 
ATOM      2  C   UNL     1       4.632   4.330  16.103  0.00  0.00    +0.000 C 
ENDROOT
BRANCH   2   3
ATOM      3  C   UNL     1       3.934   4.135  17.377  0.00  0.00    +0.000 A 
ATOM      4  C   UNL     1       3.721   2.843  17.870  0.00  0.00    +0.000 A 
ATOM      5  C   UNL     1       3.000   2.648  19.051  0.00  0.00    +0.000 A 
ATOM      6  C   UNL     1       2.508   3.747  19.752  0.00  0.00    +0.000 A 
ATOM      7 CL   UNL     1       1.578   3.506  21.179  0.00  0.00    +0.000 Cl
ATOM      8  C   UNL     1       2.758   5.040  19.297  0.00  0.00    +0.000 A 
ATOM      9  C   UNL     1       3.470   5.235  18.109  0.00  0.00    +0.000 A 
ENDBRANCH   2   3
BRANCH   1  10
ATOM     10  C   UNL     1       6.541   4.650  14.594  0.00  0.00    +0.000 C 
ATOM     11  O   UNL     1       7.565   5.275  14.362  0.00  0.00    +0.000 OA
BRANCH  10  13
ATOM     12  C   UNL     1       6.475   3.561  12.529  0.00  0.00    +0.000 C 
ATOM     13  O   UNL     1       5.757   4.050  13.663  0.00  0.00    +0.000 OA
ENDBRANCH  10  13
ENDBRANCH   1  10
BRANCH   1  14
ATOM     14  C   UNL     1       6.981   4.517  17.076  0.00  0.00    +0.000 C 
BRANCH  14  15
ATOM     15  S   UNL     1       7.254   6.156  17.816  0.00  0.00    +0.000 S 
BRANCH  15  16
ATOM     16  C   UNL     1       7.664   5.680  19.377  0.00  0.00    +0.000 C 
ATOM     17  N   UNL     1       7.958   5.355  20.452  0.00  0.00    +0.000 NA
ENDBRANCH  15  16
ENDBRANCH  14  15
ENDBRANCH   1  14
TORSDOF 6
ENDMDL
MODEL 3
REMARK VINA RESULT:      -6.4      0.577      1.003
REMARK  Name = 
REMARK  7 active torsions:
REMARK  status: ('A' for Active; 'I' for Inactive)
REMARK    1  A    between atoms: C_1  and  O_2
REMARK    2  A    between atoms: O_2  and  C_3
REMARK    3  A    between atoms: C_3  and  C_5
REMARK    4  A    between atoms: C_5  and  C_14
REMARK    5  A    between atoms: C_6  and  C_7
REMARK    6  A    between atoms: C_14  and  S_15
REMARK    7  A    between atoms: S_15  and  C_16
REMARK                            x       y       z     vdW  Elec       q    Type
REMARK                         _______ _______ _______ _____ _____    ______ ____
ROOT
ATOM      1  C   UNL     1       6.122   4.508  15.713  0.00  0.00    +0.000 C 
ATOM      2  C   UNL     1       4.790   4.376  15.888  0.00  0.00    +0.000 C 
ENDROOT
BRANCH   2   3
ATOM      3  C   UNL     1       4.108   4.320  17.185  0.00  0.00    +0.000 A 
ATOM      4  C   UNL     1       3.598   5.489  17.761  0.00  0.00    +0.000 A 
ATOM      5  C   UNL     1       3.005   5.454  19.025  0.00  0.00    +0.000 A 
ATOM      6  C   UNL     1       2.904   4.243  19.709  0.00  0.00    +0.000 A 
ATOM      7 CL   UNL     1       2.219   4.206  21.286  0.00  0.00    +0.000 Cl
ATOM      8  C   UNL     1       3.364   3.065  19.124  0.00  0.00    +0.000 A 
ATOM      9  C   UNL     1       3.967   3.103  17.862  0.00  0.00    +0.000 A 
ENDBRANCH   2   3
BRANCH   1  10
ATOM     10  C   UNL     1       6.680   4.498  14.329  0.00  0.00    +0.000 C 
ATOM     11  O   UNL     1       6.298   3.726  13.463  0.00  0.00    +0.000 OA
BRANCH  10  13
ATOM     12  C   UNL     1       8.154   5.545  12.850  0.00  0.00    +0.000 C 
ATOM     13  O   UNL     1       7.684   5.400  14.191  0.00  0.00    +0.000 OA
ENDBRANCH  10  13
ENDBRANCH   1  10
BRANCH   1  14
ATOM     14  C   UNL     1       7.160   4.582  16.806  0.00  0.00    +0.000 C 
BRANCH  14  15
ATOM     15  S   UNL     1       7.270   6.214  17.601  0.00  0.00    +0.000 S 
BRANCH  15  16
ATOM     16  C   UNL     1       7.525   5.721  19.189  0.00  0.00    +0.000 C 
ATOM     17  N   UNL     1       7.713   5.383  20.284  0.00  0.00    +0.000 NA
ENDBRANCH  15  16
ENDBRANCH  14  15
ENDBRANCH   1  14
TORSDOF 6
ENDMDL
MODEL 4
REMARK VINA RESULT:      -6.4      1.278      1.725
REMARK  Name = 
REMARK  7 active torsions:
REMARK  status: ('A' for Active; 'I' for Inactive)
REMARK    1  A    between atoms: C_1  and  O_2
REMARK    2  A    between atoms: O_2  and  C_3
REMARK    3  A    between atoms: C_3  and  C_5
REMARK    4  A    between atoms: C_5  and  C_14
REMARK    5  A    between atoms: C_6  and  C_7
REMARK    6  A    between atoms: C_14  and  S_15
REMARK    7  A    between atoms: S_15  and  C_16
REMARK                            x       y       z     vdW  Elec       q    Type
REMARK                         _______ _______ _______ _____ _____    ______ ____
ROOT
ATOM      1  C   UNL     1       6.083   4.422  16.123  0.00  0.00    +0.000 C 
ATOM      2  C   UNL     1       4.738   4.299  16.113  0.00  0.00    +0.000 C 
ENDROOT
BRANCH   2   3
ATOM      3  C   UNL     1       3.897   4.113  17.299  0.00  0.00    +0.000 A 
ATOM      4  C   UNL     1       3.881   2.880  17.961  0.00  0.00    +0.000 A 
ATOM      5  C   UNL     1       3.033   2.676  19.053  0.00  0.00    +0.000 A 
ATOM      6  C   UNL     1       2.213   3.711  19.496  0.00  0.00    +0.000 A 
ATOM      7 CL   UNL     1       1.133   3.446  20.808  0.00  0.00    +0.000 Cl
ATOM      8  C   UNL     1       2.257   4.958  18.875  0.00  0.00    +0.000 A 
ATOM      9  C   UNL     1       3.098   5.159  17.776  0.00  0.00    +0.000 A 
ENDBRANCH   2   3
BRANCH   1  10
ATOM     10  C   UNL     1       6.813   4.556  14.827  0.00  0.00    +0.000 C 
ATOM     11  O   UNL     1       7.670   5.405  14.632  0.00  0.00    +0.000 OA
BRANCH  10  13
ATOM     12  C   UNL     1       6.725   3.988  12.564  0.00  0.00    +0.000 C 
ATOM     13  O   UNL     1       6.359   3.669  13.907  0.00  0.00    +0.000 OA
ENDBRANCH  10  13
ENDBRANCH   1  10
BRANCH   1  14
ATOM     14  C   UNL     1       6.973   4.349  17.339  0.00  0.00    +0.000 C 
BRANCH  14  15
ATOM     15  S   UNL     1       6.674   5.675  18.545  0.00  0.00    +0.000 S 
BRANCH  15  16
ATOM     16  C   UNL     1       7.301   6.973  17.678  0.00  0.00    +0.000 C 
ATOM     17  N   UNL     1       7.741   7.871  17.088  0.00  0.00    +0.000 NA
ENDBRANCH  15  16
ENDBRANCH  14  15
ENDBRANCH   1  14
TORSDOF 6
ENDMDL
MODEL 5
REMARK VINA RESULT:      -6.2      1.215      1.215
REMARK  Name = 
REMARK  7 active torsions:
REMARK  status: ('A' for Active; 'I' for Inactive)
REMARK    1  A    between atoms: C_1  and  O_2
REMARK    2  A    between atoms: O_2  and  C_3
REMARK    3  A    between atoms: C_3  and  C_5
REMARK    4  A    between atoms: C_5  and  C_14
REMARK    5  A    between atoms: C_6  and  C_7
REMARK    6  A    between atoms: C_14  and  S_15
REMARK    7  A    between atoms: S_15  and  C_16
REMARK                            x       y       z     vdW  Elec       q    Type
REMARK                         _______ _______ _______ _____ _____    ______ ____
ROOT
ATOM      1  C   UNL     1       6.255   4.633  16.150  0.00  0.00    +0.000 C 
ATOM      2  C   UNL     1       4.911   4.640  16.290  0.00  0.00    +0.000 C 
ENDROOT
BRANCH   2   3
ATOM      3  C   UNL     1       4.191   4.452  17.553  0.00  0.00    +0.000 A 
ATOM      4  C   UNL     1       3.621   5.551  18.206  0.00  0.00    +0.000 A 
ATOM      5  C   UNL     1       2.990   5.389  19.441  0.00  0.00    +0.000 A 
ATOM      6  C   UNL     1       2.910   4.123  20.018  0.00  0.00    +0.000 A 
ATOM      7 CL   UNL     1       2.177   3.930  21.562  0.00  0.00    +0.000 Cl
ATOM      8  C   UNL     1       3.430   3.014  19.353  0.00  0.00    +0.000 A 
ATOM      9  C   UNL     1       4.071   3.178  18.121  0.00  0.00    +0.000 A 
ENDBRANCH   2   3
BRANCH   1  10
ATOM     10  C   UNL     1       6.847   4.786  14.788  0.00  0.00    +0.000 C 
ATOM     11  O   UNL     1       7.801   5.514  14.556  0.00  0.00    +0.000 OA
BRANCH  10  13
ATOM     12  C   UNL     1       6.823   3.959  12.604  0.00  0.00    +0.000 C 
ATOM     13  O   UNL     1       6.158   4.073  13.863  0.00  0.00    +0.000 OA
ENDBRANCH  10  13
ENDBRANCH   1  10
BRANCH   1  14
ATOM     14  C   UNL     1       7.262   4.393  17.248  0.00  0.00    +0.000 C 
BRANCH  14  15
ATOM     15  S   UNL     1       7.193   5.623  18.585  0.00  0.00    +0.000 S 
BRANCH  15  16
ATOM     16  C   UNL     1       7.447   7.018  17.680  0.00  0.00    +0.000 C 
ATOM     17  N   UNL     1       7.612   7.985  17.058  0.00  0.00    +0.000 NA
ENDBRANCH  15  16
ENDBRANCH  14  15
ENDBRANCH   1  14
TORSDOF 6
ENDMDL
MODEL 6
REMARK VINA RESULT:      -6.2      1.633      1.680
REMARK  Name = 
REMARK  7 active torsions:
REMARK  status: ('A' for Active; 'I' for Inactive)
REMARK    1  A    between atoms: C_1  and  O_2
REMARK    2  A    between atoms: O_2  and  C_3
REMARK    3  A    between atoms: C_3  and  C_5
REMARK    4  A    between atoms: C_5  and  C_14
REMARK    5  A    between atoms: C_6  and  C_7
REMARK    6  A    between atoms: C_14  and  S_15
REMARK    7  A    between atoms: S_15  and  C_16
REMARK                            x       y       z     vdW  Elec       q    Type
REMARK                         _______ _______ _______ _____ _____    ______ ____
ROOT
ATOM      1  C   UNL     1       5.310   4.767  16.051  0.00  0.00    +0.000 C 
ATOM      2  C   UNL     1       4.624   3.645  16.358  0.00  0.00    +0.000 C 
ENDROOT
BRANCH   2   3
ATOM      3  C   UNL     1       3.786   3.465  17.547  0.00  0.00    +0.000 A 
ATOM      4  C   UNL     1       2.414   3.733  17.486  0.00  0.00    +0.000 A 
ATOM      5  C   UNL     1       1.621   3.626  18.631  0.00  0.00    +0.000 A 
ATOM      6  C   UNL     1       2.196   3.230  19.837  0.00  0.00    +0.000 A 
ATOM      7 CL   UNL     1       1.231   3.145  21.259  0.00  0.00    +0.000 Cl
ATOM      8  C   UNL     1       3.551   2.912  19.898  0.00  0.00    +0.000 A 
ATOM      9  C   UNL     1       4.347   3.030  18.754  0.00  0.00    +0.000 A 
ENDBRANCH   2   3
BRANCH   1  10
ATOM     10  C   UNL     1       6.166   4.787  14.829  0.00  0.00    +0.000 C 
ATOM     11  O   UNL     1       7.291   5.264  14.811  0.00  0.00    +0.000 OA
BRANCH  10  13
ATOM     12  C   UNL     1       6.361   3.579  12.839  0.00  0.00    +0.000 C 
ATOM     13  O   UNL     1       5.514   4.272  13.757  0.00  0.00    +0.000 OA
ENDBRANCH  10  13
ENDBRANCH   1  10
BRANCH   1  14
ATOM     14  C   UNL     1       5.379   6.023  16.884  0.00  0.00    +0.000 C 
BRANCH  14  15
ATOM     15  S   UNL     1       6.717   6.013  18.116  0.00  0.00    +0.000 S 
BRANCH  15  16
ATOM     16  C   UNL     1       7.480   7.452  17.694  0.00  0.00    +0.000 C 
ATOM     17  N   UNL     1       8.009   8.440  17.392  0.00  0.00    +0.000 NA
ENDBRANCH  15  16
ENDBRANCH  14  15
ENDBRANCH   1  14
TORSDOF 6
ENDMDL
MODEL 7
REMARK VINA RESULT:      -6.2      1.705      2.001
REMARK  Name = 
REMARK  7 active torsions:
REMARK  status: ('A' for Active; 'I' for Inactive)
REMARK    1  A    between atoms: C_1  and  O_2
REMARK    2  A    between atoms: O_2  and  C_3
REMARK    3  A    between atoms: C_3  and  C_5
REMARK    4  A    between atoms: C_5  and  C_14
REMARK    5  A    between atoms: C_6  and  C_7
REMARK    6  A    between atoms: C_14  and  S_15
REMARK    7  A    between atoms: S_15  and  C_16
REMARK                            x       y       z     vdW  Elec       q    Type
REMARK                         _______ _______ _______ _____ _____    ______ ____
ROOT
ATOM      1  C   UNL     1       5.103   4.807  16.401  0.00  0.00    +0.000 C 
ATOM      2  C   UNL     1       4.343   3.724  16.676  0.00  0.00    +0.000 C 
ENDROOT
BRANCH   2   3
ATOM      3  C   UNL     1       3.593   3.511  17.917  0.00  0.00    +0.000 A 
ATOM      4  C   UNL     1       4.219   2.929  19.025  0.00  0.00    +0.000 A 
ATOM      5  C   UNL     1       3.494   2.664  20.188  0.00  0.00    +0.000 A 
ATOM      6  C   UNL     1       2.142   2.999  20.254  0.00  0.00    +0.000 A 
ATOM      7 CL   UNL     1       1.235   2.628  21.667  0.00  0.00    +0.000 Cl
ATOM      8  C   UNL     1       1.521   3.625  19.175  0.00  0.00    +0.000 A 
ATOM      9  C   UNL     1       2.245   3.880  18.006  0.00  0.00    +0.000 A 
ENDBRANCH   2   3
BRANCH   1  10
ATOM     10  C   UNL     1       5.852   4.862  15.111  0.00  0.00    +0.000 C 
ATOM     11  O   UNL     1       6.282   5.903  14.635  0.00  0.00    +0.000 OA
BRANCH  10  13
ATOM     12  C   UNL     1       6.149   3.681  13.118  0.00  0.00    +0.000 C 
ATOM     13  O   UNL     1       5.933   3.639  14.529  0.00  0.00    +0.000 OA
ENDBRANCH  10  13
ENDBRANCH   1  10
BRANCH   1  14
ATOM     14  C   UNL     1       5.357   5.972  17.324  0.00  0.00    +0.000 C 
BRANCH  14  15
ATOM     15  S   UNL     1       6.972   5.908  18.156  0.00  0.00    +0.000 S 
BRANCH  15  16
ATOM     16  C   UNL     1       7.560   7.422  17.716  0.00  0.00    +0.000 C 
ATOM     17  N   UNL     1       7.961   8.471  17.422  0.00  0.00    +0.000 NA
ENDBRANCH  15  16
ENDBRANCH  14  15
ENDBRANCH   1  14
TORSDOF 6
ENDMDL
MODEL 8
REMARK VINA RESULT:      -6.1      1.230      1.494
REMARK  Name = 
REMARK  7 active torsions:
REMARK  status: ('A' for Active; 'I' for Inactive)
REMARK    1  A    between atoms: C_1  and  O_2
REMARK    2  A    between atoms: O_2  and  C_3
REMARK    3  A    between atoms: C_3  and  C_5
REMARK    4  A    between atoms: C_5  and  C_14
REMARK    5  A    between atoms: C_6  and  C_7
REMARK    6  A    between atoms: C_14  and  S_15
REMARK    7  A    between atoms: S_15  and  C_16
REMARK                            x       y       z     vdW  Elec       q    Type
REMARK                         _______ _______ _______ _____ _____    ______ ____
ROOT
ATOM      1  C   UNL     1       5.488   4.811  16.220  0.00  0.00    +0.000 C 
ATOM      2  C   UNL     1       4.910   3.666  16.644  0.00  0.00    +0.000 C 
ENDROOT
BRANCH   2   3
ATOM      3  C   UNL     1       3.949   3.561  17.745  0.00  0.00    +0.000 A 
ATOM      4  C   UNL     1       4.390   3.243  19.035  0.00  0.00    +0.000 A 
ATOM      5  C   UNL     1       3.472   3.078  20.075  0.00  0.00    +0.000 A 
ATOM      6  C   UNL     1       2.111   3.250  19.831  0.00  0.00    +0.000 A 
ATOM      7 CL   UNL     1       0.975   2.998  21.099  0.00  0.00    +0.000 Cl
ATOM      8  C   UNL     1       1.664   3.615  18.562  0.00  0.00    +0.000 A 
ATOM      9  C   UNL     1       2.583   3.770  17.519  0.00  0.00    +0.000 A 
ENDBRANCH   2   3
BRANCH   1  10
ATOM     10  C   UNL     1       6.491   4.756  15.116  0.00  0.00    +0.000 C 
ATOM     11  O   UNL     1       7.697   4.745  15.313  0.00  0.00    +0.000 OA
BRANCH  10  13
ATOM     12  C   UNL     1       6.208   3.661  13.073  0.00  0.00    +0.000 C 
ATOM     13  O   UNL     1       5.893   4.783  13.899  0.00  0.00    +0.000 OA
ENDBRANCH  10  13
ENDBRANCH   1  10
BRANCH   1  14
ATOM     14  C   UNL     1       5.289   6.181  16.819  0.00  0.00    +0.000 C 
BRANCH  14  15
ATOM     15  S   UNL     1       6.815   6.922  17.475  0.00  0.00    +0.000 S 
BRANCH  15  16
ATOM     16  C   UNL     1       7.027   5.944  18.828  0.00  0.00    +0.000 C 
ATOM     17  N   UNL     1       7.167   5.261  19.756  0.00  0.00    +0.000 NA
ENDBRANCH  15  16
ENDBRANCH  14  15
ENDBRANCH   1  14
TORSDOF 6
ENDMDL
MODEL 9
REMARK VINA RESULT:      -6.1      0.980      1.044
REMARK  Name = 
REMARK  7 active torsions:
REMARK  status: ('A' for Active; 'I' for Inactive)
REMARK    1  A    between atoms: C_1  and  O_2
REMARK    2  A    between atoms: O_2  and  C_3
REMARK    3  A    between atoms: C_3  and  C_5
REMARK    4  A    between atoms: C_5  and  C_14
REMARK    5  A    between atoms: C_6  and  C_7
REMARK    6  A    between atoms: C_14  and  S_15
REMARK    7  A    between atoms: S_15  and  C_16
REMARK                            x       y       z     vdW  Elec       q    Type
REMARK                         _______ _______ _______ _____ _____    ______ ____
ROOT
ATOM      1  C   UNL     1       5.639   4.801  15.930  0.00  0.00    +0.000 C 
ATOM      2  C   UNL     1       4.947   3.714  16.335  0.00  0.00    +0.000 C 
ENDROOT
BRANCH   2   3
ATOM      3  C   UNL     1       4.030   3.673  17.478  0.00  0.00    +0.000 A 
ATOM      4  C   UNL     1       2.701   4.086  17.327  0.00  0.00    +0.000 A 
ATOM      5  C   UNL     1       1.840   4.111  18.426  0.00  0.00    +0.000 A 
ATOM      6  C   UNL     1       2.300   3.702  19.676  0.00  0.00    +0.000 A 
ATOM      7 CL   UNL     1       1.255   3.778  21.041  0.00  0.00    +0.000 Cl
ATOM      8  C   UNL     1       3.606   3.241  19.828  0.00  0.00    +0.000 A 
ATOM      9  C   UNL     1       4.472   3.227  18.729  0.00  0.00    +0.000 A 
ENDBRANCH   2   3
BRANCH   1  10
ATOM     10  C   UNL     1       6.578   4.679  14.776  0.00  0.00    +0.000 C 
ATOM     11  O   UNL     1       7.592   5.353  14.670  0.00  0.00    +0.000 OA
BRANCH  10  13
ATOM     12  C   UNL     1       6.774   3.879  12.591  0.00  0.00    +0.000 C 
ATOM     13  O   UNL     1       6.128   3.785  13.861  0.00  0.00    +0.000 OA
ENDBRANCH  10  13
ENDBRANCH   1  10
BRANCH   1  14
ATOM     14  C   UNL     1       5.633   6.156  16.592  0.00  0.00    +0.000 C 
BRANCH  14  15
ATOM     15  S   UNL     1       7.232   6.622  17.322  0.00  0.00    +0.000 S 
BRANCH  15  16
ATOM     16  C   UNL     1       7.086   5.842  18.806  0.00  0.00    +0.000 C 
ATOM     17  N   UNL     1       6.987   5.293  19.824  0.00  0.00    +0.000 NA
ENDBRANCH  15  16
ENDBRANCH  14  15
ENDBRANCH   1  14
TORSDOF 6
ENDMDL
