MODEL 1
REMARK VINA RESULT:      -8.6      0.000      0.000
REMARK  Name = 
REMARK  4 active torsions:
REMARK  status: ('A' for Active; 'I' for Inactive)
REMARK    1  A    between atoms: C_2  and  C_13
REMARK    2  A    between atoms: N_3  and  C_4
REMARK    3  A    between atoms: C_18  and  C_19
REMARK    4  A    between atoms: C_24  and  C_25
REMARK                            x       y       z     vdW  Elec       q    Type
REMARK                         _______ _______ _______ _____ _____    ______ ____
ROOT
ATOM      1  C   UNL     1       7.438   8.163  17.780  0.00  0.00    +0.000 A 
ATOM      2  C   UNL     1       8.173   6.948  17.716  0.00  0.00    +0.000 A 
ATOM      3  C   UNL     1       7.257   5.988  17.403  0.00  0.00    +0.000 A 
ATOM      4  N   UNL     1       6.038   6.618  17.363  0.00  0.00    +0.000 N 
ATOM      5  N   UNL     1       6.124   7.961  17.543  0.00  0.00    +0.000 NA
ATOM      6  C   UNL     1       4.835   5.971  16.867  0.00  0.00    +0.000 C 
ATOM      7  C   UNL     1       5.005   4.434  16.825  0.00  0.00    +0.000 C 
ATOM      8  C   UNL     1       6.381   4.009  16.289  0.00  0.00    +0.000 C 
ATOM      9  N   UNL     1       7.404   4.677  17.095  0.00  0.00    +0.000 N 
ATOM     10  H   UNL     1       8.345   4.313  16.942  0.00  0.00    +0.000 HD
ENDROOT
BRANCH   8  11
ATOM     11  C   UNL     1       6.575   4.205  14.788  0.00  0.00    +0.000 A 
ATOM     12  C   UNL     1       7.554   5.057  14.247  0.00  0.00    +0.000 A 
ATOM     13  C   UNL     1       7.739   5.168  12.867  0.00  0.00    +0.000 A 
ATOM     14  C   UNL     1       6.951   4.424  11.997  0.00  0.00    +0.000 A 
ATOM     15  C   UNL     1       5.975   3.573  12.506  0.00  0.00    +0.000 A 
ATOM     16  C   UNL     1       5.789   3.463  13.888  0.00  0.00    +0.000 A 
ENDBRANCH   8  11
BRANCH   1  18
ATOM     17  O   UNL     1       7.748  10.425  17.294  0.00  0.00    +0.000 OA
ATOM     18  C   UNL     1       8.063   9.475  18.011  0.00  0.00    +0.000 C 
ATOM     19  N   UNL     1       9.015   9.518  19.019  0.00  0.00    +0.000 N 
ATOM     20  H   UNL     1       9.287   8.614  19.395  0.00  0.00    +0.000 HD
BRANCH  19  21
ATOM     21  C   UNL     1       9.732  10.676  19.403  0.00  0.00    +0.000 A 
ATOM     22  C   UNL     1       9.569  11.267  20.677  0.00  0.00    +0.000 A 
ATOM     23  C   UNL     1      10.224  12.450  21.029  0.00  0.00    +0.000 A 
ATOM     24  C   UNL     1      11.043  13.024  20.089  0.00  0.00    +0.000 A 
ATOM     25  C   UNL     1      11.241  12.445  18.858  0.00  0.00    +0.000 A 
ATOM     26  C   UNL     1      10.619  11.262  18.490  0.00  0.00    +0.000 A 
ATOM     27  O   UNL     1      12.082  13.184  18.081  0.00  0.00    +0.000 OA
ATOM     28  C   UNL     1      12.331  14.317  18.944  0.00  0.00    +0.000 C 
ATOM     29  O   UNL     1      11.725  14.188  20.246  0.00  0.00    +0.000 OA
ENDBRANCH  19  21
ENDBRANCH   1  18
BRANCH   6  30
ATOM     30  C   UNL     1       3.577   6.345  17.638  0.00  0.00    +0.000 C 
ATOM     31  F   UNL     1       3.045   7.545  17.330  0.00  0.00    +0.000 F 
ATOM     32  F   UNL     1       2.610   5.415  17.424  0.00  0.00    +0.000 F 
ATOM     33  F   UNL     1       3.790   6.357  18.980  0.00  0.00    +0.000 F 
ENDBRANCH   6  30
TORSDOF 4
ENDMDL
MODEL 2
REMARK VINA RESULT:      -8.6      5.802      9.491
REMARK  Name = 
REMARK  4 active torsions:
REMARK  status: ('A' for Active; 'I' for Inactive)
REMARK    1  A    between atoms: C_2  and  C_13
REMARK    2  A    between atoms: N_3  and  C_4
REMARK    3  A    between atoms: C_18  and  C_19
REMARK    4  A    between atoms: C_24  and  C_25
REMARK                            x       y       z     vdW  Elec       q    Type
REMARK                         _______ _______ _______ _____ _____    ______ ____
ROOT
ATOM      1  C   UNL     1       1.727   8.267  19.378  0.00  0.00    +0.000 A 
ATOM      2  C   UNL     1       1.163   9.212  18.479  0.00  0.00    +0.000 A 
ATOM      3  C   UNL     1       0.504  10.111  19.264  0.00  0.00    +0.000 A 
ATOM      4  N   UNL     1       0.626   9.656  20.553  0.00  0.00    +0.000 N 
ATOM      5  N   UNL     1       1.411   8.553  20.660  0.00  0.00    +0.000 NA
ATOM      6  C   UNL     1       0.226  10.445  21.707  0.00  0.00    +0.000 C 
ATOM      7  C   UNL     1      -0.716  11.600  21.292  0.00  0.00    +0.000 C 
ATOM      8  C   UNL     1      -0.255  12.301  20.005  0.00  0.00    +0.000 C 
ATOM      9  N   UNL     1      -0.107  11.282  18.965  0.00  0.00    +0.000 N 
ATOM     10  H   UNL     1       0.008  11.669  18.028  0.00  0.00    +0.000 HD
ENDROOT
BRANCH   8  11
ATOM     11  C   UNL     1       0.978  13.185  20.160  0.00  0.00    +0.000 A 
ATOM     12  C   UNL     1       1.943  13.339  19.148  0.00  0.00    +0.000 A 
ATOM     13  C   UNL     1       3.030  14.201  19.306  0.00  0.00    +0.000 A 
ATOM     14  C   UNL     1       3.174  14.935  20.477  0.00  0.00    +0.000 A 
ATOM     15  C   UNL     1       2.233  14.802  21.494  0.00  0.00    +0.000 A 
ATOM     16  C   UNL     1       1.145  13.937  21.337  0.00  0.00    +0.000 A 
ENDBRANCH   8  11
BRANCH   1  18
ATOM     17  O   UNL     1       2.362   6.021  19.345  0.00  0.00    +0.000 OA
ATOM     18  C   UNL     1       2.599   7.162  18.950  0.00  0.00    +0.000 C 
ATOM     19  N   UNL     1       3.672   7.522  18.148  0.00  0.00    +0.000 N 
ATOM     20  H   UNL     1       3.829   8.522  18.057  0.00  0.00    +0.000 HD
BRANCH  19  21
ATOM     21  C   UNL     1       4.629   6.618  17.627  0.00  0.00    +0.000 A 
ATOM     22  C   UNL     1       5.426   5.808  18.468  0.00  0.00    +0.000 A 
ATOM     23  C   UNL     1       6.418   4.968  17.956  0.00  0.00    +0.000 A 
ATOM     24  C   UNL     1       6.594   4.951  16.595  0.00  0.00    +0.000 A 
ATOM     25  C   UNL     1       5.804   5.705  15.759  0.00  0.00    +0.000 A 
ATOM     26  C   UNL     1       4.800   6.531  16.239  0.00  0.00    +0.000 A 
ATOM     27  O   UNL     1       6.154   5.544  14.451  0.00  0.00    +0.000 OA
ATOM     28  C   UNL     1       7.288   4.657  14.577  0.00  0.00    +0.000 C 
ATOM     29  O   UNL     1       7.530   4.226  15.931  0.00  0.00    +0.000 OA
ENDBRANCH  19  21
ENDBRANCH   1  18
BRANCH   6  30
ATOM     30  C   UNL     1      -0.400   9.623  22.824  0.00  0.00    +0.000 C 
ATOM     31  F   UNL     1       0.435   9.272  23.822  0.00  0.00    +0.000 F 
ATOM     32  F   UNL     1      -1.425  10.314  23.387  0.00  0.00    +0.000 F 
ATOM     33  F   UNL     1      -0.944   8.468  22.358  0.00  0.00    +0.000 F 
ENDBRANCH   6  30
TORSDOF 4
ENDMDL
MODEL 3
REMARK VINA RESULT:      -8.6      5.625      9.300
REMARK  Name = 
REMARK  4 active torsions:
REMARK  status: ('A' for Active; 'I' for Inactive)
REMARK    1  A    between atoms: C_2  and  C_13
REMARK    2  A    between atoms: N_3  and  C_4
REMARK    3  A    between atoms: C_18  and  C_19
REMARK    4  A    between atoms: C_24  and  C_25
REMARK                            x       y       z     vdW  Elec       q    Type
REMARK                         _______ _______ _______ _____ _____    ______ ____
ROOT
ATOM      1  C   UNL     1       1.752   8.317  18.883  0.00  0.00    +0.000 A 
ATOM      2  C   UNL     1       1.176   9.293  18.026  0.00  0.00    +0.000 A 
ATOM      3  C   UNL     1       0.549  10.178  18.853  0.00  0.00    +0.000 A 
ATOM      4  N   UNL     1       0.701   9.687  20.126  0.00  0.00    +0.000 N 
ATOM      5  N   UNL     1       1.475   8.572  20.181  0.00  0.00    +0.000 NA
ATOM      6  C   UNL     1       0.343  10.449  21.311  0.00  0.00    +0.000 C 
ATOM      7  C   UNL     1      -0.597  11.625  20.954  0.00  0.00    +0.000 C 
ATOM      8  C   UNL     1      -0.163  12.355  19.673  0.00  0.00    +0.000 C 
ATOM      9  N   UNL     1      -0.056  11.363  18.603  0.00  0.00    +0.000 N 
ATOM     10  H   UNL     1       0.038  11.774  17.674  0.00  0.00    +0.000 HD
ENDROOT
BRANCH   8  11
ATOM     11  C   UNL     1       1.085  13.221  19.817  0.00  0.00    +0.000 A 
ATOM     12  C   UNL     1       1.444  13.852  21.021  0.00  0.00    +0.000 A 
ATOM     13  C   UNL     1       2.624  14.592  21.130  0.00  0.00    +0.000 A 
ATOM     14  C   UNL     1       3.475  14.711  20.038  0.00  0.00    +0.000 A 
ATOM     15  C   UNL     1       3.143  14.096  18.835  0.00  0.00    +0.000 A 
ATOM     16  C   UNL     1       1.961  13.357  18.725  0.00  0.00    +0.000 A 
ENDBRANCH   8  11
BRANCH   1  18
ATOM     17  O   UNL     1       2.184   6.059  18.482  0.00  0.00    +0.000 OA
ATOM     18  C   UNL     1       2.599   7.215  18.402  0.00  0.00    +0.000 C 
ATOM     19  N   UNL     1       3.848   7.583  17.925  0.00  0.00    +0.000 N 
ATOM     20  H   UNL     1       4.107   8.552  18.090  0.00  0.00    +0.000 HD
BRANCH  19  21
ATOM     21  C   UNL     1       4.815   6.682  17.416  0.00  0.00    +0.000 A 
ATOM     22  C   UNL     1       5.691   5.968  18.266  0.00  0.00    +0.000 A 
ATOM     23  C   UNL     1       6.690   5.133  17.758  0.00  0.00    +0.000 A 
ATOM     24  C   UNL     1       6.794   5.025  16.394  0.00  0.00    +0.000 A 
ATOM     25  C   UNL     1       5.928   5.685  15.553  0.00  0.00    +0.000 A 
ATOM     26  C   UNL     1       4.916   6.503  16.030  0.00  0.00    +0.000 A 
ATOM     27  O   UNL     1       6.214   5.444  14.242  0.00  0.00    +0.000 OA
ATOM     28  C   UNL     1       7.392   4.615  14.366  0.00  0.00    +0.000 C 
ATOM     29  O   UNL     1       7.724   4.293  15.730  0.00  0.00    +0.000 OA
ENDBRANCH  19  21
ENDBRANCH   1  18
BRANCH   6  30
ATOM     30  C   UNL     1      -0.263   9.604  22.422  0.00  0.00    +0.000 C 
ATOM     31  F   UNL     1      -0.861   8.464  22.022  0.00  0.00    +0.000 F 
ATOM     32  F   UNL     1       0.700   9.256  23.315  0.00  0.00    +0.000 F 
ATOM     33  F   UNL     1      -1.195  10.293  23.132  0.00  0.00    +0.000 F 
ENDBRANCH   6  30
TORSDOF 4
ENDMDL
MODEL 4
REMARK VINA RESULT:      -8.5      5.884      9.792
REMARK  Name = 
REMARK  4 active torsions:
REMARK  status: ('A' for Active; 'I' for Inactive)
REMARK    1  A    between atoms: C_2  and  C_13
REMARK    2  A    between atoms: N_3  and  C_4
REMARK    3  A    between atoms: C_18  and  C_19
REMARK    4  A    between atoms: C_24  and  C_25
REMARK                            x       y       z     vdW  Elec       q    Type
REMARK                         _______ _______ _______ _____ _____    ______ ____
ROOT
ATOM      1  C   UNL     1       1.608   8.406  19.572  0.00  0.00    +0.000 A 
ATOM      2  C   UNL     1       1.097   9.367  18.659  0.00  0.00    +0.000 A 
ATOM      3  C   UNL     1       0.464  10.297  19.428  0.00  0.00    +0.000 A 
ATOM      4  N   UNL     1       0.548   9.847  20.722  0.00  0.00    +0.000 N 
ATOM      5  N   UNL     1       1.285   8.713  20.847  0.00  0.00    +0.000 NA
ATOM      6  C   UNL     1       0.164  10.660  21.865  0.00  0.00    +0.000 C 
ATOM      7  C   UNL     1      -0.723  11.850  21.428  0.00  0.00    +0.000 C 
ATOM      8  C   UNL     1      -0.216  12.522  20.143  0.00  0.00    +0.000 C 
ATOM      9  N   UNL     1      -0.095  11.490  19.113  0.00  0.00    +0.000 N 
ATOM     10  H   UNL     1       0.050  11.865  18.175  0.00  0.00    +0.000 HD
ENDROOT
BRANCH   8  11
ATOM     11  C   UNL     1       1.051  13.356  20.310  0.00  0.00    +0.000 A 
ATOM     12  C   UNL     1       1.347  14.071  21.484  0.00  0.00    +0.000 A 
ATOM     13  C   UNL     1       2.543  14.779  21.621  0.00  0.00    +0.000 A 
ATOM     14  C   UNL     1       3.474  14.782  20.589  0.00  0.00    +0.000 A 
ATOM     15  C   UNL     1       3.205  14.081  19.417  0.00  0.00    +0.000 A 
ATOM     16  C   UNL     1       2.006  13.374  19.279  0.00  0.00    +0.000 A 
ENDBRANCH   8  11
BRANCH   1  18
ATOM     17  O   UNL     1       2.702   6.386  19.987  0.00  0.00    +0.000 OA
ATOM     18  C   UNL     1       2.440   7.263  19.164  0.00  0.00    +0.000 C 
ATOM     19  N   UNL     1       2.908   7.298  17.859  0.00  0.00    +0.000 N 
ATOM     20  H   UNL     1       2.750   8.172  17.366  0.00  0.00    +0.000 HD
BRANCH  19  21
ATOM     21  C   UNL     1       3.720   6.302  17.266  0.00  0.00    +0.000 A 
ATOM     22  C   UNL     1       3.508   4.925  17.508  0.00  0.00    +0.000 A 
ATOM     23  C   UNL     1       4.354   3.946  16.979  0.00  0.00    +0.000 A 
ATOM     24  C   UNL     1       5.406   4.369  16.205  0.00  0.00    +0.000 A 
ATOM     25  C   UNL     1       5.606   5.701  15.930  0.00  0.00    +0.000 A 
ATOM     26  C   UNL     1       4.771   6.690  16.426  0.00  0.00    +0.000 A 
ATOM     27  O   UNL     1       6.709   5.897  15.153  0.00  0.00    +0.000 OA
ATOM     28  C   UNL     1       7.204   4.544  15.032  0.00  0.00    +0.000 C 
ATOM     29  O   UNL     1       6.344   3.563  15.643  0.00  0.00    +0.000 OA
ENDBRANCH  19  21
ENDBRANCH   1  18
BRANCH   6  30
ATOM     30  C   UNL     1      -0.511   9.872  22.978  0.00  0.00    +0.000 C 
ATOM     31  F   UNL     1      -1.062   8.700  22.605  0.00  0.00    +0.000 F 
ATOM     32  F   UNL     1       0.386   9.597  23.960  0.00  0.00    +0.000 F 
ATOM     33  F   UNL     1      -1.504  10.586  23.572  0.00  0.00    +0.000 F 
ENDBRANCH   6  30
TORSDOF 4
ENDMDL
MODEL 5
REMARK VINA RESULT:      -8.5      6.425     10.273
REMARK  Name = 
REMARK  4 active torsions:
REMARK  status: ('A' for Active; 'I' for Inactive)
REMARK    1  A    between atoms: C_2  and  C_13
REMARK    2  A    between atoms: N_3  and  C_4
REMARK    3  A    between atoms: C_18  and  C_19
REMARK    4  A    between atoms: C_24  and  C_25
REMARK                            x       y       z     vdW  Elec       q    Type
REMARK                         _______ _______ _______ _____ _____    ______ ____
ROOT
ATOM      1  C   UNL     1       1.841   8.266  18.922  0.00  0.00    +0.000 A 
ATOM      2  C   UNL     1       1.394   9.222  17.971  0.00  0.00    +0.000 A 
ATOM      3  C   UNL     1       0.875  10.248  18.703  0.00  0.00    +0.000 A 
ATOM      4  N   UNL     1       0.957   9.861  20.018  0.00  0.00    +0.000 N 
ATOM      5  N   UNL     1       1.588   8.670  20.186  0.00  0.00    +0.000 NA
ATOM      6  C   UNL     1       0.687  10.766  21.123  0.00  0.00    +0.000 C 
ATOM      7  C   UNL     1      -0.099  12.010  20.644  0.00  0.00    +0.000 C 
ATOM      8  C   UNL     1       0.430  12.562  19.311  0.00  0.00    +0.000 C 
ATOM      9  N   UNL     1       0.421  11.470  18.337  0.00  0.00    +0.000 N 
ATOM     10  H   UNL     1       0.571  11.780  17.377  0.00  0.00    +0.000 HD
ENDROOT
BRANCH   8  11
ATOM     11  C   UNL     1       1.773  13.279  19.400  0.00  0.00    +0.000 A 
ATOM     12  C   UNL     1       2.592  13.512  18.281  0.00  0.00    +0.000 A 
ATOM     13  C   UNL     1       3.790  14.222  18.392  0.00  0.00    +0.000 A 
ATOM     14  C   UNL     1       4.192  14.721  19.624  0.00  0.00    +0.000 A 
ATOM     15  C   UNL     1       3.400  14.505  20.748  0.00  0.00    +0.000 A 
ATOM     16  C   UNL     1       2.201  13.792  20.637  0.00  0.00    +0.000 A 
ENDBRANCH   8  11
BRANCH   1  18
ATOM     17  O   UNL     1       3.511   7.092  17.792  0.00  0.00    +0.000 OA
ATOM     18  C   UNL     1       2.549   7.030  18.557  0.00  0.00    +0.000 C 
ATOM     19  N   UNL     1       2.026   5.860  19.088  0.00  0.00    +0.000 N 
ATOM     20  H   UNL     1       1.129   5.959  19.555  0.00  0.00    +0.000 HD
BRANCH  19  21
ATOM     21  C   UNL     1       2.555   4.566  18.864  0.00  0.00    +0.000 A 
ATOM     22  C   UNL     1       2.087   3.740  17.816  0.00  0.00    +0.000 A 
ATOM     23  C   UNL     1       2.560   2.437  17.639  0.00  0.00    +0.000 A 
ATOM     24  C   UNL     1       3.504   1.980  18.524  0.00  0.00    +0.000 A 
ATOM     25  C   UNL     1       3.995   2.781  19.528  0.00  0.00    +0.000 A 
ATOM     26  C   UNL     1       3.559   4.083  19.713  0.00  0.00    +0.000 A 
ATOM     27  O   UNL     1       4.916   2.127  20.292  0.00  0.00    +0.000 OA
ATOM     28  C   UNL     1       4.891   0.813  19.688  0.00  0.00    +0.000 C 
ATOM     29  O   UNL     1       4.045   0.734  18.525  0.00  0.00    +0.000 OA
ENDBRANCH  19  21
ENDBRANCH   1  18
BRANCH   6  30
ATOM     30  C   UNL     1      -0.026  10.106  22.295  0.00  0.00    +0.000 C 
ATOM     31  F   UNL     1      -0.865  10.903  22.986  0.00  0.00    +0.000 F 
ATOM     32  F   UNL     1      -0.754   9.047  21.856  0.00  0.00    +0.000 F 
ATOM     33  F   UNL     1       0.852   9.601  23.201  0.00  0.00    +0.000 F 
ENDBRANCH   6  30
TORSDOF 4
ENDMDL
MODEL 6
REMARK VINA RESULT:      -8.4      6.414     10.316
REMARK  Name = 
REMARK  4 active torsions:
REMARK  status: ('A' for Active; 'I' for Inactive)
REMARK    1  A    between atoms: C_2  and  C_13
REMARK    2  A    between atoms: N_3  and  C_4
REMARK    3  A    between atoms: C_18  and  C_19
REMARK    4  A    between atoms: C_24  and  C_25
REMARK                            x       y       z     vdW  Elec       q    Type
REMARK                         _______ _______ _______ _____ _____    ______ ____
ROOT
ATOM      1  C   UNL     1       1.774   8.331  18.976  0.00  0.00    +0.000 A 
ATOM      2  C   UNL     1       1.306   9.292  18.040  0.00  0.00    +0.000 A 
ATOM      3  C   UNL     1       0.778  10.301  18.790  0.00  0.00    +0.000 A 
ATOM      4  N   UNL     1       0.876   9.898  20.099  0.00  0.00    +0.000 N 
ATOM      5  N   UNL     1       1.526   8.714  20.247  0.00  0.00    +0.000 NA
ATOM      6  C   UNL     1       0.601  10.784  21.218  0.00  0.00    +0.000 C 
ATOM      7  C   UNL     1      -0.206  12.023  20.762  0.00  0.00    +0.000 C 
ATOM      8  C   UNL     1       0.303  12.600  19.432  0.00  0.00    +0.000 C 
ATOM      9  N   UNL     1       0.303  11.521  18.443  0.00  0.00    +0.000 N 
ATOM     10  H   UNL     1       0.441  11.845  17.486  0.00  0.00    +0.000 HD
ENDROOT
BRANCH   8  11
ATOM     11  C   UNL     1       1.637  13.336  19.519  0.00  0.00    +0.000 A 
ATOM     12  C   UNL     1       2.196  13.766  20.735  0.00  0.00    +0.000 A 
ATOM     13  C   UNL     1       3.446  14.387  20.780  0.00  0.00    +0.000 A 
ATOM     14  C   UNL     1       4.168  14.587  19.610  0.00  0.00    +0.000 A 
ATOM     15  C   UNL     1       3.638  14.169  18.393  0.00  0.00    +0.000 A 
ATOM     16  C   UNL     1       2.385  13.549  18.347  0.00  0.00    +0.000 A 
ENDBRANCH   8  11
BRANCH   1  18
ATOM     17  O   UNL     1       3.456   7.196  17.822  0.00  0.00    +0.000 OA
ATOM     18  C   UNL     1       2.498   7.109  18.589  0.00  0.00    +0.000 C 
ATOM     19  N   UNL     1       1.992   5.925  19.103  0.00  0.00    +0.000 N 
ATOM     20  H   UNL     1       1.095   6.005  19.574  0.00  0.00    +0.000 HD
BRANCH  19  21
ATOM     21  C   UNL     1       2.536   4.641  18.858  0.00  0.00    +0.000 A 
ATOM     22  C   UNL     1       2.137   3.861  17.748  0.00  0.00    +0.000 A 
ATOM     23  C   UNL     1       2.623   2.567  17.545  0.00  0.00    +0.000 A 
ATOM     24  C   UNL     1       3.512   2.072  18.466  0.00  0.00    +0.000 A 
ATOM     25  C   UNL     1       3.938   2.830  19.532  0.00  0.00    +0.000 A 
ATOM     26  C   UNL     1       3.488   4.123  19.745  0.00  0.00    +0.000 A 
ATOM     27  O   UNL     1       4.811   2.143  20.323  0.00  0.00    +0.000 OA
ATOM     28  C   UNL     1       4.827   0.857  19.664  0.00  0.00    +0.000 C 
ATOM     29  O   UNL     1       4.055   0.828  18.448  0.00  0.00    +0.000 OA
ENDBRANCH  19  21
ENDBRANCH   1  18
BRANCH   6  30
ATOM     30  C   UNL     1      -0.092  10.099  22.387  0.00  0.00    +0.000 C 
ATOM     31  F   UNL     1       0.729   9.565  23.314  0.00  0.00    +0.000 F 
ATOM     32  F   UNL     1      -0.897  10.983  23.030  0.00  0.00    +0.000 F 
ATOM     33  F   UNL     1      -0.904   9.091  21.973  0.00  0.00    +0.000 F 
ENDBRANCH   6  30
TORSDOF 4
ENDMDL
MODEL 7
REMARK VINA RESULT:      -8.4      6.411     10.238
REMARK  Name = 
REMARK  4 active torsions:
REMARK  status: ('A' for Active; 'I' for Inactive)
REMARK    1  A    between atoms: C_2  and  C_13
REMARK    2  A    between atoms: N_3  and  C_4
REMARK    3  A    between atoms: C_18  and  C_19
REMARK    4  A    between atoms: C_24  and  C_25
REMARK                            x       y       z     vdW  Elec       q    Type
REMARK                         _______ _______ _______ _____ _____    ______ ____
ROOT
ATOM      1  C   UNL     1       1.102   9.344  18.836  0.00  0.00    +0.000 A 
ATOM      2  C   UNL     1       0.130  10.210  18.267  0.00  0.00    +0.000 A 
ATOM      3  C   UNL     1      -0.481  10.814  19.325  0.00  0.00    +0.000 A 
ATOM      4  N   UNL     1       0.071  10.261  20.454  0.00  0.00    +0.000 N 
ATOM      5  N   UNL     1       1.078   9.390  20.185  0.00  0.00    +0.000 NA
ATOM      6  C   UNL     1      -0.176  10.784  21.788  0.00  0.00    +0.000 C 
ATOM      7  C   UNL     1      -1.423  11.700  21.805  0.00  0.00    +0.000 C 
ATOM      8  C   UNL     1      -1.481  12.638  20.589  0.00  0.00    +0.000 C 
ATOM      9  N   UNL     1      -1.390  11.816  19.382  0.00  0.00    +0.000 N 
ATOM     10  H   UNL     1      -1.612  12.325  18.525  0.00  0.00    +0.000 HD
ENDROOT
BRANCH   8  11
ATOM     11  C   UNL     1      -0.474  13.784  20.613  0.00  0.00    +0.000 A 
ATOM     12  C   UNL     1       0.105  14.270  21.799  0.00  0.00    +0.000 A 
ATOM     13  C   UNL     1       1.065  15.284  21.777  0.00  0.00    +0.000 A 
ATOM     14  C   UNL     1       1.472  15.831  20.566  0.00  0.00    +0.000 A 
ATOM     15  C   UNL     1       0.915  15.369  19.378  0.00  0.00    +0.000 A 
ATOM     16  C   UNL     1      -0.048  14.354  19.400  0.00  0.00    +0.000 A 
ENDBRANCH   8  11
BRANCH   1  18
ATOM     17  O   UNL     1       2.524   9.044  17.009  0.00  0.00    +0.000 OA
ATOM     18  C   UNL     1       2.052   8.555  18.035  0.00  0.00    +0.000 C 
ATOM     19  N   UNL     1       2.305   7.272  18.498  0.00  0.00    +0.000 N 
ATOM     20  H   UNL     1       1.705   6.958  19.255  0.00  0.00    +0.000 HD
BRANCH  19  21
ATOM     21  C   UNL     1       3.185   6.351  17.880  0.00  0.00    +0.000 A 
ATOM     22  C   UNL     1       2.892   4.969  17.813  0.00  0.00    +0.000 A 
ATOM     23  C   UNL     1       3.792   4.052  17.265  0.00  0.00    +0.000 A 
ATOM     24  C   UNL     1       4.982   4.540  16.787  0.00  0.00    +0.000 A 
ATOM     25  C   UNL     1       5.269   5.885  16.812  0.00  0.00    +0.000 A 
ATOM     26  C   UNL     1       4.386   6.819  17.331  0.00  0.00    +0.000 A 
ATOM     27  O   UNL     1       6.503   6.149  16.296  0.00  0.00    +0.000 OA
ATOM     28  C   UNL     1       6.972   4.812  16.008  0.00  0.00    +0.000 C 
ATOM     29  O   UNL     1       5.985   3.793  16.258  0.00  0.00    +0.000 OA
ENDBRANCH  19  21
ENDBRANCH   1  18
BRANCH   6  30
ATOM     30  C   UNL     1      -0.293   9.706  22.856  0.00  0.00    +0.000 C 
ATOM     31  F   UNL     1       0.864   9.353  23.450  0.00  0.00    +0.000 F 
ATOM     32  F   UNL     1      -1.135  10.119  23.839  0.00  0.00    +0.000 F 
ATOM     33  F   UNL     1      -0.832   8.561  22.363  0.00  0.00    +0.000 F 
ENDBRANCH   6  30
TORSDOF 4
ENDMDL
MODEL 8
REMARK VINA RESULT:      -8.4      0.194      1.112
REMARK  Name = 
REMARK  4 active torsions:
REMARK  status: ('A' for Active; 'I' for Inactive)
REMARK    1  A    between atoms: C_2  and  C_13
REMARK    2  A    between atoms: N_3  and  C_4
REMARK    3  A    between atoms: C_18  and  C_19
REMARK    4  A    between atoms: C_24  and  C_25
REMARK                            x       y       z     vdW  Elec       q    Type
REMARK                         _______ _______ _______ _____ _____    ______ ____
ROOT
ATOM      1  C   UNL     1       7.331   8.029  17.814  0.00  0.00    +0.000 A 
ATOM      2  C   UNL     1       8.040   6.798  17.792  0.00  0.00    +0.000 A 
ATOM      3  C   UNL     1       7.110   5.849  17.487  0.00  0.00    +0.000 A 
ATOM      4  N   UNL     1       5.906   6.503  17.410  0.00  0.00    +0.000 N 
ATOM      5  N   UNL     1       6.017   7.848  17.559  0.00  0.00    +0.000 NA
ATOM      6  C   UNL     1       4.697   5.869  16.910  0.00  0.00    +0.000 C 
ATOM      7  C   UNL     1       4.836   4.328  16.909  0.00  0.00    +0.000 C 
ATOM      8  C   UNL     1       6.212   3.862  16.407  0.00  0.00    +0.000 C 
ATOM      9  N   UNL     1       7.235   4.528  17.214  0.00  0.00    +0.000 N 
ATOM     10  H   UNL     1       8.170   4.141  17.087  0.00  0.00    +0.000 HD
ENDROOT
BRANCH   8  11
ATOM     11  C   UNL     1       6.435   4.016  14.906  0.00  0.00    +0.000 A 
ATOM     12  C   UNL     1       5.630   3.383  13.943  0.00  0.00    +0.000 A 
ATOM     13  C   UNL     1       5.830   3.593  12.576  0.00  0.00    +0.000 A 
ATOM     14  C   UNL     1       6.837   4.446  12.143  0.00  0.00    +0.000 A 
ATOM     15  C   UNL     1       7.648   5.085  13.075  0.00  0.00    +0.000 A 
ATOM     16  C   UNL     1       7.449   4.874  14.443  0.00  0.00    +0.000 A 
ENDBRANCH   8  11
BRANCH   1  18
ATOM     17  O   UNL     1       7.688  10.274  17.285  0.00  0.00    +0.000 OA
ATOM     18  C   UNL     1       7.979   9.333  18.022  0.00  0.00    +0.000 C 
ATOM     19  N   UNL     1       8.925   9.377  19.036  0.00  0.00    +0.000 N 
ATOM     20  H   UNL     1       9.177   8.476  19.433  0.00  0.00    +0.000 HD
BRANCH  19  21
ATOM     21  C   UNL     1       9.662  10.529  19.402  0.00  0.00    +0.000 A 
ATOM     22  C   UNL     1       9.503  11.147  20.664  0.00  0.00    +0.000 A 
ATOM     23  C   UNL     1      10.179  12.324  20.998  0.00  0.00    +0.000 A 
ATOM     24  C   UNL     1      11.013  12.865  20.052  0.00  0.00    +0.000 A 
ATOM     25  C   UNL     1      11.206  12.259  18.833  0.00  0.00    +0.000 A 
ATOM     26  C   UNL     1      10.565  11.081  18.484  0.00  0.00    +0.000 A 
ATOM     27  O   UNL     1      12.066  12.968  18.046  0.00  0.00    +0.000 OA
ATOM     28  C   UNL     1      12.331  14.111  18.890  0.00  0.00    +0.000 C 
ATOM     29  O   UNL     1      11.717  14.018  20.190  0.00  0.00    +0.000 OA
ENDBRANCH  19  21
ENDBRANCH   1  18
BRANCH   6  30
ATOM     30  C   UNL     1       3.435   6.288  17.649  0.00  0.00    +0.000 C 
ATOM     31  F   UNL     1       2.377   5.465  17.501  0.00  0.00    +0.000 F 
ATOM     32  F   UNL     1       3.686   6.377  18.981  0.00  0.00    +0.000 F 
ATOM     33  F   UNL     1       3.012   7.522  17.268  0.00  0.00    +0.000 F 
ENDBRANCH   6  30
TORSDOF 4
ENDMDL
MODEL 9
REMARK VINA RESULT:      -8.3      6.428     10.259
REMARK  Name = 
REMARK  4 active torsions:
REMARK  status: ('A' for Active; 'I' for Inactive)
REMARK    1  A    between atoms: C_2  and  C_13
REMARK    2  A    between atoms: N_3  and  C_4
REMARK    3  A    between atoms: C_18  and  C_19
REMARK    4  A    between atoms: C_24  and  C_25
REMARK                            x       y       z     vdW  Elec       q    Type
REMARK                         _______ _______ _______ _____ _____    ______ ____
ROOT
ATOM      1  C   UNL     1       1.121   9.298  18.773  0.00  0.00    +0.000 A 
ATOM      2  C   UNL     1       0.135  10.133  18.183  0.00  0.00    +0.000 A 
ATOM      3  C   UNL     1      -0.497  10.741  19.226  0.00  0.00    +0.000 A 
ATOM      4  N   UNL     1       0.059  10.220  20.368  0.00  0.00    +0.000 N 
ATOM      5  N   UNL     1       1.087   9.367  20.121  0.00  0.00    +0.000 NA
ATOM      6  C   UNL     1      -0.209  10.760  21.691  0.00  0.00    +0.000 C 
ATOM      7  C   UNL     1      -1.476  11.648  21.684  0.00  0.00    +0.000 C 
ATOM      8  C   UNL     1      -1.545  12.564  20.452  0.00  0.00    +0.000 C 
ATOM      9  N   UNL     1      -1.429  11.724  19.259  0.00  0.00    +0.000 N 
ATOM     10  H   UNL     1      -1.655  12.213  18.393  0.00  0.00    +0.000 HD
ENDROOT
BRANCH   8  11
ATOM     11  C   UNL     1      -0.564  13.732  20.463  0.00  0.00    +0.000 A 
ATOM     12  C   UNL     1      -0.062  14.322  19.289  0.00  0.00    +0.000 A 
ATOM     13  C   UNL     1       0.791  15.426  19.338  0.00  0.00    +0.000 A 
ATOM     14  C   UNL     1       1.156  15.971  20.563  0.00  0.00    +0.000 A 
ATOM     15  C   UNL     1       0.672  15.407  21.740  0.00  0.00    +0.000 A 
ATOM     16  C   UNL     1      -0.180  14.300  21.691  0.00  0.00    +0.000 A 
ENDBRANCH   8  11
BRANCH   1  18
ATOM     17  O   UNL     1       2.631   9.032  17.012  0.00  0.00    +0.000 OA
ATOM     18  C   UNL     1       2.094   8.517  17.992  0.00  0.00    +0.000 C 
ATOM     19  N   UNL     1       2.292   7.211  18.416  0.00  0.00    +0.000 N 
ATOM     20  H   UNL     1       1.645   6.884  19.127  0.00  0.00    +0.000 HD
BRANCH  19  21
ATOM     21  C   UNL     1       3.181   6.292  17.809  0.00  0.00    +0.000 A 
ATOM     22  C   UNL     1       2.911   4.905  17.772  0.00  0.00    +0.000 A 
ATOM     23  C   UNL     1       3.822   3.991  17.235  0.00  0.00    +0.000 A 
ATOM     24  C   UNL     1       4.999   4.490  16.736  0.00  0.00    +0.000 A 
ATOM     25  C   UNL     1       5.263   5.839  16.731  0.00  0.00    +0.000 A 
ATOM     26  C   UNL     1       4.369   6.768  17.239  0.00  0.00    +0.000 A 
ATOM     27  O   UNL     1       6.488   6.113  16.197  0.00  0.00    +0.000 OA
ATOM     28  C   UNL     1       6.977   4.778  15.933  0.00  0.00    +0.000 C 
ATOM     29  O   UNL     1       6.009   3.748  16.212  0.00  0.00    +0.000 OA
ENDBRANCH  19  21
ENDBRANCH   1  18
BRANCH   6  30
ATOM     30  C   UNL     1      -0.309   9.699  22.777  0.00  0.00    +0.000 C 
ATOM     31  F   UNL     1      -0.833   8.519  22.387  0.00  0.00    +0.000 F 
ATOM     32  F   UNL     1       0.924   9.438  23.284  0.00  0.00    +0.000 F 
ATOM     33  F   UNL     1      -1.061  10.120  23.828  0.00  0.00    +0.000 F 
ENDBRANCH   6  30
TORSDOF 4
ENDMDL
