MODEL 1
REMARK VINA RESULT:      -7.9      0.000      0.000
REMARK  Name = 
REMARK  9 active torsions:
REMARK  status: ('A' for Active; 'I' for Inactive)
REMARK    1  A    between atoms: C_1  and  C_2
REMARK    2  A    between atoms: C_2  and  C_3
REMARK    3  A    between atoms: C_3  and  C_4
REMARK    4  A    between atoms: C_4  and  C_5
REMARK    5  A    between atoms: C_5  and  C_6
REMARK    6  A    between atoms: C_6  and  C_7
REMARK    7  A    between atoms: N_9  and  O_10
REMARK    8  A    between atoms: N_9  and  C_11
REMARK    9  A    between atoms: N_15  and  C_16
REMARK                            x       y       z     vdW  Elec       q    Type
REMARK                         _______ _______ _______ _____ _____    ______ ____
ROOT
ATOM      1  C   UNL     1       6.204   5.177  16.532  0.00  0.00    +0.000 C 
ATOM      2  C   UNL     1       7.197   5.307  17.670  0.00  0.00    +0.000 C 
ATOM      3  C   UNL     1       6.384   5.046  18.901  0.00  0.00    +0.000 C 
ATOM      4  O   UNL     1       6.877   5.120  20.025  0.00  0.00    +0.000 OA
ATOM      5  N   UNL     1       5.097   4.730  18.548  0.00  0.00    +0.000 N 
ATOM      6  C   UNL     1       4.904   4.814  17.196  0.00  0.00    +0.000 C 
ATOM      7  O   UNL     1       3.837   4.677  16.579  0.00  0.00    +0.000 OA
ENDROOT
BRANCH   5   8
ATOM      8  C   UNL     1       4.063   4.411  19.464  0.00  0.00    +0.000 A 
ATOM      9  C   UNL     1       3.885   3.091  19.894  0.00  0.00    +0.000 A 
ATOM     10  C   UNL     1       2.841   2.754  20.749  0.00  0.00    +0.000 A 
ATOM     11  C   UNL     1       1.943   3.733  21.170  0.00  0.00    +0.000 A 
ATOM     12  C   UNL     1       2.115   5.053  20.761  0.00  0.00    +0.000 A 
ATOM     13  C   UNL     1       3.184   5.397  19.931  0.00  0.00    +0.000 A 
ENDBRANCH   5   8
BRANCH   1  16
ATOM     14  C   UNL     1       7.001   4.621  14.259  0.00  0.00    +0.000 C 
ATOM     15  O   UNL     1       7.555   5.715  14.109  0.00  0.00    +0.000 OA
ATOM     16  N   UNL     1       6.525   4.205  15.486  0.00  0.00    +0.000 N 
BRANCH  16  17
ATOM     17  O   UNL     1       5.849   2.980  15.600  0.00  0.00    +0.000 OA
ATOM     18  H   UNL     1       5.331   2.939  14.773  0.00  0.00    +0.000 HD
ENDBRANCH  16  17
BRANCH  14  19
ATOM     19  C   UNL     1       6.856   3.658  13.098  0.00  0.00    +0.000 C 
BRANCH  19  20
ATOM     20  C   UNL     1       5.442   3.664  12.530  0.00  0.00    +0.000 C 
BRANCH  20  21
ATOM     21  C   UNL     1       5.200   2.468  11.609  0.00  0.00    +0.000 C 
BRANCH  21  22
ATOM     22  C   UNL     1       3.884   2.633  10.851  0.00  0.00    +0.000 C 
BRANCH  22  24
ATOM     23  C   UNL     1       2.801   4.323   9.338  0.00  0.00    +0.000 C 
ATOM     24  C   UNL     1       3.525   4.105  10.657  0.00  0.00    +0.000 C 
ENDBRANCH  22  24
ENDBRANCH  21  22
ENDBRANCH  20  21
ENDBRANCH  19  20
ENDBRANCH  14  19
ENDBRANCH   1  16
TORSDOF 8
ENDMDL
MODEL 2
REMARK VINA RESULT:      -7.4      0.504      1.137
REMARK  Name = 
REMARK  9 active torsions:
REMARK  status: ('A' for Active; 'I' for Inactive)
REMARK    1  A    between atoms: C_1  and  C_2
REMARK    2  A    between atoms: C_2  and  C_3
REMARK    3  A    between atoms: C_3  and  C_4
REMARK    4  A    between atoms: C_4  and  C_5
REMARK    5  A    between atoms: C_5  and  C_6
REMARK    6  A    between atoms: C_6  and  C_7
REMARK    7  A    between atoms: N_9  and  O_10
REMARK    8  A    between atoms: N_9  and  C_11
REMARK    9  A    between atoms: N_15  and  C_16
REMARK                            x       y       z     vdW  Elec       q    Type
REMARK                         _______ _______ _______ _____ _____    ______ ____
ROOT
ATOM      1  C   UNL     1       5.903   5.049  16.593  0.00  0.00    +0.000 C 
ATOM      2  C   UNL     1       6.935   5.239  17.688  0.00  0.00    +0.000 C 
ATOM      3  C   UNL     1       6.192   4.934  18.952  0.00  0.00    +0.000 C 
ATOM      4  O   UNL     1       6.729   5.039  20.054  0.00  0.00    +0.000 OA
ATOM      5  N   UNL     1       4.913   4.543  18.655  0.00  0.00    +0.000 N 
ATOM      6  C   UNL     1       4.657   4.613  17.313  0.00  0.00    +0.000 C 
ATOM      7  O   UNL     1       3.574   4.413  16.742  0.00  0.00    +0.000 OA
ENDROOT
BRANCH   5   8
ATOM      8  C   UNL     1       3.939   4.166  19.615  0.00  0.00    +0.000 A 
ATOM      9  C   UNL     1       3.025   5.108  20.099  0.00  0.00    +0.000 A 
ATOM     10  C   UNL     1       2.100   4.768  21.080  0.00  0.00    +0.000 A 
ATOM     11  C   UNL     1       2.093   3.478  21.610  0.00  0.00    +0.000 A 
ATOM     12  C   UNL     1       2.989   2.526  21.131  0.00  0.00    +0.000 A 
ATOM     13  C   UNL     1       3.893   2.860  20.120  0.00  0.00    +0.000 A 
ENDBRANCH   5   8
BRANCH   1  16
ATOM     14  C   UNL     1       6.513   4.531  14.254  0.00  0.00    +0.000 C 
ATOM     15  O   UNL     1       6.895   5.683  14.024  0.00  0.00    +0.000 OA
ATOM     16  N   UNL     1       6.235   4.096  15.534  0.00  0.00    +0.000 N 
BRANCH  16  17
ATOM     17  O   UNL     1       5.747   2.796  15.744  0.00  0.00    +0.000 OA
ATOM     18  H   UNL     1       5.643   2.757  16.714  0.00  0.00    +0.000 HD
ENDBRANCH  16  17
BRANCH  14  19
ATOM     19  C   UNL     1       6.372   3.522  13.133  0.00  0.00    +0.000 C 
BRANCH  19  20
ATOM     20  C   UNL     1       4.938   3.436  12.625  0.00  0.00    +0.000 C 
BRANCH  20  21
ATOM     21  C   UNL     1       4.862   2.732  11.270  0.00  0.00    +0.000 C 
BRANCH  21  22
ATOM     22  C   UNL     1       4.399   3.703  10.186  0.00  0.00    +0.000 C 
BRANCH  22  24
ATOM     23  C   UNL     1       2.429   4.746   9.027  0.00  0.00    +0.000 C 
ATOM     24  C   UNL     1       2.877   3.733  10.067  0.00  0.00    +0.000 C 
ENDBRANCH  22  24
ENDBRANCH  21  22
ENDBRANCH  20  21
ENDBRANCH  19  20
ENDBRANCH  14  19
ENDBRANCH   1  16
TORSDOF 8
ENDMDL
MODEL 3
REMARK VINA RESULT:      -7.4      3.742      6.855
REMARK  Name = 
REMARK  9 active torsions:
REMARK  status: ('A' for Active; 'I' for Inactive)
REMARK    1  A    between atoms: C_1  and  C_2
REMARK    2  A    between atoms: C_2  and  C_3
REMARK    3  A    between atoms: C_3  and  C_4
REMARK    4  A    between atoms: C_4  and  C_5
REMARK    5  A    between atoms: C_5  and  C_6
REMARK    6  A    between atoms: C_6  and  C_7
REMARK    7  A    between atoms: N_9  and  O_10
REMARK    8  A    between atoms: N_9  and  C_11
REMARK    9  A    between atoms: N_15  and  C_16
REMARK                            x       y       z     vdW  Elec       q    Type
REMARK                         _______ _______ _______ _____ _____    ______ ____
ROOT
ATOM      1  C   UNL     1       7.273   5.034  17.863  0.00  0.00    +0.000 C 
ATOM      2  C   UNL     1       6.950   5.139  16.386  0.00  0.00    +0.000 C 
ATOM      3  C   UNL     1       5.551   4.614  16.276  0.00  0.00    +0.000 C 
ATOM      4  O   UNL     1       4.986   4.514  15.189  0.00  0.00    +0.000 OA
ATOM      5  N   UNL     1       5.073   4.305  17.523  0.00  0.00    +0.000 N 
ATOM      6  C   UNL     1       6.020   4.490  18.493  0.00  0.00    +0.000 C 
ATOM      7  O   UNL     1       5.926   4.216  19.699  0.00  0.00    +0.000 OA
ENDROOT
BRANCH   5   8
ATOM      8  C   UNL     1       3.776   3.796  17.788  0.00  0.00    +0.000 A 
ATOM      9  C   UNL     1       3.577   2.419  17.936  0.00  0.00    +0.000 A 
ATOM     10  C   UNL     1       2.303   1.900  18.142  0.00  0.00    +0.000 A 
ATOM     11  C   UNL     1       1.202   2.754  18.179  0.00  0.00    +0.000 A 
ATOM     12  C   UNL     1       1.386   4.128  18.045  0.00  0.00    +0.000 A 
ATOM     13  C   UNL     1       2.669   4.651  17.874  0.00  0.00    +0.000 A 
ENDBRANCH   5   8
BRANCH   1  16
ATOM     14  C   UNL     1       7.771   7.455  17.842  0.00  0.00    +0.000 C 
ATOM     15  O   UNL     1       7.148   7.646  16.792  0.00  0.00    +0.000 OA
ATOM     16  N   UNL     1       7.683   6.267  18.538  0.00  0.00    +0.000 N 
BRANCH  16  17
ATOM     17  O   UNL     1       8.454   6.071  19.695  0.00  0.00    +0.000 OA
ATOM     18  H   UNL     1       8.737   5.139  19.613  0.00  0.00    +0.000 HD
ENDBRANCH  16  17
BRANCH  14  19
ATOM     19  C   UNL     1       8.633   8.547  18.442  0.00  0.00    +0.000 C 
BRANCH  19  20
ATOM     20  C   UNL     1       8.211   9.930  17.961  0.00  0.00    +0.000 C 
BRANCH  20  21
ATOM     21  C   UNL     1       9.301  10.972  18.217  0.00  0.00    +0.000 C 
BRANCH  21  22
ATOM     22  C   UNL     1       9.932  10.760  19.592  0.00  0.00    +0.000 C 
BRANCH  22  24
ATOM     23  C   UNL     1      12.167  11.867  19.894  0.00  0.00    +0.000 C 
ATOM     24  C   UNL     1      10.665  12.009  20.075  0.00  0.00    +0.000 C 
ENDBRANCH  22  24
ENDBRANCH  21  22
ENDBRANCH  20  21
ENDBRANCH  19  20
ENDBRANCH  14  19
ENDBRANCH   1  16
TORSDOF 8
ENDMDL
MODEL 4
REMARK VINA RESULT:      -7.4      2.387      3.456
REMARK  Name = 
REMARK  9 active torsions:
REMARK  status: ('A' for Active; 'I' for Inactive)
REMARK    1  A    between atoms: C_1  and  C_2
REMARK    2  A    between atoms: C_2  and  C_3
REMARK    3  A    between atoms: C_3  and  C_4
REMARK    4  A    between atoms: C_4  and  C_5
REMARK    5  A    between atoms: C_5  and  C_6
REMARK    6  A    between atoms: C_6  and  C_7
REMARK    7  A    between atoms: N_9  and  O_10
REMARK    8  A    between atoms: N_9  and  C_11
REMARK    9  A    between atoms: N_15  and  C_16
REMARK                            x       y       z     vdW  Elec       q    Type
REMARK                         _______ _______ _______ _____ _____    ______ ____
ROOT
ATOM      1  C   UNL     1       4.757   5.019  16.995  0.00  0.00    +0.000 C 
ATOM      2  C   UNL     1       3.573   4.098  17.216  0.00  0.00    +0.000 C 
ATOM      3  C   UNL     1       2.561   4.958  17.909  0.00  0.00    +0.000 C 
ATOM      4  O   UNL     1       1.481   4.505  18.283  0.00  0.00    +0.000 OA
ATOM      5  N   UNL     1       3.039   6.237  18.023  0.00  0.00    +0.000 N 
ATOM      6  C   UNL     1       4.317   6.348  17.546  0.00  0.00    +0.000 C 
ATOM      7  O   UNL     1       5.053   7.346  17.589  0.00  0.00    +0.000 OA
ENDROOT
BRANCH   5   8
ATOM      8  C   UNL     1       2.333   7.315  18.615  0.00  0.00    +0.000 A 
ATOM      9  C   UNL     1       1.900   8.390  17.831  0.00  0.00    +0.000 A 
ATOM     10  C   UNL     1       1.255   9.479  18.406  0.00  0.00    +0.000 A 
ATOM     11  C   UNL     1       1.054   9.519  19.785  0.00  0.00    +0.000 A 
ATOM     12  C   UNL     1       1.469   8.452  20.577  0.00  0.00    +0.000 A 
ATOM     13  C   UNL     1       2.085   7.343  19.994  0.00  0.00    +0.000 A 
ENDBRANCH   5   8
BRANCH   1  16
ATOM     14  C   UNL     1       6.084   4.252  15.056  0.00  0.00    +0.000 C 
ATOM     15  O   UNL     1       6.178   3.098  15.487  0.00  0.00    +0.000 OA
ATOM     16  N   UNL     1       5.223   5.173  15.616  0.00  0.00    +0.000 N 
BRANCH  16  17
ATOM     17  O   UNL     1       5.190   6.490  15.132  0.00  0.00    +0.000 OA
ATOM     18  H   UNL     1       6.125   6.662  14.905  0.00  0.00    +0.000 HD
ENDBRANCH  16  17
BRANCH  14  19
ATOM     19  C   UNL     1       6.888   4.698  13.852  0.00  0.00    +0.000 C 
BRANCH  19  20
ATOM     20  C   UNL     1       6.526   3.902  12.603  0.00  0.00    +0.000 C 
BRANCH  20  21
ATOM     21  C   UNL     1       5.013   3.759  12.445  0.00  0.00    +0.000 C 
BRANCH  21  22
ATOM     22  C   UNL     1       4.680   2.901  11.225  0.00  0.00    +0.000 C 
BRANCH  22  24
ATOM     23  C   UNL     1       3.104   4.121   9.695  0.00  0.00    +0.000 C 
ATOM     24  C   UNL     1       3.227   3.076  10.792  0.00  0.00    +0.000 C 
ENDBRANCH  22  24
ENDBRANCH  21  22
ENDBRANCH  20  21
ENDBRANCH  19  20
ENDBRANCH  14  19
ENDBRANCH   1  16
TORSDOF 8
ENDMDL
MODEL 5
REMARK VINA RESULT:      -7.4      3.857      6.688
REMARK  Name = 
REMARK  9 active torsions:
REMARK  status: ('A' for Active; 'I' for Inactive)
REMARK    1  A    between atoms: C_1  and  C_2
REMARK    2  A    between atoms: C_2  and  C_3
REMARK    3  A    between atoms: C_3  and  C_4
REMARK    4  A    between atoms: C_4  and  C_5
REMARK    5  A    between atoms: C_5  and  C_6
REMARK    6  A    between atoms: C_6  and  C_7
REMARK    7  A    between atoms: N_9  and  O_10
REMARK    8  A    between atoms: N_9  and  C_11
REMARK    9  A    between atoms: N_15  and  C_16
REMARK                            x       y       z     vdW  Elec       q    Type
REMARK                         _______ _______ _______ _____ _____    ______ ____
ROOT
ATOM      1  C   UNL     1       7.319   4.988  17.878  0.00  0.00    +0.000 C 
ATOM      2  C   UNL     1       7.051   5.111  16.391  0.00  0.00    +0.000 C 
ATOM      3  C   UNL     1       5.654   4.598  16.224  0.00  0.00    +0.000 C 
ATOM      4  O   UNL     1       5.128   4.512  15.115  0.00  0.00    +0.000 OA
ATOM      5  N   UNL     1       5.127   4.279  17.449  0.00  0.00    +0.000 N 
ATOM      6  C   UNL     1       6.040   4.448  18.455  0.00  0.00    +0.000 C 
ATOM      7  O   UNL     1       5.900   4.162  19.654  0.00  0.00    +0.000 OA
ENDROOT
BRANCH   5   8
ATOM      8  C   UNL     1       3.818   3.778  17.661  0.00  0.00    +0.000 A 
ATOM      9  C   UNL     1       2.731   4.655  17.733  0.00  0.00    +0.000 A 
ATOM     10  C   UNL     1       1.449   4.183  17.995  0.00  0.00    +0.000 A 
ATOM     11  C   UNL     1       1.241   2.822  18.212  0.00  0.00    +0.000 A 
ATOM     12  C   UNL     1       2.311   1.935  18.132  0.00  0.00    +0.000 A 
ATOM     13  C   UNL     1       3.592   2.405  17.834  0.00  0.00    +0.000 A 
ENDBRANCH   5   8
BRANCH   1  16
ATOM     14  C   UNL     1       7.843   7.404  17.898  0.00  0.00    +0.000 C 
ATOM     15  O   UNL     1       7.269   7.610  16.824  0.00  0.00    +0.000 OA
ATOM     16  N   UNL     1       7.713   6.211  18.579  0.00  0.00    +0.000 N 
BRANCH  16  17
ATOM     17  O   UNL     1       8.430   5.997  19.767  0.00  0.00    +0.000 OA
ATOM     18  H   UNL     1       9.260   6.489  19.612  0.00  0.00    +0.000 HD
ENDBRANCH  16  17
BRANCH  14  19
ATOM     19  C   UNL     1       8.691   8.481  18.543  0.00  0.00    +0.000 C 
BRANCH  19  20
ATOM     20  C   UNL     1       8.400   9.858  17.958  0.00  0.00    +0.000 C 
BRANCH  20  21
ATOM     21  C   UNL     1       9.142  10.960  18.714  0.00  0.00    +0.000 C 
BRANCH  21  22
ATOM     22  C   UNL     1      10.430  11.337  17.984  0.00  0.00    +0.000 C 
BRANCH  22  24
ATOM     23  C   UNL     1      11.325  13.255  16.630  0.00  0.00    +0.000 C 
ATOM     24  C   UNL     1      10.615  12.850  17.912  0.00  0.00    +0.000 C 
ENDBRANCH  22  24
ENDBRANCH  21  22
ENDBRANCH  20  21
ENDBRANCH  19  20
ENDBRANCH  14  19
ENDBRANCH   1  16
TORSDOF 8
ENDMDL
MODEL 6
REMARK VINA RESULT:      -7.3      1.044      2.040
REMARK  Name = 
REMARK  9 active torsions:
REMARK  status: ('A' for Active; 'I' for Inactive)
REMARK    1  A    between atoms: C_1  and  C_2
REMARK    2  A    between atoms: C_2  and  C_3
REMARK    3  A    between atoms: C_3  and  C_4
REMARK    4  A    between atoms: C_4  and  C_5
REMARK    5  A    between atoms: C_5  and  C_6
REMARK    6  A    between atoms: C_6  and  C_7
REMARK    7  A    between atoms: N_9  and  O_10
REMARK    8  A    between atoms: N_9  and  C_11
REMARK    9  A    between atoms: N_15  and  C_16
REMARK                            x       y       z     vdW  Elec       q    Type
REMARK                         _______ _______ _______ _____ _____    ______ ____
ROOT
ATOM      1  C   UNL     1       6.033   5.098  16.444  0.00  0.00    +0.000 C 
ATOM      2  C   UNL     1       7.014   5.379  17.565  0.00  0.00    +0.000 C 
ATOM      3  C   UNL     1       6.235   5.108  18.815  0.00  0.00    +0.000 C 
ATOM      4  O   UNL     1       6.725   5.287  19.929  0.00  0.00    +0.000 OA
ATOM      5  N   UNL     1       4.983   4.655  18.491  0.00  0.00    +0.000 N 
ATOM      6  C   UNL     1       4.776   4.650  17.139  0.00  0.00    +0.000 C 
ATOM      7  O   UNL     1       3.724   4.382  16.539  0.00  0.00    +0.000 OA
ENDROOT
BRANCH   5   8
ATOM      8  C   UNL     1       3.987   4.289  19.432  0.00  0.00    +0.000 A 
ATOM      9  C   UNL     1       3.087   5.246  19.914  0.00  0.00    +0.000 A 
ATOM     10  C   UNL     1       2.140   4.915  20.877  0.00  0.00    +0.000 A 
ATOM     11  C   UNL     1       2.097   3.620  21.392  0.00  0.00    +0.000 A 
ATOM     12  C   UNL     1       2.978   2.654  20.915  0.00  0.00    +0.000 A 
ATOM     13  C   UNL     1       3.905   2.979  19.922  0.00  0.00    +0.000 A 
ENDBRANCH   5   8
BRANCH   1  16
ATOM     14  C   UNL     1       6.800   4.495  14.173  0.00  0.00    +0.000 C 
ATOM     15  O   UNL     1       7.192   5.640  13.924  0.00  0.00    +0.000 OA
ATOM     16  N   UNL     1       6.440   4.106  15.447  0.00  0.00    +0.000 N 
BRANCH  16  17
ATOM     17  O   UNL     1       5.944   2.812  15.674  0.00  0.00    +0.000 OA
ATOM     18  H   UNL     1       6.142   2.353  14.835  0.00  0.00    +0.000 HD
ENDBRANCH  16  17
BRANCH  14  19
ATOM     19  C   UNL     1       6.739   3.442  13.085  0.00  0.00    +0.000 C 
BRANCH  19  20
ATOM     20  C   UNL     1       5.413   3.480  12.334  0.00  0.00    +0.000 C 
BRANCH  20  21
ATOM     21  C   UNL     1       5.204   2.218  11.497  0.00  0.00    +0.000 C 
BRANCH  21  22
ATOM     22  C   UNL     1       6.531   1.739  10.909  0.00  0.00    +0.000 C 
BRANCH  22  24
ATOM     23  C   UNL     1       5.818  -0.649  11.230  0.00  0.00    +0.000 C 
ATOM     24  C   UNL     1       6.926   0.368  11.451  0.00  0.00    +0.000 C 
ENDBRANCH  22  24
ENDBRANCH  21  22
ENDBRANCH  20  21
ENDBRANCH  19  20
ENDBRANCH  14  19
ENDBRANCH   1  16
TORSDOF 8
ENDMDL
MODEL 7
REMARK VINA RESULT:      -7.2      0.984      1.721
REMARK  Name = 
REMARK  9 active torsions:
REMARK  status: ('A' for Active; 'I' for Inactive)
REMARK    1  A    between atoms: C_1  and  C_2
REMARK    2  A    between atoms: C_2  and  C_3
REMARK    3  A    between atoms: C_3  and  C_4
REMARK    4  A    between atoms: C_4  and  C_5
REMARK    5  A    between atoms: C_5  and  C_6
REMARK    6  A    between atoms: C_6  and  C_7
REMARK    7  A    between atoms: N_9  and  O_10
REMARK    8  A    between atoms: N_9  and  C_11
REMARK    9  A    between atoms: N_15  and  C_16
REMARK                            x       y       z     vdW  Elec       q    Type
REMARK                         _______ _______ _______ _____ _____    ______ ____
ROOT
ATOM      1  C   UNL     1       6.384   5.239  16.675  0.00  0.00    +0.000 C 
ATOM      2  C   UNL     1       7.344   5.265  17.848  0.00  0.00    +0.000 C 
ATOM      3  C   UNL     1       6.472   5.031  19.044  0.00  0.00    +0.000 C 
ATOM      4  O   UNL     1       6.929   5.037  20.185  0.00  0.00    +0.000 OA
ATOM      5  N   UNL     1       5.179   4.820  18.640  0.00  0.00    +0.000 N 
ATOM      6  C   UNL     1       5.040   4.955  17.285  0.00  0.00    +0.000 C 
ATOM      7  O   UNL     1       3.988   4.914  16.629  0.00  0.00    +0.000 OA
ENDROOT
BRANCH   5   8
ATOM      8  C   UNL     1       4.093   4.553  19.511  0.00  0.00    +0.000 A 
ATOM      9  C   UNL     1       3.927   3.277  20.060  0.00  0.00    +0.000 A 
ATOM     10  C   UNL     1       2.837   2.985  20.873  0.00  0.00    +0.000 A 
ATOM     11  C   UNL     1       1.880   3.965  21.130  0.00  0.00    +0.000 A 
ATOM     12  C   UNL     1       2.036   5.243  20.600  0.00  0.00    +0.000 A 
ATOM     13  C   UNL     1       3.150   5.545  19.813  0.00  0.00    +0.000 A 
ENDBRANCH   5   8
BRANCH   1  16
ATOM     14  C   UNL     1       7.031   4.703  14.350  0.00  0.00    +0.000 C 
ATOM     15  O   UNL     1       7.520   5.821  14.153  0.00  0.00    +0.000 OA
ATOM     16  N   UNL     1       6.671   4.275  15.611  0.00  0.00    +0.000 N 
BRANCH  16  17
ATOM     17  O   UNL     1       6.064   3.021  15.782  0.00  0.00    +0.000 OA
ATOM     18  H   UNL     1       6.448   2.492  15.055  0.00  0.00    +0.000 HD
ENDBRANCH  16  17
BRANCH  14  19
ATOM     19  C   UNL     1       6.844   3.726  13.208  0.00  0.00    +0.000 C 
BRANCH  19  20
ATOM     20  C   UNL     1       5.391   3.657  12.753  0.00  0.00    +0.000 C 
BRANCH  20  21
ATOM     21  C   UNL     1       5.215   2.705  11.570  0.00  0.00    +0.000 C 
BRANCH  21  22
ATOM     22  C   UNL     1       6.406   1.753  11.467  0.00  0.00    +0.000 C 
BRANCH  22  24
ATOM     23  C   UNL     1       6.017  -0.729  11.469  0.00  0.00    +0.000 C 
ATOM     24  C   UNL     1       6.078   0.528  10.617  0.00  0.00    +0.000 C 
ENDBRANCH  22  24
ENDBRANCH  21  22
ENDBRANCH  20  21
ENDBRANCH  19  20
ENDBRANCH  14  19
ENDBRANCH   1  16
TORSDOF 8
ENDMDL
MODEL 8
REMARK VINA RESULT:      -7.1      3.299      6.299
REMARK  Name = 
REMARK  9 active torsions:
REMARK  status: ('A' for Active; 'I' for Inactive)
REMARK    1  A    between atoms: C_1  and  C_2
REMARK    2  A    between atoms: C_2  and  C_3
REMARK    3  A    between atoms: C_3  and  C_4
REMARK    4  A    between atoms: C_4  and  C_5
REMARK    5  A    between atoms: C_5  and  C_6
REMARK    6  A    between atoms: C_6  and  C_7
REMARK    7  A    between atoms: N_9  and  O_10
REMARK    8  A    between atoms: N_9  and  C_11
REMARK    9  A    between atoms: N_15  and  C_16
REMARK                            x       y       z     vdW  Elec       q    Type
REMARK                         _______ _______ _______ _____ _____    ______ ____
ROOT
ATOM      1  C   UNL     1       6.066   4.773  17.274  0.00  0.00    +0.000 C 
ATOM      2  C   UNL     1       5.148   4.079  16.286  0.00  0.00    +0.000 C 
ATOM      3  C   UNL     1       3.972   3.653  17.111  0.00  0.00    +0.000 C 
ATOM      4  O   UNL     1       3.045   3.010  16.624  0.00  0.00    +0.000 OA
ATOM      5  N   UNL     1       4.126   4.095  18.400  0.00  0.00    +0.000 N 
ATOM      6  C   UNL     1       5.327   4.725  18.583  0.00  0.00    +0.000 C 
ATOM      7  O   UNL     1       5.798   5.154  19.647  0.00  0.00    +0.000 OA
ENDROOT
BRANCH   5   8
ATOM      8  C   UNL     1       3.192   3.881  19.445  0.00  0.00    +0.000 A 
ATOM      9  C   UNL     1       3.397   2.856  20.375  0.00  0.00    +0.000 A 
ATOM     10  C   UNL     1       2.463   2.598  21.372  0.00  0.00    +0.000 A 
ATOM     11  C   UNL     1       1.292   3.353  21.438  0.00  0.00    +0.000 A 
ATOM     12  C   UNL     1       1.079   4.384  20.528  0.00  0.00    +0.000 A 
ATOM     13  C   UNL     1       2.035   4.664  19.549  0.00  0.00    +0.000 A 
ENDBRANCH   5   8
BRANCH   1  16
ATOM     14  C   UNL     1       7.420   6.797  17.695  0.00  0.00    +0.000 C 
ATOM     15  O   UNL     1       8.274   6.178  18.339  0.00  0.00    +0.000 OA
ATOM     16  N   UNL     1       6.449   6.151  16.960  0.00  0.00    +0.000 N 
BRANCH  16  17
ATOM     17  O   UNL     1       5.462   6.893  16.291  0.00  0.00    +0.000 OA
ATOM     18  H   UNL     1       4.658   6.354  16.421  0.00  0.00    +0.000 HD
ENDBRANCH  16  17
BRANCH  14  19
ATOM     19  C   UNL     1       7.430   8.311  17.650  0.00  0.00    +0.000 C 
BRANCH  19  20
ATOM     20  C   UNL     1       8.573   8.895  18.472  0.00  0.00    +0.000 C 
BRANCH  20  21
ATOM     21  C   UNL     1       8.833  10.359  18.115  0.00  0.00    +0.000 C 
BRANCH  21  22
ATOM     22  C   UNL     1       9.567  11.066  19.254  0.00  0.00    +0.000 C 
BRANCH  22  24
ATOM     23  C   UNL     1      10.978  12.291  17.575  0.00  0.00    +0.000 C 
ATOM     24  C   UNL     1      10.984  11.465  18.851  0.00  0.00    +0.000 C 
ENDBRANCH  22  24
ENDBRANCH  21  22
ENDBRANCH  20  21
ENDBRANCH  19  20
ENDBRANCH  14  19
ENDBRANCH   1  16
TORSDOF 8
ENDMDL
MODEL 9
REMARK VINA RESULT:      -7.0      1.563      2.117
REMARK  Name = 
REMARK  9 active torsions:
REMARK  status: ('A' for Active; 'I' for Inactive)
REMARK    1  A    between atoms: C_1  and  C_2
REMARK    2  A    between atoms: C_2  and  C_3
REMARK    3  A    between atoms: C_3  and  C_4
REMARK    4  A    between atoms: C_4  and  C_5
REMARK    5  A    between atoms: C_5  and  C_6
REMARK    6  A    between atoms: C_6  and  C_7
REMARK    7  A    between atoms: N_9  and  O_10
REMARK    8  A    between atoms: N_9  and  C_11
REMARK    9  A    between atoms: N_15  and  C_16
REMARK                            x       y       z     vdW  Elec       q    Type
REMARK                         _______ _______ _______ _____ _____    ______ ____
ROOT
ATOM      1  C   UNL     1       5.963   5.688  17.842  0.00  0.00    +0.000 C 
ATOM      2  C   UNL     1       6.507   4.518  18.637  0.00  0.00    +0.000 C 
ATOM      3  C   UNL     1       5.287   3.849  19.191  0.00  0.00    +0.000 C 
ATOM      4  O   UNL     1       5.371   2.874  19.936  0.00  0.00    +0.000 OA
ATOM      5  N   UNL     1       4.162   4.484  18.734  0.00  0.00    +0.000 N 
ATOM      6  C   UNL     1       4.469   5.578  17.972  0.00  0.00    +0.000 C 
ATOM      7  O   UNL     1       3.680   6.406  17.491  0.00  0.00    +0.000 OA
ENDROOT
BRANCH   5   8
ATOM      8  C   UNL     1       2.834   4.103  19.050  0.00  0.00    +0.000 A 
ATOM      9  C   UNL     1       2.212   4.603  20.200  0.00  0.00    +0.000 A 
ATOM     10  C   UNL     1       0.930   4.197  20.553  0.00  0.00    +0.000 A 
ATOM     11  C   UNL     1       0.257   3.261  19.769  0.00  0.00    +0.000 A 
ATOM     12  C   UNL     1       0.858   2.763  18.616  0.00  0.00    +0.000 A 
ATOM     13  C   UNL     1       2.131   3.199  18.243  0.00  0.00    +0.000 A 
ENDBRANCH   5   8
BRANCH   1  16
ATOM     14  C   UNL     1       6.001   4.750  15.556  0.00  0.00    +0.000 C 
ATOM     15  O   UNL     1       5.057   3.985  15.777  0.00  0.00    +0.000 OA
ATOM     16  N   UNL     1       6.344   5.760  16.430  0.00  0.00    +0.000 N 
BRANCH  16  17
ATOM     17  O   UNL     1       7.461   6.569  16.168  0.00  0.00    +0.000 OA
ATOM     18  H   UNL     1       8.165   6.147  16.697  0.00  0.00    +0.000 HD
ENDBRANCH  16  17
BRANCH  14  19
ATOM     19  C   UNL     1       6.805   4.639  14.277  0.00  0.00    +0.000 C 
BRANCH  19  20
ATOM     20  C   UNL     1       5.921   4.316  13.078  0.00  0.00    +0.000 C 
BRANCH  20  21
ATOM     21  C   UNL     1       6.309   2.984  12.435  0.00  0.00    +0.000 C 
BRANCH  21  22
ATOM     22  C   UNL     1       5.262   2.561  11.405  0.00  0.00    +0.000 C 
BRANCH  22  24
ATOM     23  C   UNL     1       3.192   3.298  10.188  0.00  0.00    +0.000 C 
ATOM     24  C   UNL     1       4.038   3.473  11.438  0.00  0.00    +0.000 C 
ENDBRANCH  22  24
ENDBRANCH  21  22
ENDBRANCH  20  21
ENDBRANCH  19  20
ENDBRANCH  14  19
ENDBRANCH   1  16
TORSDOF 8
ENDMDL
