MODEL 1
REMARK VINA RESULT:      -6.4      0.000      0.000
REMARK  Name = 
REMARK  13 active torsions:
REMARK  status: ('A' for Active; 'I' for Inactive)
REMARK    1  A    between atoms: C_1  and  C_2
REMARK    2  A    between atoms: C_7  and  C_8
REMARK    3  A    between atoms: C_8  and  C_9
REMARK    4  A    between atoms: C_8  and  C_10
REMARK    5  A    between atoms: C_11  and  C_12
REMARK    6  A    between atoms: C_13  and  C_14
REMARK    7  A    between atoms: C_14  and  O_15
REMARK    8  A    between atoms: C_14  and  C_16
REMARK    9  A    between atoms: C_16  and  C_17
REMARK   10  A    between atoms: C_17  and  O_18
REMARK   11  A    between atoms: C_17  and  C_19
REMARK   12  A    between atoms: C_19  and  C_20
REMARK   13  A    between atoms: C_23  and  C_24
REMARK                            x       y       z     vdW  Elec       q    Type
REMARK                         _______ _______ _______ _____ _____    ______ ____
ROOT
ATOM      1  C   UNL     1       4.598   3.833  17.858  0.00  0.00    +0.000 C 
ATOM      2  C   UNL     1       4.263   5.242  17.523  0.00  0.00    +0.000 A 
ATOM      3  N   UNL     1       4.828   5.734  16.414  0.00  0.00    +0.000 NA
ATOM      4  O   UNL     1       4.434   7.048  16.337  0.00  0.00    +0.000 OA
ATOM      5  C   UNL     1       3.569   7.329  17.342  0.00  0.00    +0.000 A 
ATOM      6  N   UNL     1       2.971   8.519  17.442  0.00  0.00    +0.000 NA
ATOM      7  C   UNL     1       2.096   8.649  18.460  0.00  0.00    +0.000 A 
ATOM      8  C   UNL     1       1.792   7.593  19.347  0.00  0.00    +0.000 A 
ATOM      9  C   UNL     1       2.434   6.311  19.196  0.00  0.00    +0.000 A 
ATOM     10  C   UNL     1       3.383   6.204  18.134  0.00  0.00    +0.000 A 
ENDROOT
BRANCH   9  11
ATOM     11  C   UNL     1       2.106   5.106  20.014  0.00  0.00    +0.000 A 
ATOM     12  C   UNL     1       1.129   4.161  19.631  0.00  0.00    +0.000 A 
ATOM     13  C   UNL     1       0.862   3.020  20.400  0.00  0.00    +0.000 A 
ATOM     14  C   UNL     1       1.616   2.761  21.532  0.00  0.00    +0.000 A 
ATOM     15  F   UNL     1       1.418   1.627  22.215  0.00  0.00    +0.000 F 
ATOM     16  C   UNL     1       2.573   3.666  21.950  0.00  0.00    +0.000 A 
ATOM     17  C   UNL     1       2.764   4.853  21.230  0.00  0.00    +0.000 A 
ENDBRANCH   9  11
BRANCH   7  18
ATOM     18  C   UNL     1       1.481  10.042  18.588  0.00  0.00    +0.000 C 
ATOM     19  C   UNL     1       2.399  11.083  17.943  0.00  0.00    +0.000 C 
ATOM     20  C   UNL     1       0.088  10.126  17.939  0.00  0.00    +0.000 C 
ENDBRANCH   7  18
BRANCH   8  21
ATOM     21  C   UNL     1       0.807   7.781  20.425  0.00  0.00    +0.000 C 
ATOM     22  C   UNL     1       0.860   8.853  21.230  0.00  0.00    +0.000 C 
BRANCH  22  23
ATOM     23  C   UNL     1       0.187   8.988  22.574  0.00  0.00    +0.000 C 
BRANCH  23  24
ATOM     24  O   UNL     1       1.112   9.630  23.470  0.00  0.00    +0.000 OA
ATOM     25  H   UNL     1       1.325   8.985  24.166  0.00  0.00    +0.000 HD
ENDBRANCH  23  24
BRANCH  23  26
ATOM     26  C   UNL     1      -1.106   9.832  22.502  0.00  0.00    +0.000 C 
BRANCH  26  27
ATOM     27  C   UNL     1      -0.946  11.273  23.010  0.00  0.00    +0.000 C 
BRANCH  27  28
ATOM     28  O   UNL     1      -0.059  11.956  22.110  0.00  0.00    +0.000 OA
ATOM     29  H   UNL     1       0.422  12.624  22.628  0.00  0.00    +0.000 HD
ENDBRANCH  27  28
BRANCH  27  30
ATOM     30  C   UNL     1      -2.266  12.025  23.095  0.00  0.00    +0.000 C 
BRANCH  30  31
ATOM     31  C   UNL     1      -2.366  13.159  22.081  0.00  0.00    +0.000 C 
ATOM     32  O   UNL     1      -1.964  14.288  22.468  0.00  0.00    +0.000 OA
ATOM     33  O   UNL     1      -2.847  12.831  20.964  0.00  0.00    +0.000 OA
ENDBRANCH  30  31
ENDBRANCH  27  30
ENDBRANCH  26  27
ENDBRANCH  23  26
ENDBRANCH  22  23
ENDBRANCH   8  21
TORSDOF 10
ENDMDL
MODEL 2
REMARK VINA RESULT:      -6.2      0.674      1.222
REMARK  Name = 
REMARK  13 active torsions:
REMARK  status: ('A' for Active; 'I' for Inactive)
REMARK    1  A    between atoms: C_1  and  C_2
REMARK    2  A    between atoms: C_7  and  C_8
REMARK    3  A    between atoms: C_8  and  C_9
REMARK    4  A    between atoms: C_8  and  C_10
REMARK    5  A    between atoms: C_11  and  C_12
REMARK    6  A    between atoms: C_13  and  C_14
REMARK    7  A    between atoms: C_14  and  O_15
REMARK    8  A    between atoms: C_14  and  C_16
REMARK    9  A    between atoms: C_16  and  C_17
REMARK   10  A    between atoms: C_17  and  O_18
REMARK   11  A    between atoms: C_17  and  C_19
REMARK   12  A    between atoms: C_19  and  C_20
REMARK   13  A    between atoms: C_23  and  C_24
REMARK                            x       y       z     vdW  Elec       q    Type
REMARK                         _______ _______ _______ _____ _____    ______ ____
ROOT
ATOM      1  C   UNL     1       4.630   3.830  17.627  0.00  0.00    +0.000 C 
ATOM      2  C   UNL     1       4.327   5.252  17.318  0.00  0.00    +0.000 A 
ATOM      3  N   UNL     1       4.885   5.746  16.207  0.00  0.00    +0.000 NA
ATOM      4  O   UNL     1       4.525   7.071  16.157  0.00  0.00    +0.000 OA
ATOM      5  C   UNL     1       3.685   7.360  17.182  0.00  0.00    +0.000 A 
ATOM      6  N   UNL     1       3.121   8.562  17.310  0.00  0.00    +0.000 NA
ATOM      7  C   UNL     1       2.267   8.699  18.346  0.00  0.00    +0.000 A 
ATOM      8  C   UNL     1       1.951   7.639  19.222  0.00  0.00    +0.000 A 
ATOM      9  C   UNL     1       2.556   6.342  19.040  0.00  0.00    +0.000 A 
ATOM     10  C   UNL     1       3.483   6.228  17.960  0.00  0.00    +0.000 A 
ENDROOT
BRANCH   9  11
ATOM     11  C   UNL     1       2.211   5.134  19.846  0.00  0.00    +0.000 A 
ATOM     12  C   UNL     1       2.786   4.863  21.107  0.00  0.00    +0.000 A 
ATOM     13  C   UNL     1       2.422   3.739  21.861  0.00  0.00    +0.000 A 
ATOM     14  C   UNL     1       1.421   2.899  21.402  0.00  0.00    +0.000 A 
ATOM     15  F   UNL     1       1.014   1.876  22.164  0.00  0.00    +0.000 F 
ATOM     16  C   UNL     1       0.841   3.119  20.168  0.00  0.00    +0.000 A 
ATOM     17  C   UNL     1       1.282   4.189  19.377  0.00  0.00    +0.000 A 
ENDBRANCH   9  11
BRANCH   7  18
ATOM     18  C   UNL     1       1.691  10.106  18.506  0.00  0.00    +0.000 C 
ATOM     19  C   UNL     1       2.568  11.120  17.766  0.00  0.00    +0.000 C 
ATOM     20  C   UNL     1       0.248  10.208  17.981  0.00  0.00    +0.000 C 
ENDBRANCH   7  18
BRANCH   8  21
ATOM     21  C   UNL     1       0.990   7.835  20.320  0.00  0.00    +0.000 C 
ATOM     22  C   UNL     1       1.202   8.764  21.265  0.00  0.00    +0.000 C 
BRANCH  22  23
ATOM     23  C   UNL     1       0.535   8.821  22.618  0.00  0.00    +0.000 C 
BRANCH  23  24
ATOM     24  O   UNL     1       1.409   9.535  23.512  0.00  0.00    +0.000 OA
ATOM     25  H   UNL     1       2.295   9.522  23.111  0.00  0.00    +0.000 HD
ENDBRANCH  23  24
BRANCH  23  26
ATOM     26  C   UNL     1      -0.829   9.546  22.570  0.00  0.00    +0.000 C 
BRANCH  26  27
ATOM     27  C   UNL     1      -0.734  11.076  22.660  0.00  0.00    +0.000 C 
BRANCH  27  28
ATOM     28  O   UNL     1       0.454  11.480  21.960  0.00  0.00    +0.000 OA
ATOM     29  H   UNL     1       0.553  12.440  22.088  0.00  0.00    +0.000 HD
ENDBRANCH  27  28
BRANCH  27  30
ATOM     30  C   UNL     1      -1.942  11.785  22.066  0.00  0.00    +0.000 C 
BRANCH  30  31
ATOM     31  C   UNL     1      -2.788  12.491  23.120  0.00  0.00    +0.000 C 
ATOM     32  O   UNL     1      -4.024  12.253  23.093  0.00  0.00    +0.000 OA
ATOM     33  O   UNL     1      -2.145  13.242  23.902  0.00  0.00    +0.000 OA
ENDBRANCH  30  31
ENDBRANCH  27  30
ENDBRANCH  26  27
ENDBRANCH  23  26
ENDBRANCH  22  23
ENDBRANCH   8  21
TORSDOF 10
ENDMDL
MODEL 3
REMARK VINA RESULT:      -6.2      0.768      1.036
REMARK  Name = 
REMARK  13 active torsions:
REMARK  status: ('A' for Active; 'I' for Inactive)
REMARK    1  A    between atoms: C_1  and  C_2
REMARK    2  A    between atoms: C_7  and  C_8
REMARK    3  A    between atoms: C_8  and  C_9
REMARK    4  A    between atoms: C_8  and  C_10
REMARK    5  A    between atoms: C_11  and  C_12
REMARK    6  A    between atoms: C_13  and  C_14
REMARK    7  A    between atoms: C_14  and  O_15
REMARK    8  A    between atoms: C_14  and  C_16
REMARK    9  A    between atoms: C_16  and  C_17
REMARK   10  A    between atoms: C_17  and  O_18
REMARK   11  A    between atoms: C_17  and  C_19
REMARK   12  A    between atoms: C_19  and  C_20
REMARK   13  A    between atoms: C_23  and  C_24
REMARK                            x       y       z     vdW  Elec       q    Type
REMARK                         _______ _______ _______ _____ _____    ______ ____
ROOT
ATOM      1  C   UNL     1       4.442   4.046  17.844  0.00  0.00    +0.000 C 
ATOM      2  C   UNL     1       4.120   5.463  17.531  0.00  0.00    +0.000 A 
ATOM      3  N   UNL     1       4.673   5.962  16.420  0.00  0.00    +0.000 NA
ATOM      4  O   UNL     1       4.295   7.281  16.365  0.00  0.00    +0.000 OA
ATOM      5  C   UNL     1       3.451   7.562  17.388  0.00  0.00    +0.000 A 
ATOM      6  N   UNL     1       2.871   8.757  17.512  0.00  0.00    +0.000 NA
ATOM      7  C   UNL     1       2.014   8.886  18.546  0.00  0.00    +0.000 A 
ATOM      8  C   UNL     1       1.711   7.824  19.425  0.00  0.00    +0.000 A 
ATOM      9  C   UNL     1       2.333   6.535  19.248  0.00  0.00    +0.000 A 
ATOM     10  C   UNL     1       3.263   6.429  18.169  0.00  0.00    +0.000 A 
ENDROOT
BRANCH   9  11
ATOM     11  C   UNL     1       2.003   5.324  20.057  0.00  0.00    +0.000 A 
ATOM     12  C   UNL     1       1.044   4.369  19.652  0.00  0.00    +0.000 A 
ATOM     13  C   UNL     1       0.774   3.224  20.413  0.00  0.00    +0.000 A 
ATOM     14  C   UNL     1       1.509   2.970  21.559  0.00  0.00    +0.000 A 
ATOM     15  F   UNL     1       1.310   1.832  22.235  0.00  0.00    +0.000 F 
ATOM     16  C   UNL     1       2.447   3.884  21.998  0.00  0.00    +0.000 A 
ATOM     17  C   UNL     1       2.639   5.076  21.285  0.00  0.00    +0.000 A 
ENDBRANCH   9  11
BRANCH   7  18
ATOM     18  C   UNL     1       1.419  10.285  18.702  0.00  0.00    +0.000 C 
ATOM     19  C   UNL     1       2.377  11.330  18.123  0.00  0.00    +0.000 C 
ATOM     20  C   UNL     1       0.050  10.417  18.011  0.00  0.00    +0.000 C 
ENDBRANCH   7  18
BRANCH   8  21
ATOM     21  C   UNL     1       0.746   8.010  20.521  0.00  0.00    +0.000 C 
ATOM     22  C   UNL     1       0.734   9.141  21.245  0.00  0.00    +0.000 C 
BRANCH  22  23
ATOM     23  C   UNL     1       0.092   9.319  22.600  0.00  0.00    +0.000 C 
BRANCH  23  24
ATOM     24  O   UNL     1       1.143   9.429  23.577  0.00  0.00    +0.000 OA
ATOM     25  H   UNL     1       1.284   8.538  23.940  0.00  0.00    +0.000 HD
ENDBRANCH  23  24
BRANCH  23  26
ATOM     26  C   UNL     1      -0.788  10.588  22.670  0.00  0.00    +0.000 C 
BRANCH  26  27
ATOM     27  C   UNL     1      -0.619  11.539  21.476  0.00  0.00    +0.000 C 
BRANCH  27  28
ATOM     28  O   UNL     1      -1.855  11.544  20.744  0.00  0.00    +0.000 OA
ATOM     29  H   UNL     1      -2.313  10.710  20.944  0.00  0.00    +0.000 HD
ENDBRANCH  27  28
BRANCH  27  30
ATOM     30  C   UNL     1      -0.264  12.960  21.890  0.00  0.00    +0.000 C 
BRANCH  30  31
ATOM     31  C   UNL     1      -1.285  13.567  22.846  0.00  0.00    +0.000 C 
ATOM     32  O   UNL     1      -2.456  13.697  22.401  0.00  0.00    +0.000 OA
ATOM     33  O   UNL     1      -0.832  13.875  23.981  0.00  0.00    +0.000 OA
ENDBRANCH  30  31
ENDBRANCH  27  30
ENDBRANCH  26  27
ENDBRANCH  23  26
ENDBRANCH  22  23
ENDBRANCH   8  21
TORSDOF 10
ENDMDL
MODEL 4
REMARK VINA RESULT:      -6.1      4.374      9.124
REMARK  Name = 
REMARK  13 active torsions:
REMARK  status: ('A' for Active; 'I' for Inactive)
REMARK    1  A    between atoms: C_1  and  C_2
REMARK    2  A    between atoms: C_7  and  C_8
REMARK    3  A    between atoms: C_8  and  C_9
REMARK    4  A    between atoms: C_8  and  C_10
REMARK    5  A    between atoms: C_11  and  C_12
REMARK    6  A    between atoms: C_13  and  C_14
REMARK    7  A    between atoms: C_14  and  O_15
REMARK    8  A    between atoms: C_14  and  C_16
REMARK    9  A    between atoms: C_16  and  C_17
REMARK   10  A    between atoms: C_17  and  O_18
REMARK   11  A    between atoms: C_17  and  C_19
REMARK   12  A    between atoms: C_19  and  C_20
REMARK   13  A    between atoms: C_23  and  C_24
REMARK                            x       y       z     vdW  Elec       q    Type
REMARK                         _______ _______ _______ _____ _____    ______ ____
ROOT
ATOM      1  C   UNL     1      -6.102  13.720  21.836  0.00  0.00    +0.000 C 
ATOM      2  C   UNL     1      -5.938  13.112  20.489  0.00  0.00    +0.000 A 
ATOM      3  N   UNL     1      -7.036  13.068  19.726  0.00  0.00    +0.000 NA
ATOM      4  O   UNL     1      -6.671  12.419  18.571  0.00  0.00    +0.000 OA
ATOM      5  C   UNL     1      -5.343  12.147  18.596  0.00  0.00    +0.000 A 
ATOM      6  N   UNL     1      -4.720  11.596  17.552  0.00  0.00    +0.000 NA
ATOM      7  C   UNL     1      -3.389  11.425  17.690  0.00  0.00    +0.000 A 
ATOM      8  C   UNL     1      -2.681  11.834  18.841  0.00  0.00    +0.000 A 
ATOM      9  C   UNL     1      -3.379  12.453  19.941  0.00  0.00    +0.000 A 
ATOM     10  C   UNL     1      -4.792  12.592  19.790  0.00  0.00    +0.000 A 
ENDROOT
BRANCH   9  11
ATOM     11  C   UNL     1      -2.709  13.011  21.153  0.00  0.00    +0.000 A 
ATOM     12  C   UNL     1      -2.330  14.367  21.264  0.00  0.00    +0.000 A 
ATOM     13  C   UNL     1      -1.732  14.875  22.425  0.00  0.00    +0.000 A 
ATOM     14  C   UNL     1      -1.566  14.055  23.529  0.00  0.00    +0.000 A 
ATOM     15  F   UNL     1      -1.075  14.565  24.665  0.00  0.00    +0.000 F 
ATOM     16  C   UNL     1      -1.910  12.719  23.459  0.00  0.00    +0.000 A 
ATOM     17  C   UNL     1      -2.415  12.197  22.260  0.00  0.00    +0.000 A 
ENDBRANCH   9  11
BRANCH   7  18
ATOM     18  C   UNL     1      -2.716  10.730  16.508  0.00  0.00    +0.000 C 
ATOM     19  C   UNL     1      -2.744   9.212  16.706  0.00  0.00    +0.000 C 
ATOM     20  C   UNL     1      -3.389  11.076  15.168  0.00  0.00    +0.000 C 
ENDBRANCH   7  18
BRANCH   8  21
ATOM     21  C   UNL     1      -1.223  11.650  18.929  0.00  0.00    +0.000 C 
ATOM     22  C   UNL     1      -0.698  10.487  19.347  0.00  0.00    +0.000 C 
BRANCH  22  23
ATOM     23  C   UNL     1       0.713  10.280  19.844  0.00  0.00    +0.000 C 
BRANCH  23  24
ATOM     24  O   UNL     1       1.103  11.457  20.574  0.00  0.00    +0.000 OA
ATOM     25  H   UNL     1       0.763  11.354  21.479  0.00  0.00    +0.000 HD
ENDBRANCH  23  24
BRANCH  23  26
ATOM     26  C   UNL     1       0.831   9.053  20.777  0.00  0.00    +0.000 C 
BRANCH  26  27
ATOM     27  C   UNL     1       1.886   8.027  20.338  0.00  0.00    +0.000 C 
BRANCH  27  28
ATOM     28  O   UNL     1       1.534   6.762  20.922  0.00  0.00    +0.000 OA
ATOM     29  H   UNL     1       1.834   6.777  21.847  0.00  0.00    +0.000 HD
ENDBRANCH  27  28
BRANCH  27  30
ATOM     30  C   UNL     1       1.984   7.882  18.826  0.00  0.00    +0.000 C 
BRANCH  30  31
ATOM     31  C   UNL     1       3.175   7.036  18.390  0.00  0.00    +0.000 C 
ATOM     32  O   UNL     1       3.519   6.113  19.174  0.00  0.00    +0.000 OA
ATOM     33  O   UNL     1       3.683   7.365  17.285  0.00  0.00    +0.000 OA
ENDBRANCH  30  31
ENDBRANCH  27  30
ENDBRANCH  26  27
ENDBRANCH  23  26
ENDBRANCH  22  23
ENDBRANCH   8  21
TORSDOF 10
ENDMDL
MODEL 5
REMARK VINA RESULT:      -6.1      4.892      9.610
REMARK  Name = 
REMARK  13 active torsions:
REMARK  status: ('A' for Active; 'I' for Inactive)
REMARK    1  A    between atoms: C_1  and  C_2
REMARK    2  A    between atoms: C_7  and  C_8
REMARK    3  A    between atoms: C_8  and  C_9
REMARK    4  A    between atoms: C_8  and  C_10
REMARK    5  A    between atoms: C_11  and  C_12
REMARK    6  A    between atoms: C_13  and  C_14
REMARK    7  A    between atoms: C_14  and  O_15
REMARK    8  A    between atoms: C_14  and  C_16
REMARK    9  A    between atoms: C_16  and  C_17
REMARK   10  A    between atoms: C_17  and  O_18
REMARK   11  A    between atoms: C_17  and  C_19
REMARK   12  A    between atoms: C_19  and  C_20
REMARK   13  A    between atoms: C_23  and  C_24
REMARK                            x       y       z     vdW  Elec       q    Type
REMARK                         _______ _______ _______ _____ _____    ______ ____
ROOT
ATOM      1  C   UNL     1      -7.766  13.941  20.897  0.00  0.00    +0.000 C 
ATOM      2  C   UNL     1      -7.124  13.260  19.742  0.00  0.00    +0.000 A 
ATOM      3  N   UNL     1      -7.916  13.003  18.695  0.00  0.00    +0.000 NA
ATOM      4  O   UNL     1      -7.139  12.325  17.787  0.00  0.00    +0.000 OA
ATOM      5  C   UNL     1      -5.864  12.246  18.240  0.00  0.00    +0.000 A 
ATOM      6  N   UNL     1      -4.889  11.709  17.503  0.00  0.00    +0.000 NA
ATOM      7  C   UNL     1      -3.657  11.739  18.053  0.00  0.00    +0.000 A 
ATOM      8  C   UNL     1      -3.394  12.331  19.308  0.00  0.00    +0.000 A 
ATOM      9  C   UNL     1      -4.465  12.929  20.067  0.00  0.00    +0.000 A 
ATOM     10  C   UNL     1      -5.766  12.855  19.484  0.00  0.00    +0.000 A 
ENDROOT
BRANCH   9  11
ATOM     11  C   UNL     1      -4.273  13.667  21.350  0.00  0.00    +0.000 A 
ATOM     12  C   UNL     1      -3.968  15.045  21.404  0.00  0.00    +0.000 A 
ATOM     13  C   UNL     1      -3.825  15.724  22.622  0.00  0.00    +0.000 A 
ATOM     14  C   UNL     1      -4.056  15.057  23.813  0.00  0.00    +0.000 A 
ATOM     15  F   UNL     1      -4.004  15.729  24.969  0.00  0.00    +0.000 F 
ATOM     16  C   UNL     1      -4.344  13.706  23.807  0.00  0.00    +0.000 A 
ATOM     17  C   UNL     1      -4.386  13.013  22.589  0.00  0.00    +0.000 A 
ENDBRANCH   9  11
BRANCH   7  18
ATOM     18  C   UNL     1      -2.576  11.057  17.217  0.00  0.00    +0.000 C 
ATOM     19  C   UNL     1      -2.392   9.608  17.677  0.00  0.00    +0.000 C 
ATOM     20  C   UNL     1      -2.907  11.070  15.713  0.00  0.00    +0.000 C 
ENDBRANCH   7  18
BRANCH   8  21
ATOM     21  C   UNL     1      -2.026  12.362  19.849  0.00  0.00    +0.000 C 
ATOM     22  C   UNL     1      -1.610  11.437  20.729  0.00  0.00    +0.000 C 
BRANCH  22  23
ATOM     23  C   UNL     1      -0.410  11.554  21.638  0.00  0.00    +0.000 C 
BRANCH  23  24
ATOM     24  O   UNL     1      -0.871  11.432  22.996  0.00  0.00    +0.000 OA
ATOM     25  H   UNL     1      -0.087  11.502  23.567  0.00  0.00    +0.000 HD
ENDBRANCH  23  24
BRANCH  23  26
ATOM     26  C   UNL     1       0.640  10.453  21.367  0.00  0.00    +0.000 C 
BRANCH  26  27
ATOM     27  C   UNL     1       0.809  10.094  19.883  0.00  0.00    +0.000 C 
BRANCH  27  28
ATOM     28  O   UNL     1       1.541  11.160  19.258  0.00  0.00    +0.000 OA
ATOM     29  H   UNL     1       0.997  11.494  18.523  0.00  0.00    +0.000 HD
ENDBRANCH  27  28
BRANCH  27  30
ATOM     30  C   UNL     1       1.540   8.777  19.667  0.00  0.00    +0.000 C 
BRANCH  30  31
ATOM     31  C   UNL     1       1.959   8.565  18.217  0.00  0.00    +0.000 C 
ATOM     32  O   UNL     1       2.918   7.773  18.024  0.00  0.00    +0.000 OA
ATOM     33  O   UNL     1       1.290   9.218  17.371  0.00  0.00    +0.000 OA
ENDBRANCH  30  31
ENDBRANCH  27  30
ENDBRANCH  26  27
ENDBRANCH  23  26
ENDBRANCH  22  23
ENDBRANCH   8  21
TORSDOF 10
ENDMDL
MODEL 6
REMARK VINA RESULT:      -6.0      4.387      9.117
REMARK  Name = 
REMARK  13 active torsions:
REMARK  status: ('A' for Active; 'I' for Inactive)
REMARK    1  A    between atoms: C_1  and  C_2
REMARK    2  A    between atoms: C_7  and  C_8
REMARK    3  A    between atoms: C_8  and  C_9
REMARK    4  A    between atoms: C_8  and  C_10
REMARK    5  A    between atoms: C_11  and  C_12
REMARK    6  A    between atoms: C_13  and  C_14
REMARK    7  A    between atoms: C_14  and  O_15
REMARK    8  A    between atoms: C_14  and  C_16
REMARK    9  A    between atoms: C_16  and  C_17
REMARK   10  A    between atoms: C_17  and  O_18
REMARK   11  A    between atoms: C_17  and  C_19
REMARK   12  A    between atoms: C_19  and  C_20
REMARK   13  A    between atoms: C_23  and  C_24
REMARK                            x       y       z     vdW  Elec       q    Type
REMARK                         _______ _______ _______ _____ _____    ______ ____
ROOT
ATOM      1  C   UNL     1      -1.242  15.432  21.994  0.00  0.00    +0.000 C 
ATOM      2  C   UNL     1      -2.304  14.627  21.334  0.00  0.00    +0.000 A 
ATOM      3  N   UNL     1      -3.566  14.973  21.614  0.00  0.00    +0.000 NA
ATOM      4  O   UNL     1      -4.364  14.070  20.956  0.00  0.00    +0.000 OA
ATOM      5  C   UNL     1      -3.598  13.233  20.215  0.00  0.00    +0.000 A 
ATOM      6  N   UNL     1      -4.137  12.314  19.411  0.00  0.00    +0.000 NA
ATOM      7  C   UNL     1      -3.262  11.581  18.691  0.00  0.00    +0.000 A 
ATOM      8  C   UNL     1      -1.867  11.788  18.744  0.00  0.00    +0.000 A 
ATOM      9  C   UNL     1      -1.316  12.809  19.601  0.00  0.00    +0.000 A 
ATOM     10  C   UNL     1      -2.256  13.549  20.381  0.00  0.00    +0.000 A 
ENDROOT
BRANCH   9  11
ATOM     11  C   UNL     1       0.131  13.173  19.651  0.00  0.00    +0.000 A 
ATOM     12  C   UNL     1       0.755  13.973  18.668  0.00  0.00    +0.000 A 
ATOM     13  C   UNL     1       2.107  14.329  18.754  0.00  0.00    +0.000 A 
ATOM     14  C   UNL     1       2.849  13.953  19.861  0.00  0.00    +0.000 A 
ATOM     15  F   UNL     1       4.116  14.368  19.981  0.00  0.00    +0.000 F 
ATOM     16  C   UNL     1       2.283  13.159  20.838  0.00  0.00    +0.000 A 
ATOM     17  C   UNL     1       0.958  12.724  20.695  0.00  0.00    +0.000 A 
ENDBRANCH   9  11
BRANCH   7  18
ATOM     18  C   UNL     1      -3.906  10.493  17.834  0.00  0.00    +0.000 C 
ATOM     19  C   UNL     1      -5.368  10.296  18.246  0.00  0.00    +0.000 C 
ATOM     20  C   UNL     1      -3.845  10.821  16.331  0.00  0.00    +0.000 C 
ENDBRANCH   7  18
BRANCH   8  21
ATOM     21  C   UNL     1      -0.957  10.979  17.916  0.00  0.00    +0.000 C 
ATOM     22  C   UNL     1      -0.155  10.057  18.470  0.00  0.00    +0.000 C 
BRANCH  22  23
ATOM     23  C   UNL     1       1.067   9.443  17.829  0.00  0.00    +0.000 C 
BRANCH  23  24
ATOM     24  O   UNL     1       1.971  10.510  17.491  0.00  0.00    +0.000 OA
ATOM     25  H   UNL     1       1.518  11.343  17.705  0.00  0.00    +0.000 HD
ENDBRANCH  23  24
BRANCH  23  26
ATOM     26  C   UNL     1       1.791   8.455  18.772  0.00  0.00    +0.000 C 
BRANCH  26  27
ATOM     27  C   UNL     1       2.402   7.239  18.060  0.00  0.00    +0.000 C 
BRANCH  27  28
ATOM     28  O   UNL     1       3.693   7.627  17.564  0.00  0.00    +0.000 OA
ATOM     29  H   UNL     1       3.752   7.326  16.641  0.00  0.00    +0.000 HD
ENDBRANCH  27  28
BRANCH  27  30
ATOM     30  C   UNL     1       2.548   6.027  18.969  0.00  0.00    +0.000 C 
BRANCH  30  31
ATOM     31  C   UNL     1       3.822   5.236  18.698  0.00  0.00    +0.000 C 
ATOM     32  O   UNL     1       4.787   5.450  19.478  0.00  0.00    +0.000 OA
ATOM     33  O   UNL     1       3.761   4.453  17.712  0.00  0.00    +0.000 OA
ENDBRANCH  30  31
ENDBRANCH  27  30
ENDBRANCH  26  27
ENDBRANCH  23  26
ENDBRANCH  22  23
ENDBRANCH   8  21
TORSDOF 10
ENDMDL
MODEL 7
REMARK VINA RESULT:      -5.9      6.001      9.044
REMARK  Name = 
REMARK  13 active torsions:
REMARK  status: ('A' for Active; 'I' for Inactive)
REMARK    1  A    between atoms: C_1  and  C_2
REMARK    2  A    between atoms: C_7  and  C_8
REMARK    3  A    between atoms: C_8  and  C_9
REMARK    4  A    between atoms: C_8  and  C_10
REMARK    5  A    between atoms: C_11  and  C_12
REMARK    6  A    between atoms: C_13  and  C_14
REMARK    7  A    between atoms: C_14  and  O_15
REMARK    8  A    between atoms: C_14  and  C_16
REMARK    9  A    between atoms: C_16  and  C_17
REMARK   10  A    between atoms: C_17  and  O_18
REMARK   11  A    between atoms: C_17  and  C_19
REMARK   12  A    between atoms: C_19  and  C_20
REMARK   13  A    between atoms: C_23  and  C_24
REMARK                            x       y       z     vdW  Elec       q    Type
REMARK                         _______ _______ _______ _____ _____    ______ ____
ROOT
ATOM      1  C   UNL     1      -6.746  12.942  21.945  0.00  0.00    +0.000 C 
ATOM      2  C   UNL     1      -6.473  12.415  20.581  0.00  0.00    +0.000 A 
ATOM      3  N   UNL     1      -7.545  12.159  19.823  0.00  0.00    +0.000 NA
ATOM      4  O   UNL     1      -7.064  11.631  18.649  0.00  0.00    +0.000 OA
ATOM      5  C   UNL     1      -5.708  11.644  18.660  0.00  0.00    +0.000 A 
ATOM      6  N   UNL     1      -4.994  11.263  17.599  0.00  0.00    +0.000 NA
ATOM      7  C   UNL     1      -3.656  11.373  17.725  0.00  0.00    +0.000 A 
ATOM      8  C   UNL     1      -3.037  11.893  18.883  0.00  0.00    +0.000 A 
ATOM      9  C   UNL     1      -3.838  12.324  20.002  0.00  0.00    +0.000 A 
ATOM     10  C   UNL     1      -5.250  12.166  19.862  0.00  0.00    +0.000 A 
ENDROOT
BRANCH   9  11
ATOM     11  C   UNL     1      -3.288  12.980  21.225  0.00  0.00    +0.000 A 
ATOM     12  C   UNL     1      -2.881  12.256  22.367  0.00  0.00    +0.000 A 
ATOM     13  C   UNL     1      -2.336  12.892  23.491  0.00  0.00    +0.000 A 
ATOM     14  C   UNL     1      -2.119  14.259  23.470  0.00  0.00    +0.000 A 
ATOM     15  F   UNL     1      -1.518  14.850  24.510  0.00  0.00    +0.000 F 
ATOM     16  C   UNL     1      -2.514  15.008  22.379  0.00  0.00    +0.000 A 
ATOM     17  C   UNL     1      -3.150  14.377  21.300  0.00  0.00    +0.000 A 
ENDBRANCH   9  11
BRANCH   7  18
ATOM     18  C   UNL     1      -2.864  10.865  16.521  0.00  0.00    +0.000 C 
ATOM     19  C   UNL     1      -2.522   9.384  16.705  0.00  0.00    +0.000 C 
ATOM     20  C   UNL     1      -3.634  11.044  15.200  0.00  0.00    +0.000 C 
ENDBRANCH   7  18
BRANCH   8  21
ATOM     21  C   UNL     1      -1.572  12.019  18.958  0.00  0.00    +0.000 C 
ATOM     22  C   UNL     1      -0.818  11.019  19.439  0.00  0.00    +0.000 C 
BRANCH  22  23
ATOM     23  C   UNL     1       0.607  11.137  19.925  0.00  0.00    +0.000 C 
BRANCH  23  24
ATOM     24  O   UNL     1       1.072   9.817  20.258  0.00  0.00    +0.000 OA
ATOM     25  H   UNL     1       0.370   9.196  19.999  0.00  0.00    +0.000 HD
ENDBRANCH  23  24
BRANCH  23  26
ATOM     26  C   UNL     1       1.544  11.742  18.855  0.00  0.00    +0.000 C 
BRANCH  26  27
ATOM     27  C   UNL     1       1.867  13.228  19.068  0.00  0.00    +0.000 C 
BRANCH  27  28
ATOM     28  O   UNL     1       2.140  13.420  20.465  0.00  0.00    +0.000 OA
ATOM     29  H   UNL     1       2.323  14.366  20.598  0.00  0.00    +0.000 HD
ENDBRANCH  27  28
BRANCH  27  30
ATOM     30  C   UNL     1       3.057  13.703  18.246  0.00  0.00    +0.000 C 
BRANCH  30  31
ATOM     31  C   UNL     1       3.173  15.223  18.199  0.00  0.00    +0.000 C 
ATOM     32  O   UNL     1       2.941  15.832  19.276  0.00  0.00    +0.000 OA
ATOM     33  O   UNL     1       3.487  15.697  17.075  0.00  0.00    +0.000 OA
ENDBRANCH  30  31
ENDBRANCH  27  30
ENDBRANCH  26  27
ENDBRANCH  23  26
ENDBRANCH  22  23
ENDBRANCH   8  21
TORSDOF 10
ENDMDL
MODEL 8
REMARK VINA RESULT:      -5.9      4.575      9.045
REMARK  Name = 
REMARK  13 active torsions:
REMARK  status: ('A' for Active; 'I' for Inactive)
REMARK    1  A    between atoms: C_1  and  C_2
REMARK    2  A    between atoms: C_7  and  C_8
REMARK    3  A    between atoms: C_8  and  C_9
REMARK    4  A    between atoms: C_8  and  C_10
REMARK    5  A    between atoms: C_11  and  C_12
REMARK    6  A    between atoms: C_13  and  C_14
REMARK    7  A    between atoms: C_14  and  O_15
REMARK    8  A    between atoms: C_14  and  C_16
REMARK    9  A    between atoms: C_16  and  C_17
REMARK   10  A    between atoms: C_17  and  O_18
REMARK   11  A    between atoms: C_17  and  C_19
REMARK   12  A    between atoms: C_19  and  C_20
REMARK   13  A    between atoms: C_23  and  C_24
REMARK                            x       y       z     vdW  Elec       q    Type
REMARK                         _______ _______ _______ _____ _____    ______ ____
ROOT
ATOM      1  C   UNL     1      -7.164  11.195  18.293  0.00  0.00    +0.000 C 
ATOM      2  C   UNL     1      -6.480  11.718  19.505  0.00  0.00    +0.000 A 
ATOM      3  N   UNL     1      -7.258  11.942  20.570  0.00  0.00    +0.000 NA
ATOM      4  O   UNL     1      -6.438  12.474  21.535  0.00  0.00    +0.000 OA
ATOM      5  C   UNL     1      -5.157  12.493  21.092  0.00  0.00    +0.000 A 
ATOM      6  N   UNL     1      -4.148  12.884  21.875  0.00  0.00    +0.000 NA
ATOM      7  C   UNL     1      -2.919  12.807  21.325  0.00  0.00    +0.000 A 
ATOM      8  C   UNL     1      -2.693  12.310  20.024  0.00  0.00    +0.000 A 
ATOM      9  C   UNL     1      -3.800  11.868  19.213  0.00  0.00    +0.000 A 
ATOM     10  C   UNL     1      -5.096  11.991  19.799  0.00  0.00    +0.000 A 
ENDROOT
BRANCH   9  11
ATOM     11  C   UNL     1      -3.657  11.234  17.869  0.00  0.00    +0.000 A 
ATOM     12  C   UNL     1      -4.132  11.835  16.682  0.00  0.00    +0.000 A 
ATOM     13  C   UNL     1      -3.956  11.236  15.428  0.00  0.00    +0.000 A 
ATOM     14  C   UNL     1      -3.237  10.056  15.323  0.00  0.00    +0.000 A 
ATOM     15  F   UNL     1      -2.996   9.532  14.115  0.00  0.00    +0.000 F 
ATOM     16  C   UNL     1      -2.767   9.428  16.460  0.00  0.00    +0.000 A 
ATOM     17  C   UNL     1      -3.034   9.983  17.719  0.00  0.00    +0.000 A 
ENDBRANCH   9  11
BRANCH   7  18
ATOM     18  C   UNL     1      -1.794  13.326  22.221  0.00  0.00    +0.000 C 
ATOM     19  C   UNL     1      -2.337  14.385  23.184  0.00  0.00    +0.000 C 
ATOM     20  C   UNL     1      -1.128  12.200  23.032  0.00  0.00    +0.000 C 
ENDBRANCH   7  18
BRANCH   8  21
ATOM     21  C   UNL     1      -1.326  12.221  19.483  0.00  0.00    +0.000 C 
ATOM     22  C   UNL     1      -0.702  11.037  19.375  0.00  0.00    +0.000 C 
BRANCH  22  23
ATOM     23  C   UNL     1       0.784  10.830  19.212  0.00  0.00    +0.000 C 
BRANCH  23  24
ATOM     24  O   UNL     1       1.451  11.570  20.251  0.00  0.00    +0.000 OA
ATOM     25  H   UNL     1       2.061  12.187  19.811  0.00  0.00    +0.000 HD
ENDBRANCH  23  24
BRANCH  23  26
ATOM     26  C   UNL     1       1.185   9.341  19.324  0.00  0.00    +0.000 C 
BRANCH  26  27
ATOM     27  C   UNL     1       1.757   8.744  18.029  0.00  0.00    +0.000 C 
BRANCH  27  28
ATOM     28  O   UNL     1       2.029   9.831  17.130  0.00  0.00    +0.000 OA
ATOM     29  H   UNL     1       2.863   9.628  16.673  0.00  0.00    +0.000 HD
ENDBRANCH  27  28
BRANCH  27  30
ATOM     30  C   UNL     1       3.028   7.937  18.254  0.00  0.00    +0.000 C 
BRANCH  30  31
ATOM     31  C   UNL     1       2.747   6.492  18.648  0.00  0.00    +0.000 C 
ATOM     32  O   UNL     1       3.413   6.038  19.615  0.00  0.00    +0.000 OA
ATOM     33  O   UNL     1       1.873   5.912  17.949  0.00  0.00    +0.000 OA
ENDBRANCH  30  31
ENDBRANCH  27  30
ENDBRANCH  26  27
ENDBRANCH  23  26
ENDBRANCH  22  23
ENDBRANCH   8  21
TORSDOF 10
ENDMDL
MODEL 9
REMARK VINA RESULT:      -5.8      4.460      9.284
REMARK  Name = 
REMARK  13 active torsions:
REMARK  status: ('A' for Active; 'I' for Inactive)
REMARK    1  A    between atoms: C_1  and  C_2
REMARK    2  A    between atoms: C_7  and  C_8
REMARK    3  A    between atoms: C_8  and  C_9
REMARK    4  A    between atoms: C_8  and  C_10
REMARK    5  A    between atoms: C_11  and  C_12
REMARK    6  A    between atoms: C_13  and  C_14
REMARK    7  A    between atoms: C_14  and  O_15
REMARK    8  A    between atoms: C_14  and  C_16
REMARK    9  A    between atoms: C_16  and  C_17
REMARK   10  A    between atoms: C_17  and  O_18
REMARK   11  A    between atoms: C_17  and  C_19
REMARK   12  A    between atoms: C_19  and  C_20
REMARK   13  A    between atoms: C_23  and  C_24
REMARK                            x       y       z     vdW  Elec       q    Type
REMARK                         _______ _______ _______ _____ _____    ______ ____
ROOT
ATOM      1  C   UNL     1      -1.511  15.745  22.225  0.00  0.00    +0.000 C 
ATOM      2  C   UNL     1      -2.567  14.930  21.566  0.00  0.00    +0.000 A 
ATOM      3  N   UNL     1      -3.831  15.272  21.839  0.00  0.00    +0.000 NA
ATOM      4  O   UNL     1      -4.622  14.359  21.184  0.00  0.00    +0.000 OA
ATOM      5  C   UNL     1      -3.848  13.522  20.451  0.00  0.00    +0.000 A 
ATOM      6  N   UNL     1      -4.380  12.595  19.651  0.00  0.00    +0.000 NA
ATOM      7  C   UNL     1      -3.498  11.862  18.940  0.00  0.00    +0.000 A 
ATOM      8  C   UNL     1      -2.104  12.077  18.997  0.00  0.00    +0.000 A 
ATOM      9  C   UNL     1      -1.562  13.106  19.849  0.00  0.00    +0.000 A 
ATOM     10  C   UNL     1      -2.509  13.846  20.620  0.00  0.00    +0.000 A 
ENDROOT
BRANCH   9  11
ATOM     11  C   UNL     1      -0.117  13.478  19.902  0.00  0.00    +0.000 A 
ATOM     12  C   UNL     1       0.789  12.908  20.823  0.00  0.00    +0.000 A 
ATOM     13  C   UNL     1       2.148  13.249  20.832  0.00  0.00    +0.000 A 
ATOM     14  C   UNL     1       2.646  14.114  19.872  0.00  0.00    +0.000 A 
ATOM     15  F   UNL     1       3.959  14.369  19.828  0.00  0.00    +0.000 F 
ATOM     16  C   UNL     1       1.793  14.704  18.960  0.00  0.00    +0.000 A 
ATOM     17  C   UNL     1       0.419  14.434  19.022  0.00  0.00    +0.000 A 
ENDBRANCH   9  11
BRANCH   7  18
ATOM     18  C   UNL     1      -4.134  10.764  18.088  0.00  0.00    +0.000 C 
ATOM     19  C   UNL     1      -5.562  10.489  18.566  0.00  0.00    +0.000 C 
ATOM     20  C   UNL     1      -4.164  11.131  16.593  0.00  0.00    +0.000 C 
ENDBRANCH   7  18
BRANCH   8  21
ATOM     21  C   UNL     1      -1.188  11.267  18.177  0.00  0.00    +0.000 C 
ATOM     22  C   UNL     1      -0.447  10.293  18.728  0.00  0.00    +0.000 C 
BRANCH  22  23
ATOM     23  C   UNL     1       0.780   9.658  18.118  0.00  0.00    +0.000 C 
BRANCH  23  24
ATOM     24  O   UNL     1       1.697  10.712  17.773  0.00  0.00    +0.000 OA
ATOM     25  H   UNL     1       1.518  11.452  18.378  0.00  0.00    +0.000 HD
ENDBRANCH  23  24
BRANCH  23  26
ATOM     26  C   UNL     1       1.483   8.685  19.091  0.00  0.00    +0.000 C 
BRANCH  26  27
ATOM     27  C   UNL     1       2.207   7.518  18.401  0.00  0.00    +0.000 C 
BRANCH  27  28
ATOM     28  O   UNL     1       3.178   8.079  17.502  0.00  0.00    +0.000 OA
ATOM     29  H   UNL     1       2.816   8.920  17.173  0.00  0.00    +0.000 HD
ENDBRANCH  27  28
BRANCH  27  30
ATOM     30  C   UNL     1       2.899   6.583  19.381  0.00  0.00    +0.000 C 
BRANCH  30  31
ATOM     31  C   UNL     1       3.469   5.339  18.708  0.00  0.00    +0.000 C 
ATOM     32  O   UNL     1       3.386   5.298  17.452  0.00  0.00    +0.000 OA
ATOM     33  O   UNL     1       3.957   4.485  19.496  0.00  0.00    +0.000 OA
ENDBRANCH  30  31
ENDBRANCH  27  30
ENDBRANCH  26  27
ENDBRANCH  23  26
ENDBRANCH  22  23
ENDBRANCH   8  21
TORSDOF 10
ENDMDL
