MODEL 1
REMARK VINA RESULT:      -7.3      0.000      0.000
REMARK  Name = 
REMARK  7 active torsions:
REMARK  status: ('A' for Active; 'I' for Inactive)
REMARK    1  A    between atoms: C_2  and  C_3
REMARK    2  A    between atoms: C_3  and  O_4
REMARK    3  A    between atoms: O_4  and  C_5
REMARK    4  A    between atoms: C_5  and  C_7
REMARK    5  A    between atoms: C_7  and  O_8
REMARK    6  A    between atoms: O_8  and  C_9
REMARK    7  A    between atoms: N_15  and  C_16
REMARK                            x       y       z     vdW  Elec       q    Type
REMARK                         _______ _______ _______ _____ _____    ______ ____
ROOT
ATOM      1  C   UNL     1       2.908   2.747  18.945  0.00  0.00    +0.000 C 
ENDROOT
BRANCH   1   3
ATOM      2  O   UNL     1       5.202   3.084  19.652  0.00  0.00    +0.000 OA
ATOM      3  C   UNL     1       4.299   3.388  18.877  0.00  0.00    +0.000 C 
ATOM      4  N   UNL     1       4.473   4.300  17.849  0.00  0.00    +0.000 N 
ATOM      5  H   UNL     1       3.619   4.655  17.432  0.00  0.00    +0.000 HD
BRANCH   4   6
ATOM      6  C   UNL     1       5.693   5.101  17.698  0.00  0.00    +0.000 C 
ATOM      7  C   UNL     1       5.389   6.374  16.891  0.00  0.00    +0.000 C 
ATOM      8  C   UNL     1       5.300   5.938  15.435  0.00  0.00    +0.000 C 
ATOM      9  S   UNL     1       6.654   4.798  15.237  0.00  0.00    +0.000 S 
ATOM     10  O   UNL     1       7.816   5.554  14.805  0.00  0.00    +0.000 OA
ATOM     11  O   UNL     1       6.182   3.637  14.516  0.00  0.00    +0.000 OA
ATOM     12  C   UNL     1       6.848   4.398  16.964  0.00  0.00    +0.000 C 
ENDBRANCH   4   6
ENDBRANCH   1   3
BRANCH   1  13
ATOM     13  O   UNL     1       1.958   3.800  19.068  0.00  0.00    +0.000 OA
BRANCH  13  14
ATOM     14  C   UNL     1       1.531   3.972  20.351  0.00  0.00    +0.000 C 
ATOM     15  O   UNL     1       0.918   3.128  20.997  0.00  0.00    +0.000 OA
BRANCH  14  16
ATOM     16  C   UNL     1       1.778   5.403  20.776  0.00  0.00    +0.000 C 
BRANCH  16  17
ATOM     17  O   UNL     1       2.592   6.090  19.845  0.00  0.00    +0.000 OA
BRANCH  17  18
ATOM     18  C   UNL     1       2.148   7.344  19.519  0.00  0.00    +0.000 A 
ATOM     19  C   UNL     1       2.454   7.765  18.225  0.00  0.00    +0.000 A 
ATOM     20  C   UNL     1       2.050   9.024  17.778  0.00  0.00    +0.000 A 
ATOM     21  C   UNL     1       1.319   9.860  18.622  0.00  0.00    +0.000 A 
ATOM     22  C   UNL     1       0.993   9.436  19.907  0.00  0.00    +0.000 A 
ATOM     23  C   UNL     1       1.403   8.179  20.356  0.00  0.00    +0.000 A 
ENDBRANCH  17  18
ENDBRANCH  16  17
ENDBRANCH  14  16
ENDBRANCH  13  14
ENDBRANCH   1  13
TORSDOF 7
ENDMDL
MODEL 2
REMARK VINA RESULT:      -7.1      1.533      1.912
REMARK  Name = 
REMARK  7 active torsions:
REMARK  status: ('A' for Active; 'I' for Inactive)
REMARK    1  A    between atoms: C_2  and  C_3
REMARK    2  A    between atoms: C_3  and  O_4
REMARK    3  A    between atoms: O_4  and  C_5
REMARK    4  A    between atoms: C_5  and  C_7
REMARK    5  A    between atoms: C_7  and  O_8
REMARK    6  A    between atoms: O_8  and  C_9
REMARK    7  A    between atoms: N_15  and  C_16
REMARK                            x       y       z     vdW  Elec       q    Type
REMARK                         _______ _______ _______ _____ _____    ______ ____
ROOT
ATOM      1  C   UNL     1       3.298   2.574  19.458  0.00  0.00    +0.000 C 
ENDROOT
BRANCH   1   3
ATOM      2  O   UNL     1       2.920   3.045  17.111  0.00  0.00    +0.000 OA
ATOM      3  C   UNL     1       3.516   3.334  18.144  0.00  0.00    +0.000 C 
ATOM      4  N   UNL     1       4.399   4.398  18.224  0.00  0.00    +0.000 N 
ATOM      5  H   UNL     1       5.009   4.399  19.035  0.00  0.00    +0.000 HD
BRANCH   4   6
ATOM      6  C   UNL     1       4.824   5.165  17.048  0.00  0.00    +0.000 C 
ATOM      7  C   UNL     1       5.859   4.363  16.242  0.00  0.00    +0.000 C 
ATOM      8  C   UNL     1       7.173   4.489  17.001  0.00  0.00    +0.000 C 
ATOM      9  S   UNL     1       7.234   6.201  17.487  0.00  0.00    +0.000 S 
ATOM     10  O   UNL     1       7.917   6.939  16.440  0.00  0.00    +0.000 OA
ATOM     11  O   UNL     1       7.642   6.276  18.872  0.00  0.00    +0.000 OA
ATOM     12  C   UNL     1       5.484   6.520  17.357  0.00  0.00    +0.000 C 
ENDBRANCH   4   6
ENDBRANCH   1   3
BRANCH   1  13
ATOM     13  O   UNL     1       2.013   2.936  19.953  0.00  0.00    +0.000 OA
BRANCH  13  14
ATOM     14  C   UNL     1       2.081   3.816  20.992  0.00  0.00    +0.000 C 
ATOM     15  O   UNL     1       2.408   3.514  22.135  0.00  0.00    +0.000 OA
BRANCH  14  16
ATOM     16  C   UNL     1       1.531   5.155  20.554  0.00  0.00    +0.000 C 
BRANCH  16  17
ATOM     17  O   UNL     1       2.563   6.041  20.165  0.00  0.00    +0.000 OA
BRANCH  17  18
ATOM     18  C   UNL     1       2.128   7.267  19.739  0.00  0.00    +0.000 A 
ATOM     19  C   UNL     1       2.387   7.557  18.399  0.00  0.00    +0.000 A 
ATOM     20  C   UNL     1       1.986   8.777  17.850  0.00  0.00    +0.000 A 
ATOM     21  C   UNL     1       1.308   9.705  18.639  0.00  0.00    +0.000 A 
ATOM     22  C   UNL     1       1.029   9.412  19.971  0.00  0.00    +0.000 A 
ATOM     23  C   UNL     1       1.435   8.194  20.522  0.00  0.00    +0.000 A 
ENDBRANCH  17  18
ENDBRANCH  16  17
ENDBRANCH  14  16
ENDBRANCH  13  14
ENDBRANCH   1  13
TORSDOF 7
ENDMDL
MODEL 3
REMARK VINA RESULT:      -6.9      1.923      4.505
REMARK  Name = 
REMARK  7 active torsions:
REMARK  status: ('A' for Active; 'I' for Inactive)
REMARK    1  A    between atoms: C_2  and  C_3
REMARK    2  A    between atoms: C_3  and  O_4
REMARK    3  A    between atoms: O_4  and  C_5
REMARK    4  A    between atoms: C_5  and  C_7
REMARK    5  A    between atoms: C_7  and  O_8
REMARK    6  A    between atoms: O_8  and  C_9
REMARK    7  A    between atoms: N_15  and  C_16
REMARK                            x       y       z     vdW  Elec       q    Type
REMARK                         _______ _______ _______ _____ _____    ______ ____
ROOT
ATOM      1  C   UNL     1       6.888   5.101  17.379  0.00  0.00    +0.000 C 
ENDROOT
BRANCH   1   3
ATOM      2  O   UNL     1       6.292   4.878  19.717  0.00  0.00    +0.000 OA
ATOM      3  C   UNL     1       6.055   4.571  18.552  0.00  0.00    +0.000 C 
ATOM      4  N   UNL     1       4.991   3.761  18.195  0.00  0.00    +0.000 N 
ATOM      5  H   UNL     1       5.029   3.379  17.256  0.00  0.00    +0.000 HD
BRANCH   4   6
ATOM      6  C   UNL     1       4.156   3.067  19.182  0.00  0.00    +0.000 C 
ATOM      7  C   UNL     1       3.705   1.707  18.626  0.00  0.00    +0.000 C 
ATOM      8  C   UNL     1       2.580   2.007  17.645  0.00  0.00    +0.000 C 
ATOM      9  S   UNL     1       1.601   3.246  18.467  0.00  0.00    +0.000 S 
ATOM     10  O   UNL     1       0.574   2.568  19.237  0.00  0.00    +0.000 OA
ATOM     11  O   UNL     1       1.285   4.292  17.520  0.00  0.00    +0.000 OA
ATOM     12  C   UNL     1       2.870   3.810  19.586  0.00  0.00    +0.000 C 
ENDBRANCH   4   6
ENDBRANCH   1   3
BRANCH   1  13
ATOM     13  O   UNL     1       6.463   6.435  17.120  0.00  0.00    +0.000 OA
BRANCH  13  14
ATOM     14  C   UNL     1       5.419   6.491  16.246  0.00  0.00    +0.000 C 
ATOM     15  O   UNL     1       5.425   5.992  15.126  0.00  0.00    +0.000 OA
BRANCH  14  16
ATOM     16  C   UNL     1       4.344   7.398  16.804  0.00  0.00    +0.000 C 
BRANCH  16  17
ATOM     17  O   UNL     1       3.548   6.732  17.765  0.00  0.00    +0.000 OA
BRANCH  17  18
ATOM     18  C   UNL     1       2.699   7.549  18.463  0.00  0.00    +0.000 A 
ATOM     19  C   UNL     1       2.201   8.639  17.748  0.00  0.00    +0.000 A 
ATOM     20  C   UNL     1       1.323   9.540  18.354  0.00  0.00    +0.000 A 
ATOM     21  C   UNL     1       0.925   9.341  19.674  0.00  0.00    +0.000 A 
ATOM     22  C   UNL     1       1.401   8.243  20.386  0.00  0.00    +0.000 A 
ATOM     23  C   UNL     1       2.285   7.346  19.782  0.00  0.00    +0.000 A 
ENDBRANCH  17  18
ENDBRANCH  16  17
ENDBRANCH  14  16
ENDBRANCH  13  14
ENDBRANCH   1  13
TORSDOF 7
ENDMDL
MODEL 4
REMARK VINA RESULT:      -6.8      1.456      2.167
REMARK  Name = 
REMARK  7 active torsions:
REMARK  status: ('A' for Active; 'I' for Inactive)
REMARK    1  A    between atoms: C_2  and  C_3
REMARK    2  A    between atoms: C_3  and  O_4
REMARK    3  A    between atoms: O_4  and  C_5
REMARK    4  A    between atoms: C_5  and  C_7
REMARK    5  A    between atoms: C_7  and  O_8
REMARK    6  A    between atoms: O_8  and  C_9
REMARK    7  A    between atoms: N_15  and  C_16
REMARK                            x       y       z     vdW  Elec       q    Type
REMARK                         _______ _______ _______ _____ _____    ______ ____
ROOT
ATOM      1  C   UNL     1       2.976   1.798  18.550  0.00  0.00    +0.000 C 
ENDROOT
BRANCH   1   3
ATOM      2  O   UNL     1       2.089   3.320  16.886  0.00  0.00    +0.000 OA
ATOM      3  C   UNL     1       3.047   2.978  17.574  0.00  0.00    +0.000 C 
ATOM      4  N   UNL     1       4.254   3.655  17.563  0.00  0.00    +0.000 N 
ATOM      5  H   UNL     1       5.038   3.157  17.971  0.00  0.00    +0.000 HD
BRANCH   4   6
ATOM      6  C   UNL     1       4.550   4.733  16.611  0.00  0.00    +0.000 C 
ATOM      7  C   UNL     1       4.898   4.140  15.237  0.00  0.00    +0.000 C 
ATOM      8  C   UNL     1       6.327   3.627  15.350  0.00  0.00    +0.000 C 
ATOM      9  S   UNL     1       7.180   4.903  16.253  0.00  0.00    +0.000 S 
ATOM     10  O   UNL     1       7.729   5.841  15.290  0.00  0.00    +0.000 OA
ATOM     11  O   UNL     1       7.995   4.285  17.274  0.00  0.00    +0.000 OA
ATOM     12  C   UNL     1       5.734   5.637  16.997  0.00  0.00    +0.000 C 
ENDBRANCH   4   6
ENDBRANCH   1   3
BRANCH   1  13
ATOM     13  O   UNL     1       2.165   2.201  19.650  0.00  0.00    +0.000 OA
BRANCH  13  14
ATOM     14  C   UNL     1       2.873   2.868  20.605  0.00  0.00    +0.000 C 
ATOM     15  O   UNL     1       3.684   2.343  21.361  0.00  0.00    +0.000 OA
BRANCH  14  16
ATOM     16  C   UNL     1       2.378   4.295  20.693  0.00  0.00    +0.000 C 
BRANCH  16  17
ATOM     17  O   UNL     1       2.922   5.100  19.665  0.00  0.00    +0.000 OA
BRANCH  17  18
ATOM     18  C   UNL     1       2.418   6.372  19.614  0.00  0.00    +0.000 A 
ATOM     19  C   UNL     1       1.813   6.820  20.789  0.00  0.00    +0.000 A 
ATOM     20  C   UNL     1       1.267   8.103  20.857  0.00  0.00    +0.000 A 
ATOM     21  C   UNL     1       1.340   8.950  19.753  0.00  0.00    +0.000 A 
ATOM     22  C   UNL     1       1.961   8.516  18.584  0.00  0.00    +0.000 A 
ATOM     23  C   UNL     1       2.502   7.230  18.514  0.00  0.00    +0.000 A 
ENDBRANCH  17  18
ENDBRANCH  16  17
ENDBRANCH  14  16
ENDBRANCH  13  14
ENDBRANCH   1  13
TORSDOF 7
ENDMDL
MODEL 5
REMARK VINA RESULT:      -6.8      1.426      2.196
REMARK  Name = 
REMARK  7 active torsions:
REMARK  status: ('A' for Active; 'I' for Inactive)
REMARK    1  A    between atoms: C_2  and  C_3
REMARK    2  A    between atoms: C_3  and  O_4
REMARK    3  A    between atoms: O_4  and  C_5
REMARK    4  A    between atoms: C_5  and  C_7
REMARK    5  A    between atoms: C_7  and  O_8
REMARK    6  A    between atoms: O_8  and  C_9
REMARK    7  A    between atoms: N_15  and  C_16
REMARK                            x       y       z     vdW  Elec       q    Type
REMARK                         _______ _______ _______ _____ _____    ______ ____
ROOT
ATOM      1  C   UNL     1       3.897   2.486  19.169  0.00  0.00    +0.000 C 
ENDROOT
BRANCH   1   3
ATOM      2  O   UNL     1       5.632   4.004  19.918  0.00  0.00    +0.000 OA
ATOM      3  C   UNL     1       5.036   3.495  18.973  0.00  0.00    +0.000 C 
ATOM      4  N   UNL     1       5.369   3.751  17.654  0.00  0.00    +0.000 N 
ATOM      5  H   UNL     1       4.673   3.479  16.967  0.00  0.00    +0.000 HD
BRANCH   4   6
ATOM      6  C   UNL     1       6.348   4.773  17.268  0.00  0.00    +0.000 C 
ATOM      7  C   UNL     1       5.634   5.963  16.607  0.00  0.00    +0.000 C 
ATOM      8  C   UNL     1       5.297   5.518  15.191  0.00  0.00    +0.000 C 
ATOM      9  S   UNL     1       6.760   4.662  14.643  0.00  0.00    +0.000 S 
ATOM     10  O   UNL     1       7.628   5.628  13.995  0.00  0.00    +0.000 OA
ATOM     11  O   UNL     1       6.363   3.431  13.996  0.00  0.00    +0.000 OA
ATOM     12  C   UNL     1       7.416   4.307  16.263  0.00  0.00    +0.000 C 
ENDBRANCH   4   6
ENDBRANCH   1   3
BRANCH   1  13
ATOM     13  O   UNL     1       3.812   2.204  20.562  0.00  0.00    +0.000 OA
BRANCH  13  14
ATOM     14  C   UNL     1       2.644   2.641  21.114  0.00  0.00    +0.000 C 
ATOM     15  O   UNL     1       2.495   2.904  22.302  0.00  0.00    +0.000 OA
BRANCH  14  16
ATOM     16  C   UNL     1       1.544   2.580  20.077  0.00  0.00    +0.000 C 
BRANCH  16  17
ATOM     17  O   UNL     1       0.739   3.743  20.103  0.00  0.00    +0.000 OA
BRANCH  17  18
ATOM     18  C   UNL     1       1.341   4.861  19.590  0.00  0.00    +0.000 A 
ATOM     19  C   UNL     1       1.589   5.878  20.511  0.00  0.00    +0.000 A 
ATOM     20  C   UNL     1       2.202   7.065  20.105  0.00  0.00    +0.000 A 
ATOM     21  C   UNL     1       2.586   7.230  18.776  0.00  0.00    +0.000 A 
ATOM     22  C   UNL     1       2.359   6.209  17.855  0.00  0.00    +0.000 A 
ATOM     23  C   UNL     1       1.740   5.025  18.261  0.00  0.00    +0.000 A 
ENDBRANCH  17  18
ENDBRANCH  16  17
ENDBRANCH  14  16
ENDBRANCH  13  14
ENDBRANCH   1  13
TORSDOF 7
ENDMDL
MODEL 6
REMARK VINA RESULT:      -6.8      1.298      1.490
REMARK  Name = 
REMARK  7 active torsions:
REMARK  status: ('A' for Active; 'I' for Inactive)
REMARK    1  A    between atoms: C_2  and  C_3
REMARK    2  A    between atoms: C_3  and  O_4
REMARK    3  A    between atoms: O_4  and  C_5
REMARK    4  A    between atoms: C_5  and  C_7
REMARK    5  A    between atoms: C_7  and  O_8
REMARK    6  A    between atoms: O_8  and  C_9
REMARK    7  A    between atoms: N_15  and  C_16
REMARK                            x       y       z     vdW  Elec       q    Type
REMARK                         _______ _______ _______ _____ _____    ______ ____
ROOT
ATOM      1  C   UNL     1       1.573   2.804  18.058  0.00  0.00    +0.000 C 
ENDROOT
BRANCH   1   3
ATOM      2  O   UNL     1       3.621   1.524  18.261  0.00  0.00    +0.000 OA
ATOM      3  C   UNL     1       3.081   2.571  17.915  0.00  0.00    +0.000 C 
ATOM      4  N   UNL     1       3.779   3.611  17.324  0.00  0.00    +0.000 N 
ATOM      5  H   UNL     1       3.297   4.504  17.303  0.00  0.00    +0.000 HD
BRANCH   4   6
ATOM      6  C   UNL     1       5.242   3.621  17.211  0.00  0.00    +0.000 C 
ATOM      7  C   UNL     1       5.851   4.467  18.341  0.00  0.00    +0.000 C 
ATOM      8  C   UNL     1       5.647   5.920  17.935  0.00  0.00    +0.000 C 
ATOM      9  S   UNL     1       6.039   5.948  16.198  0.00  0.00    +0.000 S 
ATOM     10  O   UNL     1       7.454   6.243  16.063  0.00  0.00    +0.000 OA
ATOM     11  O   UNL     1       5.025   6.711  15.506  0.00  0.00    +0.000 OA
ATOM     12  C   UNL     1       5.792   4.207  15.899  0.00  0.00    +0.000 C 
ENDBRANCH   4   6
ENDBRANCH   1   3
BRANCH   1  13
ATOM     13  O   UNL     1       1.394   4.054  18.716  0.00  0.00    +0.000 OA
BRANCH  13  14
ATOM     14  C   UNL     1       1.388   3.935  20.074  0.00  0.00    +0.000 C 
ATOM     15  O   UNL     1       1.199   2.884  20.677  0.00  0.00    +0.000 OA
BRANCH  14  16
ATOM     16  C   UNL     1       1.475   5.310  20.700  0.00  0.00    +0.000 C 
BRANCH  16  17
ATOM     17  O   UNL     1       2.519   6.076  20.131  0.00  0.00    +0.000 OA
BRANCH  17  18
ATOM     18  C   UNL     1       2.134   7.307  19.669  0.00  0.00    +0.000 A 
ATOM     19  C   UNL     1       2.382   7.539  18.316  0.00  0.00    +0.000 A 
ATOM     20  C   UNL     1       2.028   8.756  17.732  0.00  0.00    +0.000 A 
ATOM     21  C   UNL     1       1.407   9.741  18.498  0.00  0.00    +0.000 A 
ATOM     22  C   UNL     1       1.138   9.507  19.845  0.00  0.00    +0.000 A 
ATOM     23  C   UNL     1       1.498   8.291  20.430  0.00  0.00    +0.000 A 
ENDBRANCH  17  18
ENDBRANCH  16  17
ENDBRANCH  14  16
ENDBRANCH  13  14
ENDBRANCH   1  13
TORSDOF 7
ENDMDL
MODEL 7
REMARK VINA RESULT:      -6.7      3.455      6.787
REMARK  Name = 
REMARK  7 active torsions:
REMARK  status: ('A' for Active; 'I' for Inactive)
REMARK    1  A    between atoms: C_2  and  C_3
REMARK    2  A    between atoms: C_3  and  O_4
REMARK    3  A    between atoms: O_4  and  C_5
REMARK    4  A    between atoms: C_5  and  C_7
REMARK    5  A    between atoms: C_7  and  O_8
REMARK    6  A    between atoms: O_8  and  C_9
REMARK    7  A    between atoms: N_15  and  C_16
REMARK                            x       y       z     vdW  Elec       q    Type
REMARK                         _______ _______ _______ _____ _____    ______ ____
ROOT
ATOM      1  C   UNL     1       6.767   4.948  18.759  0.00  0.00    +0.000 C 
ENDROOT
BRANCH   1   3
ATOM      2  O   UNL     1       4.626   5.280  19.844  0.00  0.00    +0.000 OA
ATOM      3  C   UNL     1       5.412   4.498  19.316  0.00  0.00    +0.000 C 
ATOM      4  N   UNL     1       5.123   3.156  19.137  0.00  0.00    +0.000 N 
ATOM      5  H   UNL     1       5.918   2.563  18.920  0.00  0.00    +0.000 HD
BRANCH   4   6
ATOM      6  C   UNL     1       3.931   2.519  19.707  0.00  0.00    +0.000 C 
ATOM      7  C   UNL     1       3.406   1.435  18.751  0.00  0.00    +0.000 C 
ATOM      8  C   UNL     1       2.678   2.175  17.636  0.00  0.00    +0.000 C 
ATOM      9  S   UNL     1       1.759   3.444  18.481  0.00  0.00    +0.000 S 
ATOM     10  O   UNL     1       0.449   2.908  18.806  0.00  0.00    +0.000 OA
ATOM     11  O   UNL     1       1.924   4.690  17.767  0.00  0.00    +0.000 OA
ATOM     12  C   UNL     1       2.746   3.466  19.967  0.00  0.00    +0.000 C 
ENDBRANCH   4   6
ENDBRANCH   1   3
BRANCH   1  13
ATOM     13  O   UNL     1       6.667   6.337  18.461  0.00  0.00    +0.000 OA
BRANCH  13  14
ATOM     14  C   UNL     1       7.215   6.654  17.253  0.00  0.00    +0.000 C 
ATOM     15  O   UNL     1       7.496   7.794  16.897  0.00  0.00    +0.000 OA
BRANCH  14  16
ATOM     16  C   UNL     1       7.254   5.420  16.380  0.00  0.00    +0.000 C 
BRANCH  16  17
ATOM     17  O   UNL     1       7.588   5.738  15.042  0.00  0.00    +0.000 OA
BRANCH  17  18
ATOM     18  C   UNL     1       6.973   4.955  14.102  0.00  0.00    +0.000 A 
ATOM     19  C   UNL     1       7.651   4.839  12.889  0.00  0.00    +0.000 A 
ATOM     20  C   UNL     1       7.123   4.063  11.855  0.00  0.00    +0.000 A 
ATOM     21  C   UNL     1       5.920   3.383  12.041  0.00  0.00    +0.000 A 
ATOM     22  C   UNL     1       5.249   3.478  13.258  0.00  0.00    +0.000 A 
ATOM     23  C   UNL     1       5.775   4.260  14.289  0.00  0.00    +0.000 A 
ENDBRANCH  17  18
ENDBRANCH  16  17
ENDBRANCH  14  16
ENDBRANCH  13  14
ENDBRANCH   1  13
TORSDOF 7
ENDMDL
MODEL 8
REMARK VINA RESULT:      -6.6      3.265      6.711
REMARK  Name = 
REMARK  7 active torsions:
REMARK  status: ('A' for Active; 'I' for Inactive)
REMARK    1  A    between atoms: C_2  and  C_3
REMARK    2  A    between atoms: C_3  and  O_4
REMARK    3  A    between atoms: O_4  and  C_5
REMARK    4  A    between atoms: C_5  and  C_7
REMARK    5  A    between atoms: C_7  and  O_8
REMARK    6  A    between atoms: O_8  and  C_9
REMARK    7  A    between atoms: N_15  and  C_16
REMARK                            x       y       z     vdW  Elec       q    Type
REMARK                         _______ _______ _______ _____ _____    ______ ____
ROOT
ATOM      1  C   UNL     1       6.522   5.402  18.964  0.00  0.00    +0.000 C 
ENDROOT
BRANCH   1   3
ATOM      2  O   UNL     1       4.258   5.461  19.827  0.00  0.00    +0.000 OA
ATOM      3  C   UNL     1       5.185   4.784  19.390  0.00  0.00    +0.000 C 
ATOM      4  N   UNL     1       5.087   3.416  19.202  0.00  0.00    +0.000 N 
ATOM      5  H   UNL     1       5.967   2.929  19.072  0.00  0.00    +0.000 HD
BRANCH   4   6
ATOM      6  C   UNL     1       3.933   2.634  19.659  0.00  0.00    +0.000 C 
ATOM      7  C   UNL     1       3.620   1.518  18.649  0.00  0.00    +0.000 C 
ATOM      8  C   UNL     1       2.907   2.192  17.485  0.00  0.00    +0.000 C 
ATOM      9  S   UNL     1       1.779   3.329  18.262  0.00  0.00    +0.000 S 
ATOM     10  O   UNL     1       0.518   2.639  18.467  0.00  0.00    +0.000 OA
ATOM     11  O   UNL     1       1.857   4.601  17.580  0.00  0.00    +0.000 OA
ATOM     12  C   UNL     1       2.628   3.432  19.827  0.00  0.00    +0.000 C 
ENDBRANCH   4   6
ENDBRANCH   1   3
BRANCH   1  13
ATOM     13  O   UNL     1       6.230   6.534  18.151  0.00  0.00    +0.000 OA
BRANCH  13  14
ATOM     14  C   UNL     1       5.872   6.188  16.882  0.00  0.00    +0.000 C 
ATOM     15  O   UNL     1       4.850   6.571  16.321  0.00  0.00    +0.000 OA
BRANCH  14  16
ATOM     16  C   UNL     1       6.830   5.142  16.356  0.00  0.00    +0.000 C 
BRANCH  16  17
ATOM     17  O   UNL     1       7.498   5.586  15.191  0.00  0.00    +0.000 OA
BRANCH  17  18
ATOM     18  C   UNL     1       7.147   4.919  14.047  0.00  0.00    +0.000 A 
ATOM     19  C   UNL     1       6.047   4.070  14.168  0.00  0.00    +0.000 A 
ATOM     20  C   UNL     1       5.593   3.341  13.067  0.00  0.00    +0.000 A 
ATOM     21  C   UNL     1       6.230   3.473  11.835  0.00  0.00    +0.000 A 
ATOM     22  C   UNL     1       7.317   4.335  11.703  0.00  0.00    +0.000 A 
ATOM     23  C   UNL     1       7.774   5.060  12.806  0.00  0.00    +0.000 A 
ENDBRANCH  17  18
ENDBRANCH  16  17
ENDBRANCH  14  16
ENDBRANCH  13  14
ENDBRANCH   1  13
TORSDOF 7
ENDMDL
MODEL 9
REMARK VINA RESULT:      -6.6      3.326      7.467
REMARK  Name = 
REMARK  7 active torsions:
REMARK  status: ('A' for Active; 'I' for Inactive)
REMARK    1  A    between atoms: C_2  and  C_3
REMARK    2  A    between atoms: C_3  and  O_4
REMARK    3  A    between atoms: O_4  and  C_5
REMARK    4  A    between atoms: C_5  and  C_7
REMARK    5  A    between atoms: C_7  and  O_8
REMARK    6  A    between atoms: O_8  and  C_9
REMARK    7  A    between atoms: N_15  and  C_16
REMARK                            x       y       z     vdW  Elec       q    Type
REMARK                         _______ _______ _______ _____ _____    ______ ____
ROOT
ATOM      1  C   UNL     1       7.601   4.792  17.830  0.00  0.00    +0.000 C 
ENDROOT
BRANCH   1   3
ATOM      2  O   UNL     1       6.292   5.679  19.667  0.00  0.00    +0.000 OA
ATOM      3  C   UNL     1       6.430   4.801  18.819  0.00  0.00    +0.000 C 
ATOM      4  N   UNL     1       5.518   3.772  18.654  0.00  0.00    +0.000 N 
ATOM      5  H   UNL     1       5.845   2.983  18.106  0.00  0.00    +0.000 HD
BRANCH   4   6
ATOM      6  C   UNL     1       4.401   3.547  19.579  0.00  0.00    +0.000 C 
ATOM      7  C   UNL     1       4.165   2.039  19.760  0.00  0.00    +0.000 C 
ATOM      8  C   UNL     1       3.435   1.574  18.508  0.00  0.00    +0.000 C 
ATOM      9  S   UNL     1       2.235   2.853  18.200  0.00  0.00    +0.000 S 
ATOM     10  O   UNL     1       1.010   2.493  18.892  0.00  0.00    +0.000 OA
ATOM     11  O   UNL     1       2.255   3.180  16.792  0.00  0.00    +0.000 OA
ATOM     12  C   UNL     1       3.053   4.137  19.129  0.00  0.00    +0.000 C 
ENDBRANCH   4   6
ENDBRANCH   1   3
BRANCH   1  13
ATOM     13  O   UNL     1       7.190   4.047  16.688  0.00  0.00    +0.000 OA
BRANCH  13  14
ATOM     14  C   UNL     1       6.981   4.836  15.596  0.00  0.00    +0.000 C 
ATOM     15  O   UNL     1       7.582   5.881  15.370  0.00  0.00    +0.000 OA
BRANCH  14  16
ATOM     16  C   UNL     1       5.793   4.314  14.818  0.00  0.00    +0.000 C 
BRANCH  16  17
ATOM     17  O   UNL     1       5.862   4.680  13.453  0.00  0.00    +0.000 OA
BRANCH  17  18
ATOM     18  C   UNL     1       6.028   3.629  12.591  0.00  0.00    +0.000 A 
ATOM     19  C   UNL     1       7.347   3.368  12.219  0.00  0.00    +0.000 A 
ATOM     20  C   UNL     1       7.640   2.318  11.348  0.00  0.00    +0.000 A 
ATOM     21  C   UNL     1       6.613   1.512  10.859  0.00  0.00    +0.000 A 
ATOM     22  C   UNL     1       5.297   1.755  11.244  0.00  0.00    +0.000 A 
ATOM     23  C   UNL     1       5.003   2.810  12.111  0.00  0.00    +0.000 A 
ENDBRANCH  17  18
ENDBRANCH  16  17
ENDBRANCH  14  16
ENDBRANCH  13  14
ENDBRANCH   1  13
TORSDOF 7
ENDMDL
