MODEL 1
REMARK VINA RESULT:      -9.2      0.000      0.000
REMARK  Name = 
REMARK  5 active torsions:
REMARK  status: ('A' for Active; 'I' for Inactive)
REMARK    1  A    between atoms: C_1  and  C_2
REMARK    2  A    between atoms: C_4  and  N_5
REMARK    3  A    between atoms: C_6  and  C_8
REMARK    4  A    between atoms: C_16  and  N_17
REMARK    5  A    between atoms: N_20  and  C_21
REMARK                            x       y       z     vdW  Elec       q    Type
REMARK                         _______ _______ _______ _____ _____    ______ ____
ROOT
ATOM      1  C   UNL     1       6.101   3.568  14.138  0.00  0.00    +0.000 C 
ATOM      2  C   UNL     1       5.658   4.418  15.291  0.00  0.00    +0.000 A 
ATOM      3  C   UNL     1       6.335   5.586  15.596  0.00  0.00    +0.000 A 
ATOM      4  C   UNL     1       5.921   6.375  16.668  0.00  0.00    +0.000 A 
ATOM      5  C   UNL     1       4.793   5.941  17.431  0.00  0.00    +0.000 A 
ATOM      6  C   UNL     1       4.236   6.618  18.553  0.00  0.00    +0.000 A 
ATOM      7  C   UNL     1       3.112   6.144  19.244  0.00  0.00    +0.000 A 
ATOM      8  C   UNL     1       2.536   4.950  18.827  0.00  0.00    +0.000 A 
ATOM      9  C   UNL     1       3.071   4.267  17.732  0.00  0.00    +0.000 A 
ATOM     10  C   UNL     1       4.173   4.735  17.031  0.00  0.00    +0.000 A 
ATOM     11  N   UNL     1       4.591   3.995  15.997  0.00  0.00    +0.000 NA
ENDROOT
BRANCH   7  12
ATOM     12  N   UNL     1       2.535   6.800  20.357  0.00  0.00    +0.000 N 
ATOM     13  C   UNL     1       1.781   7.960  20.321  0.00  0.00    +0.000 C 
ATOM     14  O   UNL     1       1.443   8.545  19.300  0.00  0.00    +0.000 OA
ATOM     15  N   UNL     1       1.483   8.422  21.600  0.00  0.00    +0.000 N 
ATOM     16  H   UNL     1       2.558   6.313  21.241  0.00  0.00    +0.000 HD
ATOM     17  H   UNL     1       2.196   8.247  22.292  0.00  0.00    +0.000 HD
BRANCH  15  18
ATOM     18  C   UNL     1       0.715   9.599  21.771  0.00  0.00    +0.000 A 
ATOM     19  C   UNL     1       1.009  10.766  21.056  0.00  0.00    +0.000 A 
ATOM     20  C   UNL     1       0.288  11.939  21.289  0.00  0.00    +0.000 A 
ATOM     21  C   UNL     1      -0.723  11.945  22.245  0.00  0.00    +0.000 A 
ATOM     22 CL   UNL     1      -1.590  13.397  22.561  0.00  0.00    +0.000 Cl
ATOM     23  C   UNL     1      -1.033  10.782  22.950  0.00  0.00    +0.000 A 
ATOM     24  C   UNL     1      -0.331   9.599  22.696  0.00  0.00    +0.000 A 
ENDBRANCH  15  18
ENDBRANCH   7  12
BRANCH   4  25
ATOM     25  N   UNL     1       6.621   7.580  17.002  0.00  0.00    +0.000 N 
ATOM     26  C   UNL     1       7.644   7.708  17.936  0.00  0.00    +0.000 C 
ATOM     27  O   UNL     1       8.140   6.803  18.601  0.00  0.00    +0.000 OA
ATOM     28  H   UNL     1       6.302   8.425  16.551  0.00  0.00    +0.000 HD
BRANCH  26  29
ATOM     29  C   UNL     1       8.170   9.081  18.190  0.00  0.00    +0.000 A 
ATOM     30  C   UNL     1       9.050   9.243  19.274  0.00  0.00    +0.000 A 
ATOM     31  C   UNL     1       9.592  10.492  19.573  0.00  0.00    +0.000 A 
ATOM     32  C   UNL     1       9.265  11.590  18.784  0.00  0.00    +0.000 A 
ATOM     33  C   UNL     1       8.411  11.436  17.690  0.00  0.00    +0.000 A 
ATOM     34  C   UNL     1       7.864  10.184  17.386  0.00  0.00    +0.000 A 
ENDBRANCH  26  29
ENDBRANCH   4  25
TORSDOF 4
ENDMDL
MODEL 2
REMARK VINA RESULT:      -9.0      0.514      1.008
REMARK  Name = 
REMARK  5 active torsions:
REMARK  status: ('A' for Active; 'I' for Inactive)
REMARK    1  A    between atoms: C_1  and  C_2
REMARK    2  A    between atoms: C_4  and  N_5
REMARK    3  A    between atoms: C_6  and  C_8
REMARK    4  A    between atoms: C_16  and  N_17
REMARK    5  A    between atoms: N_20  and  C_21
REMARK                            x       y       z     vdW  Elec       q    Type
REMARK                         _______ _______ _______ _____ _____    ______ ____
ROOT
ATOM      1  C   UNL     1       6.559   3.784  13.631  0.00  0.00    +0.000 C 
ATOM      2  C   UNL     1       6.092   4.534  14.842  0.00  0.00    +0.000 A 
ATOM      3  C   UNL     1       6.746   5.685  15.244  0.00  0.00    +0.000 A 
ATOM      4  C   UNL     1       6.310   6.381  16.370  0.00  0.00    +0.000 A 
ATOM      5  C   UNL     1       5.182   5.872  17.084  0.00  0.00    +0.000 A 
ATOM      6  C   UNL     1       4.604   6.451  18.250  0.00  0.00    +0.000 A 
ATOM      7  C   UNL     1       3.481   5.907  18.890  0.00  0.00    +0.000 A 
ATOM      8  C   UNL     1       2.929   4.740  18.375  0.00  0.00    +0.000 A 
ATOM      9  C   UNL     1       3.485   4.153  17.236  0.00  0.00    +0.000 A 
ATOM     10  C   UNL     1       4.586   4.691  16.585  0.00  0.00    +0.000 A 
ATOM     11  N   UNL     1       5.025   4.041  15.501  0.00  0.00    +0.000 NA
ENDROOT
BRANCH   7  12
ATOM     12  N   UNL     1       2.883   6.465  20.044  0.00  0.00    +0.000 N 
ATOM     13  C   UNL     1       2.080   7.592  20.085  0.00  0.00    +0.000 C 
ATOM     14  O   UNL     1       1.712   8.225  19.104  0.00  0.00    +0.000 OA
ATOM     15  N   UNL     1       1.770   7.957  21.392  0.00  0.00    +0.000 N 
ATOM     16  H   UNL     1       2.932   5.923  20.895  0.00  0.00    +0.000 HD
ATOM     17  H   UNL     1       2.494   7.769  22.069  0.00  0.00    +0.000 HD
BRANCH  15  18
ATOM     18  C   UNL     1       0.954   9.087  21.641  0.00  0.00    +0.000 A 
ATOM     19  C   UNL     1       1.247  10.332  21.073  0.00  0.00    +0.000 A 
ATOM     20  C   UNL     1       0.475  11.452  21.384  0.00  0.00    +0.000 A 
ATOM     21  C   UNL     1      -0.588  11.327  22.273  0.00  0.00    +0.000 A 
ATOM     22 CL   UNL     1      -1.521  12.711  22.689  0.00  0.00    +0.000 Cl
ATOM     23  C   UNL     1      -0.898  10.086  22.831  0.00  0.00    +0.000 A 
ATOM     24  C   UNL     1      -0.142   8.958  22.496  0.00  0.00    +0.000 A 
ENDBRANCH  15  18
ENDBRANCH   7  12
BRANCH   4  25
ATOM     25  N   UNL     1       6.987   7.567  16.804  0.00  0.00    +0.000 N 
ATOM     26  C   UNL     1       7.776   7.697  17.943  0.00  0.00    +0.000 C 
ATOM     27  O   UNL     1       8.051   6.807  18.743  0.00  0.00    +0.000 OA
ATOM     28  H   UNL     1       6.832   8.401  16.256  0.00  0.00    +0.000 HD
BRANCH  26  29
ATOM     29  C   UNL     1       8.312   9.055  18.252  0.00  0.00    +0.000 A 
ATOM     30  C   UNL     1       7.864  10.121  17.452  0.00  0.00    +0.000 A 
ATOM     31  C   UNL     1       8.311  11.421  17.680  0.00  0.00    +0.000 A 
ATOM     32  C   UNL     1       9.206  11.669  18.716  0.00  0.00    +0.000 A 
ATOM     33  C   UNL     1       9.639  10.622  19.531  0.00  0.00    +0.000 A 
ATOM     34  C   UNL     1       9.193   9.314  19.306  0.00  0.00    +0.000 A 
ENDBRANCH  26  29
ENDBRANCH   4  25
TORSDOF 4
ENDMDL
MODEL 3
REMARK VINA RESULT:      -8.2      3.624      5.390
REMARK  Name = 
REMARK  5 active torsions:
REMARK  status: ('A' for Active; 'I' for Inactive)
REMARK    1  A    between atoms: C_1  and  C_2
REMARK    2  A    between atoms: C_4  and  N_5
REMARK    3  A    between atoms: C_6  and  C_8
REMARK    4  A    between atoms: C_16  and  N_17
REMARK    5  A    between atoms: N_20  and  C_21
REMARK                            x       y       z     vdW  Elec       q    Type
REMARK                         _______ _______ _______ _____ _____    ______ ____
ROOT
ATOM      1  C   UNL     1       2.125   2.412  21.557  0.00  0.00    +0.000 C 
ATOM      2  C   UNL     1       2.309   3.625  20.696  0.00  0.00    +0.000 A 
ATOM      3  C   UNL     1       3.016   3.536  19.508  0.00  0.00    +0.000 A 
ATOM      4  C   UNL     1       3.185   4.665  18.709  0.00  0.00    +0.000 A 
ATOM      5  C   UNL     1       2.615   5.898  19.151  0.00  0.00    +0.000 A 
ATOM      6  C   UNL     1       2.690   7.143  18.465  0.00  0.00    +0.000 A 
ATOM      7  C   UNL     1       2.088   8.314  18.948  0.00  0.00    +0.000 A 
ATOM      8  C   UNL     1       1.412   8.255  20.161  0.00  0.00    +0.000 A 
ATOM      9  C   UNL     1       1.332   7.044  20.853  0.00  0.00    +0.000 A 
ATOM     10  C   UNL     1       1.910   5.876  20.376  0.00  0.00    +0.000 A 
ATOM     11  N   UNL     1       1.762   4.778  21.127  0.00  0.00    +0.000 NA
ENDROOT
BRANCH   7  12
ATOM     12  N   UNL     1       2.141   9.562  18.284  0.00  0.00    +0.000 N 
ATOM     13  C   UNL     1       1.772  10.786  18.813  0.00  0.00    +0.000 C 
ATOM     14  O   UNL     1       1.414  10.970  19.969  0.00  0.00    +0.000 OA
ATOM     15  N   UNL     1       1.810  11.795  17.856  0.00  0.00    +0.000 N 
ATOM     16  H   UNL     1       2.614   9.588  17.392  0.00  0.00    +0.000 HD
ATOM     17  H   UNL     1       1.571  11.502  16.920  0.00  0.00    +0.000 HD
BRANCH  15  18
ATOM     18  C   UNL     1       1.468  13.123  18.206  0.00  0.00    +0.000 A 
ATOM     19  C   UNL     1       2.452  14.101  18.390  0.00  0.00    +0.000 A 
ATOM     20  C   UNL     1       2.103  15.387  18.804  0.00  0.00    +0.000 A 
ATOM     21  C   UNL     1       0.767  15.693  19.044  0.00  0.00    +0.000 A 
ATOM     22 CL   UNL     1       0.335  17.266  19.590  0.00  0.00    +0.000 Cl
ATOM     23  C   UNL     1      -0.223  14.729  18.847  0.00  0.00    +0.000 A 
ATOM     24  C   UNL     1       0.124  13.448  18.403  0.00  0.00    +0.000 A 
ENDBRANCH  15  18
ENDBRANCH   7  12
BRANCH   4  25
ATOM     25  N   UNL     1       3.925   4.588  17.484  0.00  0.00    +0.000 N 
ATOM     26  C   UNL     1       5.309   4.503  17.361  0.00  0.00    +0.000 C 
ATOM     27  O   UNL     1       6.120   4.443  18.281  0.00  0.00    +0.000 OA
ATOM     28  H   UNL     1       3.392   4.655  16.630  0.00  0.00    +0.000 HD
BRANCH  26  29
ATOM     29  C   UNL     1       5.874   4.526  15.980  0.00  0.00    +0.000 A 
ATOM     30  C   UNL     1       5.147   3.861  14.976  0.00  0.00    +0.000 A 
ATOM     31  C   UNL     1       5.603   3.842  13.659  0.00  0.00    +0.000 A 
ATOM     32  C   UNL     1       6.786   4.495  13.331  0.00  0.00    +0.000 A 
ATOM     33  C   UNL     1       7.504   5.178  14.315  0.00  0.00    +0.000 A 
ATOM     34  C   UNL     1       7.050   5.200  15.640  0.00  0.00    +0.000 A 
ENDBRANCH  26  29
ENDBRANCH   4  25
TORSDOF 4
ENDMDL
MODEL 4
REMARK VINA RESULT:      -8.2      3.636      5.475
REMARK  Name = 
REMARK  5 active torsions:
REMARK  status: ('A' for Active; 'I' for Inactive)
REMARK    1  A    between atoms: C_1  and  C_2
REMARK    2  A    between atoms: C_4  and  N_5
REMARK    3  A    between atoms: C_6  and  C_8
REMARK    4  A    between atoms: C_16  and  N_17
REMARK    5  A    between atoms: N_20  and  C_21
REMARK                            x       y       z     vdW  Elec       q    Type
REMARK                         _______ _______ _______ _____ _____    ______ ____
ROOT
ATOM      1  C   UNL     1       1.990   2.546  21.558  0.00  0.00    +0.000 C 
ATOM      2  C   UNL     1       2.180   3.758  20.696  0.00  0.00    +0.000 A 
ATOM      3  C   UNL     1       2.881   3.665  19.506  0.00  0.00    +0.000 A 
ATOM      4  C   UNL     1       3.055   4.793  18.706  0.00  0.00    +0.000 A 
ATOM      5  C   UNL     1       2.495   6.030  19.151  0.00  0.00    +0.000 A 
ATOM      6  C   UNL     1       2.576   7.275  18.465  0.00  0.00    +0.000 A 
ATOM      7  C   UNL     1       1.983   8.450  18.951  0.00  0.00    +0.000 A 
ATOM      8  C   UNL     1       1.311   8.395  20.166  0.00  0.00    +0.000 A 
ATOM      9  C   UNL     1       1.227   7.184  20.859  0.00  0.00    +0.000 A 
ATOM     10  C   UNL     1       1.795   6.013  20.379  0.00  0.00    +0.000 A 
ATOM     11  N   UNL     1       1.642   4.915  21.130  0.00  0.00    +0.000 NA
ENDROOT
BRANCH   7  12
ATOM     12  N   UNL     1       2.043   9.697  18.287  0.00  0.00    +0.000 N 
ATOM     13  C   UNL     1       1.732  10.930  18.835  0.00  0.00    +0.000 C 
ATOM     14  O   UNL     1       1.431  11.120  20.006  0.00  0.00    +0.000 OA
ATOM     15  N   UNL     1       1.757  11.940  17.878  0.00  0.00    +0.000 N 
ATOM     16  H   UNL     1       2.476   9.712  17.375  0.00  0.00    +0.000 HD
ATOM     17  H   UNL     1       1.467  11.657  16.953  0.00  0.00    +0.000 HD
BRANCH  15  18
ATOM     18  C   UNL     1       1.468  13.276  18.245  0.00  0.00    +0.000 A 
ATOM     19  C   UNL     1       0.154  13.693  18.489  0.00  0.00    +0.000 A 
ATOM     20  C   UNL     1      -0.122  15.030  18.781  0.00  0.00    +0.000 A 
ATOM     21  C   UNL     1       0.918  15.953  18.819  0.00  0.00    +0.000 A 
ATOM     22 CL   UNL     1       0.579  17.608  19.142  0.00  0.00    +0.000 Cl
ATOM     23  C   UNL     1       2.232  15.544  18.594  0.00  0.00    +0.000 A 
ATOM     24  C   UNL     1       2.513  14.198  18.331  0.00  0.00    +0.000 A 
ENDBRANCH  15  18
ENDBRANCH   7  12
BRANCH   4  25
ATOM     25  N   UNL     1       3.790   4.712  17.479  0.00  0.00    +0.000 N 
ATOM     26  C   UNL     1       5.159   4.498  17.349  0.00  0.00    +0.000 C 
ATOM     27  O   UNL     1       5.955   4.307  18.264  0.00  0.00    +0.000 OA
ATOM     28  H   UNL     1       3.269   4.878  16.630  0.00  0.00    +0.000 HD
BRANCH  26  29
ATOM     29  C   UNL     1       5.730   4.541  15.971  0.00  0.00    +0.000 A 
ATOM     30  C   UNL     1       6.976   5.173  15.811  0.00  0.00    +0.000 A 
ATOM     31  C   UNL     1       7.581   5.249  14.558  0.00  0.00    +0.000 A 
ATOM     32  C   UNL     1       6.949   4.686  13.453  0.00  0.00    +0.000 A 
ATOM     33  C   UNL     1       5.723   4.036  13.606  0.00  0.00    +0.000 A 
ATOM     34  C   UNL     1       5.111   3.957  14.863  0.00  0.00    +0.000 A 
ENDBRANCH  26  29
ENDBRANCH   4  25
TORSDOF 4
ENDMDL
MODEL 5
REMARK VINA RESULT:      -7.9      5.212      9.550
REMARK  Name = 
REMARK  5 active torsions:
REMARK  status: ('A' for Active; 'I' for Inactive)
REMARK    1  A    between atoms: C_1  and  C_2
REMARK    2  A    between atoms: C_4  and  N_5
REMARK    3  A    between atoms: C_6  and  C_8
REMARK    4  A    between atoms: C_16  and  N_17
REMARK    5  A    between atoms: N_20  and  C_21
REMARK                            x       y       z     vdW  Elec       q    Type
REMARK                         _______ _______ _______ _____ _____    ______ ____
ROOT
ATOM      1  C   UNL     1      10.107  17.222  20.130  0.00  0.00    +0.000 C 
ATOM      2  C   UNL     1       9.882  15.749  20.298  0.00  0.00    +0.000 A 
ATOM      3  C   UNL     1       9.441  15.245  21.510  0.00  0.00    +0.000 A 
ATOM      4  C   UNL     1       9.232  13.876  21.663  0.00  0.00    +0.000 A 
ATOM      5  C   UNL     1       9.485  13.024  20.545  0.00  0.00    +0.000 A 
ATOM      6  C   UNL     1       9.326  11.609  20.523  0.00  0.00    +0.000 A 
ATOM      7  C   UNL     1       9.575  10.834  19.380  0.00  0.00    +0.000 A 
ATOM      8  C   UNL     1      10.018  11.478  18.231  0.00  0.00    +0.000 A 
ATOM      9  C   UNL     1      10.187  12.865  18.234  0.00  0.00    +0.000 A 
ATOM     10  C   UNL     1       9.928  13.643  19.353  0.00  0.00    +0.000 A 
ATOM     11  N   UNL     1      10.123  14.961  19.232  0.00  0.00    +0.000 NA
ENDROOT
BRANCH   7  12
ATOM     12  N   UNL     1       9.418   9.429  19.329  0.00  0.00    +0.000 N 
ATOM     13  C   UNL     1       8.444   8.741  18.628  0.00  0.00    +0.000 C 
ATOM     14  O   UNL     1       7.618   9.257  17.887  0.00  0.00    +0.000 OA
ATOM     15  N   UNL     1       8.479   7.376  18.901  0.00  0.00    +0.000 N 
ATOM     16  H   UNL     1      10.158   8.870  19.727  0.00  0.00    +0.000 HD
ATOM     17  H   UNL     1       8.757   7.138  19.842  0.00  0.00    +0.000 HD
BRANCH  15  18
ATOM     18  C   UNL     1       7.559   6.501  18.276  0.00  0.00    +0.000 A 
ATOM     19  C   UNL     1       7.343   6.543  16.893  0.00  0.00    +0.000 A 
ATOM     20  C   UNL     1       6.381   5.723  16.302  0.00  0.00    +0.000 A 
ATOM     21  C   UNL     1       5.628   4.865  17.097  0.00  0.00    +0.000 A 
ATOM     22 CL   UNL     1       4.416   3.878  16.378  0.00  0.00    +0.000 Cl
ATOM     23  C   UNL     1       5.848   4.804  18.473  0.00  0.00    +0.000 A 
ATOM     24  C   UNL     1       6.833   5.604  19.062  0.00  0.00    +0.000 A 
ENDBRANCH  15  18
ENDBRANCH   7  12
BRANCH   4  25
ATOM     25  N   UNL     1       8.788  13.340  22.916  0.00  0.00    +0.000 N 
ATOM     26  C   UNL     1       7.503  12.897  23.215  0.00  0.00    +0.000 C 
ATOM     27  O   UNL     1       6.549  12.857  22.443  0.00  0.00    +0.000 OA
ATOM     28  H   UNL     1       9.461  13.335  23.668  0.00  0.00    +0.000 HD
BRANCH  26  29
ATOM     29  C   UNL     1       7.240  12.461  24.618  0.00  0.00    +0.000 A 
ATOM     30  C   UNL     1       8.119  12.926  25.612  0.00  0.00    +0.000 A 
ATOM     31  C   UNL     1       7.937  12.572  26.947  0.00  0.00    +0.000 A 
ATOM     32  C   UNL     1       6.870  11.755  27.303  0.00  0.00    +0.000 A 
ATOM     33  C   UNL     1       5.977  11.306  26.327  0.00  0.00    +0.000 A 
ATOM     34  C   UNL     1       6.155  11.659  24.984  0.00  0.00    +0.000 A 
ENDBRANCH  26  29
ENDBRANCH   4  25
TORSDOF 4
ENDMDL
MODEL 6
REMARK VINA RESULT:      -7.8      3.726      5.671
REMARK  Name = 
REMARK  5 active torsions:
REMARK  status: ('A' for Active; 'I' for Inactive)
REMARK    1  A    between atoms: C_1  and  C_2
REMARK    2  A    between atoms: C_4  and  N_5
REMARK    3  A    between atoms: C_6  and  C_8
REMARK    4  A    between atoms: C_16  and  N_17
REMARK    5  A    between atoms: N_20  and  C_21
REMARK                            x       y       z     vdW  Elec       q    Type
REMARK                         _______ _______ _______ _____ _____    ______ ____
ROOT
ATOM      1  C   UNL     1       2.245   2.983  21.622  0.00  0.00    +0.000 C 
ATOM      2  C   UNL     1       2.375   4.205  20.763  0.00  0.00    +0.000 A 
ATOM      3  C   UNL     1       3.174   4.180  19.633  0.00  0.00    +0.000 A 
ATOM      4  C   UNL     1       3.293   5.317  18.836  0.00  0.00    +0.000 A 
ATOM      5  C   UNL     1       2.574   6.491  19.220  0.00  0.00    +0.000 A 
ATOM      6  C   UNL     1       2.578   7.735  18.527  0.00  0.00    +0.000 A 
ATOM      7  C   UNL     1       1.830   8.843  18.951  0.00  0.00    +0.000 A 
ATOM      8  C   UNL     1       1.073   8.723  20.110  0.00  0.00    +0.000 A 
ATOM      9  C   UNL     1       1.061   7.513  20.809  0.00  0.00    +0.000 A 
ATOM     10  C   UNL     1       1.784   6.405  20.389  0.00  0.00    +0.000 A 
ATOM     11  N   UNL     1       1.687   5.301  21.139  0.00  0.00    +0.000 NA
ENDROOT
BRANCH   7  12
ATOM     12  N   UNL     1       1.811  10.087  18.278  0.00  0.00    +0.000 N 
ATOM     13  C   UNL     1       1.596  11.325  18.857  0.00  0.00    +0.000 C 
ATOM     14  O   UNL     1       1.463  11.524  20.057  0.00  0.00    +0.000 OA
ATOM     15  N   UNL     1       1.499  12.332  17.900  0.00  0.00    +0.000 N 
ATOM     16  H   UNL     1       2.113  10.093  17.315  0.00  0.00    +0.000 HD
ATOM     17  H   UNL     1       1.080  12.049  17.026  0.00  0.00    +0.000 HD
BRANCH  15  18
ATOM     18  C   UNL     1       1.281  13.673  18.297  0.00  0.00    +0.000 A 
ATOM     19  C   UNL     1      -0.004  14.140  18.598  0.00  0.00    +0.000 A 
ATOM     20  C   UNL     1      -0.213  15.482  18.919  0.00  0.00    +0.000 A 
ATOM     21  C   UNL     1       0.866  16.361  18.929  0.00  0.00    +0.000 A 
ATOM     22 CL   UNL     1       0.609  18.024  19.287  0.00  0.00    +0.000 Cl
ATOM     23  C   UNL     1       2.152  15.901  18.646  0.00  0.00    +0.000 A 
ATOM     24  C   UNL     1       2.366  14.550  18.354  0.00  0.00    +0.000 A 
ENDBRANCH  15  18
ENDBRANCH   7  12
BRANCH   4  25
ATOM     25  N   UNL     1       4.127   5.309  17.671  0.00  0.00    +0.000 N 
ATOM     26  C   UNL     1       4.513   4.188  16.941  0.00  0.00    +0.000 C 
ATOM     27  O   UNL     1       4.173   3.028  17.154  0.00  0.00    +0.000 OA
ATOM     28  H   UNL     1       4.512   6.197  17.386  0.00  0.00    +0.000 HD
BRANCH  26  29
ATOM     29  C   UNL     1       5.464   4.403  15.811  0.00  0.00    +0.000 A 
ATOM     30  C   UNL     1       5.174   3.760  14.595  0.00  0.00    +0.000 A 
ATOM     31  C   UNL     1       6.008   3.916  13.489  0.00  0.00    +0.000 A 
ATOM     32  C   UNL     1       7.137   4.723  13.587  0.00  0.00    +0.000 A 
ATOM     33  C   UNL     1       7.421   5.386  14.783  0.00  0.00    +0.000 A 
ATOM     34  C   UNL     1       6.587   5.232  15.897  0.00  0.00    +0.000 A 
ENDBRANCH  26  29
ENDBRANCH   4  25
TORSDOF 4
ENDMDL
MODEL 7
REMARK VINA RESULT:      -7.8      2.972      7.412
REMARK  Name = 
REMARK  5 active torsions:
REMARK  status: ('A' for Active; 'I' for Inactive)
REMARK    1  A    between atoms: C_1  and  C_2
REMARK    2  A    between atoms: C_4  and  N_5
REMARK    3  A    between atoms: C_6  and  C_8
REMARK    4  A    between atoms: C_16  and  N_17
REMARK    5  A    between atoms: N_20  and  C_21
REMARK                            x       y       z     vdW  Elec       q    Type
REMARK                         _______ _______ _______ _____ _____    ______ ____
ROOT
ATOM      1  C   UNL     1       2.695   2.376  16.903  0.00  0.00    +0.000 C 
ATOM      2  C   UNL     1       3.495   3.569  17.331  0.00  0.00    +0.000 A 
ATOM      3  C   UNL     1       2.856   4.713  17.779  0.00  0.00    +0.000 A 
ATOM      4  C   UNL     1       3.603   5.821  18.177  0.00  0.00    +0.000 A 
ATOM      5  C   UNL     1       5.027   5.737  18.108  0.00  0.00    +0.000 A 
ATOM      6  C   UNL     1       5.941   6.766  18.473  0.00  0.00    +0.000 A 
ATOM      7  C   UNL     1       7.333   6.607  18.398  0.00  0.00    +0.000 A 
ATOM      8  C   UNL     1       7.834   5.401  17.925  0.00  0.00    +0.000 A 
ATOM      9  C   UNL     1       6.954   4.380  17.555  0.00  0.00    +0.000 A 
ATOM     10  C   UNL     1       5.576   4.521  17.641  0.00  0.00    +0.000 A 
ATOM     11  N   UNL     1       4.837   3.471  17.263  0.00  0.00    +0.000 NA
ENDROOT
BRANCH   7  12
ATOM     12  N   UNL     1       8.262   7.611  18.760  0.00  0.00    +0.000 N 
ATOM     13  C   UNL     1       8.298   8.905  18.273  0.00  0.00    +0.000 C 
ATOM     14  O   UNL     1       7.474   9.388  17.507  0.00  0.00    +0.000 OA
ATOM     15  N   UNL     1       9.420   9.595  18.723  0.00  0.00    +0.000 N 
ATOM     16  H   UNL     1       8.872   7.412  19.540  0.00  0.00    +0.000 HD
ATOM     17  H   UNL     1      10.246   9.028  18.848  0.00  0.00    +0.000 HD
BRANCH  15  18
ATOM     18  C   UNL     1       9.633  10.939  18.333  0.00  0.00    +0.000 A 
ATOM     19  C   UNL     1      10.777  11.314  17.618  0.00  0.00    +0.000 A 
ATOM     20  C   UNL     1      11.008  12.654  17.303  0.00  0.00    +0.000 A 
ATOM     21  C   UNL     1      10.096  13.622  17.714  0.00  0.00    +0.000 A 
ATOM     22 CL   UNL     1      10.394  15.279  17.360  0.00  0.00    +0.000 Cl
ATOM     23  C   UNL     1       8.946  13.256  18.412  0.00  0.00    +0.000 A 
ATOM     24  C   UNL     1       8.699  11.909  18.702  0.00  0.00    +0.000 A 
ENDBRANCH  15  18
ENDBRANCH   7  12
BRANCH   4  25
ATOM     25  N   UNL     1       2.953   7.015  18.630  0.00  0.00    +0.000 N 
ATOM     26  C   UNL     1       2.169   7.145  19.773  0.00  0.00    +0.000 C 
ATOM     27  O   UNL     1       1.937   6.268  20.600  0.00  0.00    +0.000 OA
ATOM     28  H   UNL     1       3.029   7.824  18.032  0.00  0.00    +0.000 HD
BRANCH  26  29
ATOM     29  C   UNL     1       1.512   8.465  20.004  0.00  0.00    +0.000 A 
ATOM     30  C   UNL     1       1.423   9.340  18.907  0.00  0.00    +0.000 A 
ATOM     31  C   UNL     1       0.817  10.588  19.038  0.00  0.00    +0.000 A 
ATOM     32  C   UNL     1       0.286  10.970  20.266  0.00  0.00    +0.000 A 
ATOM     33  C   UNL     1       0.347  10.099  21.355  0.00  0.00    +0.000 A 
ATOM     34  C   UNL     1       0.956   8.844  21.229  0.00  0.00    +0.000 A 
ENDBRANCH  26  29
ENDBRANCH   4  25
TORSDOF 4
ENDMDL
MODEL 8
REMARK VINA RESULT:      -7.8      2.980      7.564
REMARK  Name = 
REMARK  5 active torsions:
REMARK  status: ('A' for Active; 'I' for Inactive)
REMARK    1  A    between atoms: C_1  and  C_2
REMARK    2  A    between atoms: C_4  and  N_5
REMARK    3  A    between atoms: C_6  and  C_8
REMARK    4  A    between atoms: C_16  and  N_17
REMARK    5  A    between atoms: N_20  and  C_21
REMARK                            x       y       z     vdW  Elec       q    Type
REMARK                         _______ _______ _______ _____ _____    ______ ____
ROOT
ATOM      1  C   UNL     1       3.791   1.683  19.303  0.00  0.00    +0.000 C 
ATOM      2  C   UNL     1       4.188   3.108  19.056  0.00  0.00    +0.000 A 
ATOM      3  C   UNL     1       3.431   4.142  19.578  0.00  0.00    +0.000 A 
ATOM      4  C   UNL     1       3.803   5.466  19.348  0.00  0.00    +0.000 A 
ATOM      5  C   UNL     1       4.972   5.714  18.566  0.00  0.00    +0.000 A 
ATOM      6  C   UNL     1       5.495   6.996  18.233  0.00  0.00    +0.000 A 
ATOM      7  C   UNL     1       6.664   7.165  17.476  0.00  0.00    +0.000 A 
ATOM      8  C   UNL     1       7.321   6.031  17.014  0.00  0.00    +0.000 A 
ATOM      9  C   UNL     1       6.820   4.764  17.324  0.00  0.00    +0.000 A 
ATOM     10  C   UNL     1       5.674   4.584  18.086  0.00  0.00    +0.000 A 
ATOM     11  N   UNL     1       5.296   3.322  18.320  0.00  0.00    +0.000 NA
ENDROOT
BRANCH   7  12
ATOM     12  N   UNL     1       7.209   8.426  17.137  0.00  0.00    +0.000 N 
ATOM     13  C   UNL     1       8.105   9.159  17.896  0.00  0.00    +0.000 C 
ATOM     14  O   UNL     1       8.612   8.779  18.942  0.00  0.00    +0.000 OA
ATOM     15  N   UNL     1       8.333  10.419  17.349  0.00  0.00    +0.000 N 
ATOM     16  H   UNL     1       7.037   8.764  16.202  0.00  0.00    +0.000 HD
ATOM     17  H   UNL     1       7.539  10.830  16.880  0.00  0.00    +0.000 HD
BRANCH  15  18
ATOM     18  C   UNL     1       9.225  11.319  17.981  0.00  0.00    +0.000 A 
ATOM     19  C   UNL     1      10.544  10.950  18.270  0.00  0.00    +0.000 A 
ATOM     20  C   UNL     1      11.389  11.822  18.957  0.00  0.00    +0.000 A 
ATOM     21  C   UNL     1      10.910  13.063  19.364  0.00  0.00    +0.000 A 
ATOM     22 CL   UNL     1      11.936  14.128  20.243  0.00  0.00    +0.000 Cl
ATOM     23  C   UNL     1       9.602  13.446  19.066  0.00  0.00    +0.000 A 
ATOM     24  C   UNL     1       8.764  12.584  18.351  0.00  0.00    +0.000 A 
ENDBRANCH  15  18
ENDBRANCH   7  12
BRANCH   4  25
ATOM     25  N   UNL     1       3.020   6.546  19.872  0.00  0.00    +0.000 N 
ATOM     26  C   UNL     1       2.225   7.421  19.137  0.00  0.00    +0.000 C 
ATOM     27  O   UNL     1       2.035   7.387  17.924  0.00  0.00    +0.000 OA
ATOM     28  H   UNL     1       3.096   6.719  20.863  0.00  0.00    +0.000 HD
BRANCH  26  29
ATOM     29  C   UNL     1       1.566   8.534  19.881  0.00  0.00    +0.000 A 
ATOM     30  C   UNL     1       1.231   9.687  19.149  0.00  0.00    +0.000 A 
ATOM     31  C   UNL     1       0.605  10.768  19.768  0.00  0.00    +0.000 A 
ATOM     32  C   UNL     1       0.302  10.703  21.124  0.00  0.00    +0.000 A 
ATOM     33  C   UNL     1       0.609   9.553  21.855  0.00  0.00    +0.000 A 
ATOM     34  C   UNL     1       1.237   8.465  21.238  0.00  0.00    +0.000 A 
ENDBRANCH  26  29
ENDBRANCH   4  25
TORSDOF 4
ENDMDL
MODEL 9
REMARK VINA RESULT:      -7.7      3.939      8.619
REMARK  Name = 
REMARK  5 active torsions:
REMARK  status: ('A' for Active; 'I' for Inactive)
REMARK    1  A    between atoms: C_1  and  C_2
REMARK    2  A    between atoms: C_4  and  N_5
REMARK    3  A    between atoms: C_6  and  C_8
REMARK    4  A    between atoms: C_16  and  N_17
REMARK    5  A    between atoms: N_20  and  C_21
REMARK                            x       y       z     vdW  Elec       q    Type
REMARK                         _______ _______ _______ _____ _____    ______ ____
ROOT
ATOM      1  C   UNL     1      -2.876  13.987  22.876  0.00  0.00    +0.000 C 
ATOM      2  C   UNL     1      -1.792  13.067  22.400  0.00  0.00    +0.000 A 
ATOM      3  C   UNL     1      -0.719  13.567  21.682  0.00  0.00    +0.000 A 
ATOM      4  C   UNL     1       0.288  12.711  21.241  0.00  0.00    +0.000 A 
ATOM      5  C   UNL     1       0.176  11.320  21.550  0.00  0.00    +0.000 A 
ATOM      6  C   UNL     1       1.106  10.308  21.181  0.00  0.00    +0.000 A 
ATOM      7  C   UNL     1       0.943   8.960  21.537  0.00  0.00    +0.000 A 
ATOM      8  C   UNL     1      -0.189   8.602  22.259  0.00  0.00    +0.000 A 
ATOM      9  C   UNL     1      -1.118   9.579  22.624  0.00  0.00    +0.000 A 
ATOM     10  C   UNL     1      -0.958  10.917  22.292  0.00  0.00    +0.000 A 
ATOM     11  N   UNL     1      -1.913  11.760  22.704  0.00  0.00    +0.000 NA
ENDROOT
BRANCH   7  12
ATOM     12  N   UNL     1       1.855   7.936  21.189  0.00  0.00    +0.000 N 
ATOM     13  C   UNL     1       2.232   7.579  19.907  0.00  0.00    +0.000 C 
ATOM     14  O   UNL     1       1.881   8.157  18.887  0.00  0.00    +0.000 OA
ATOM     15  N   UNL     1       3.034   6.441  19.903  0.00  0.00    +0.000 N 
ATOM     16  H   UNL     1       2.380   7.514  21.941  0.00  0.00    +0.000 HD
ATOM     17  H   UNL     1       2.820   5.768  20.624  0.00  0.00    +0.000 HD
BRANCH  15  18
ATOM     18  C   UNL     1       3.525   5.920  18.682  0.00  0.00    +0.000 A 
ATOM     19  C   UNL     1       3.231   4.610  18.283  0.00  0.00    +0.000 A 
ATOM     20  C   UNL     1       3.781   4.087  17.112  0.00  0.00    +0.000 A 
ATOM     21  C   UNL     1       4.633   4.873  16.342  0.00  0.00    +0.000 A 
ATOM     22 CL   UNL     1       5.342   4.222  14.917  0.00  0.00    +0.000 Cl
ATOM     23  C   UNL     1       4.917   6.185  16.723  0.00  0.00    +0.000 A 
ATOM     24  C   UNL     1       4.343   6.719  17.882  0.00  0.00    +0.000 A 
ENDBRANCH  15  18
ENDBRANCH   7  12
BRANCH   4  25
ATOM     25  N   UNL     1       1.396  13.214  20.486  0.00  0.00    +0.000 N 
ATOM     26  C   UNL     1       2.466  13.954  20.983  0.00  0.00    +0.000 C 
ATOM     27  O   UNL     1       2.653  14.264  22.156  0.00  0.00    +0.000 OA
ATOM     28  H   UNL     1       1.369  13.061  19.489  0.00  0.00    +0.000 HD
BRANCH  26  29
ATOM     29  C   UNL     1       3.467  14.455  19.997  0.00  0.00    +0.000 A 
ATOM     30  C   UNL     1       3.046  14.584  18.661  0.00  0.00    +0.000 A 
ATOM     31  C   UNL     1       3.918  15.053  17.681  0.00  0.00    +0.000 A 
ATOM     32  C   UNL     1       5.218  15.405  18.027  0.00  0.00    +0.000 A 
ATOM     33  C   UNL     1       5.639  15.304  19.355  0.00  0.00    +0.000 A 
ATOM     34  C   UNL     1       4.767  14.833  20.344  0.00  0.00    +0.000 A 
ENDBRANCH  26  29
ENDBRANCH   4  25
TORSDOF 4
ENDMDL
