MODEL 1
REMARK VINA RESULT:      -9.0      0.000      0.000
REMARK  Name = 
REMARK  6 active torsions:
REMARK  status: ('A' for Active; 'I' for Inactive)
REMARK    1  A    between atoms: C_1  and  S_2
REMARK    2  A    between atoms: S_2  and  N_5
REMARK    3  A    between atoms: C_11  and  C_12
REMARK    4  A    between atoms: C_16  and  N_17
REMARK    5  A    between atoms: N_17  and  S_18
REMARK    6  A    between atoms: S_18  and  C_21
REMARK                            x       y       z     vdW  Elec       q    Type
REMARK                         _______ _______ _______ _____ _____    ______ ____
ROOT
ATOM      1  N   UNL     1       0.587  11.985  20.254  0.00  0.00    +0.000 N 
ATOM      2  C   UNL     1       0.781  10.670  20.651  0.00  0.00    +0.000 A 
ATOM      3  N   UNL     1       0.567  10.330  21.921  0.00  0.00    +0.000 NA
ATOM      4  N   UNL     1       0.820   9.007  21.932  0.00  0.00    +0.000 N 
ATOM      5  C   UNL     1       1.269   8.512  20.737  0.00  0.00    +0.000 A 
ATOM      6  C   UNL     1       1.686   7.229  20.362  0.00  0.00    +0.000 A 
ATOM      7  C   UNL     1       2.196   7.036  19.061  0.00  0.00    +0.000 A 
ATOM      8  C   UNL     1       2.202   8.137  18.180  0.00  0.00    +0.000 A 
ATOM      9  C   UNL     1       1.728   9.406  18.556  0.00  0.00    +0.000 A 
ATOM     10  C   UNL     1       1.268   9.595  19.868  0.00  0.00    +0.000 A 
ATOM     11  H   UNL     1       0.779  12.635  21.014  0.00  0.00    +0.000 HD
ATOM     12  H   UNL     1       0.695   8.497  22.800  0.00  0.00    +0.000 HD
ENDROOT
BRANCH   7  13
ATOM     13  C   UNL     1       2.760   5.722  18.658  0.00  0.00    +0.000 A 
ATOM     14  C   UNL     1       1.975   4.733  18.038  0.00  0.00    +0.000 A 
ATOM     15  C   UNL     1       2.531   3.524  17.603  0.00  0.00    +0.000 A 
ATOM     16  C   UNL     1       3.891   3.276  17.775  0.00  0.00    +0.000 A 
ATOM     17  C   UNL     1       4.687   4.235  18.390  0.00  0.00    +0.000 A 
ATOM     18  C   UNL     1       4.127   5.433  18.840  0.00  0.00    +0.000 A 
BRANCH  17  19
ATOM     19  N   UNL     1       6.086   4.033  18.548  0.00  0.00    +0.000 N 
ATOM     20  H   UNL     1       6.450   4.185  19.485  0.00  0.00    +0.000 HD
BRANCH  19  21
ATOM     21  S   UNL     1       7.124   4.677  17.377  0.00  0.00    +0.000 S 
ATOM     22  O   UNL     1       6.964   6.110  17.471  0.00  0.00    +0.000 OA
ATOM     23  O   UNL     1       8.424   4.055  17.500  0.00  0.00    +0.000 OA
BRANCH  21  24
ATOM     24  C   UNL     1       6.469   4.165  15.755  0.00  0.00    +0.000 C 
ATOM     25  C   UNL     1       5.720   5.253  15.024  0.00  0.00    +0.000 C 
ATOM     26  C   UNL     1       7.086   4.836  14.554  0.00  0.00    +0.000 C 
ENDBRANCH  21  24
ENDBRANCH  19  21
ENDBRANCH  17  19
ENDBRANCH   7  13
BRANCH   1  28
ATOM     27  C   UNL     1      -0.800  14.135  19.355  0.00  0.00    +0.000 C 
ATOM     28  S   UNL     1      -0.929  12.369  19.611  0.00  0.00    +0.000 S 
ATOM     29  O   UNL     1      -1.952  12.114  20.602  0.00  0.00    +0.000 OA
ATOM     30  O   UNL     1      -0.981  11.748  18.304  0.00  0.00    +0.000 OA
ENDBRANCH   1  28
TORSDOF 5
ENDMDL
MODEL 2
REMARK VINA RESULT:      -8.9      2.607      3.869
REMARK  Name = 
REMARK  6 active torsions:
REMARK  status: ('A' for Active; 'I' for Inactive)
REMARK    1  A    between atoms: C_1  and  S_2
REMARK    2  A    between atoms: S_2  and  N_5
REMARK    3  A    between atoms: C_11  and  C_12
REMARK    4  A    between atoms: C_16  and  N_17
REMARK    5  A    between atoms: N_17  and  S_18
REMARK    6  A    between atoms: S_18  and  C_21
REMARK                            x       y       z     vdW  Elec       q    Type
REMARK                         _______ _______ _______ _____ _____    ______ ____
ROOT
ATOM      1  N   UNL     1      -1.083  11.006  20.902  0.00  0.00    +0.000 N 
ATOM      2  C   UNL     1      -0.303  10.717  19.793  0.00  0.00    +0.000 A 
ATOM      3  N   UNL     1      -0.411  11.472  18.700  0.00  0.00    +0.000 NA
ATOM      4  N   UNL     1       0.491  10.930  17.861  0.00  0.00    +0.000 N 
ATOM      5  C   UNL     1       1.105   9.807  18.347  0.00  0.00    +0.000 A 
ATOM      6  C   UNL     1       2.041   8.938  17.772  0.00  0.00    +0.000 A 
ATOM      7  C   UNL     1       2.429   7.789  18.492  0.00  0.00    +0.000 A 
ATOM      8  C   UNL     1       1.900   7.604  19.785  0.00  0.00    +0.000 A 
ATOM      9  C   UNL     1       1.003   8.516  20.370  0.00  0.00    +0.000 A 
ATOM     10  C   UNL     1       0.589   9.631  19.624  0.00  0.00    +0.000 A 
ATOM     11  H   UNL     1      -1.974  11.421  20.634  0.00  0.00    +0.000 HD
ATOM     12  H   UNL     1       0.624  11.356  16.950  0.00  0.00    +0.000 HD
ENDROOT
BRANCH   7  13
ATOM     13  C   UNL     1       3.327   6.778  17.875  0.00  0.00    +0.000 A 
ATOM     14  C   UNL     1       4.548   7.134  17.273  0.00  0.00    +0.000 A 
ATOM     15  C   UNL     1       5.416   6.167  16.753  0.00  0.00    +0.000 A 
ATOM     16  C   UNL     1       5.085   4.816  16.825  0.00  0.00    +0.000 A 
ATOM     17  C   UNL     1       3.881   4.439  17.410  0.00  0.00    +0.000 A 
ATOM     18  C   UNL     1       3.008   5.406  17.912  0.00  0.00    +0.000 A 
BRANCH  17  19
ATOM     19  N   UNL     1       3.527   3.067  17.536  0.00  0.00    +0.000 N 
ATOM     20  H   UNL     1       2.636   2.802  17.123  0.00  0.00    +0.000 HD
BRANCH  19  21
ATOM     21  S   UNL     1       3.752   2.317  19.036  0.00  0.00    +0.000 S 
ATOM     22  O   UNL     1       3.787   0.900  18.753  0.00  0.00    +0.000 OA
ATOM     23  O   UNL     1       4.835   2.971  19.737  0.00  0.00    +0.000 OA
BRANCH  21  24
ATOM     24  C   UNL     1       2.248   2.636  20.015  0.00  0.00    +0.000 C 
ATOM     25  C   UNL     1       2.452   2.530  21.507  0.00  0.00    +0.000 C 
ATOM     26  C   UNL     1       2.269   3.878  20.869  0.00  0.00    +0.000 C 
ENDBRANCH  21  24
ENDBRANCH  19  21
ENDBRANCH  17  19
ENDBRANCH   7  13
BRANCH   1  28
ATOM     27  C   UNL     1      -1.582  13.314  22.237  0.00  0.00    +0.000 C 
ATOM     28  S   UNL     1      -0.387  11.992  22.086  0.00  0.00    +0.000 S 
ATOM     29  O   UNL     1       0.856  12.539  21.587  0.00  0.00    +0.000 OA
ATOM     30  O   UNL     1      -0.429  11.232  23.318  0.00  0.00    +0.000 OA
ENDBRANCH   1  28
TORSDOF 5
ENDMDL
MODEL 3
REMARK VINA RESULT:      -8.9      1.558      2.061
REMARK  Name = 
REMARK  6 active torsions:
REMARK  status: ('A' for Active; 'I' for Inactive)
REMARK    1  A    between atoms: C_1  and  S_2
REMARK    2  A    between atoms: S_2  and  N_5
REMARK    3  A    between atoms: C_11  and  C_12
REMARK    4  A    between atoms: C_16  and  N_17
REMARK    5  A    between atoms: N_17  and  S_18
REMARK    6  A    between atoms: S_18  and  C_21
REMARK                            x       y       z     vdW  Elec       q    Type
REMARK                         _______ _______ _______ _____ _____    ______ ____
ROOT
ATOM      1  N   UNL     1      -0.624  11.230  20.350  0.00  0.00    +0.000 N 
ATOM      2  C   UNL     1       0.287  10.511  19.590  0.00  0.00    +0.000 A 
ATOM      3  N   UNL     1       0.663  10.979  18.401  0.00  0.00    +0.000 NA
ATOM      4  N   UNL     1       1.551  10.060  17.976  0.00  0.00    +0.000 N 
ATOM      5  C   UNL     1       1.687   8.983  18.811  0.00  0.00    +0.000 A 
ATOM      6  C   UNL     1       2.450   7.814  18.700  0.00  0.00    +0.000 A 
ATOM      7  C   UNL     1       2.312   6.820  19.692  0.00  0.00    +0.000 A 
ATOM      8  C   UNL     1       1.456   7.082  20.781  0.00  0.00    +0.000 A 
ATOM      9  C   UNL     1       0.739   8.286  20.905  0.00  0.00    +0.000 A 
ATOM     10  C   UNL     1       0.849   9.246  19.887  0.00  0.00    +0.000 A 
ATOM     11  H   UNL     1      -1.269  11.754  19.761  0.00  0.00    +0.000 HD
ATOM     12  H   UNL     1       2.014  10.209  17.086  0.00  0.00    +0.000 HD
ENDROOT
BRANCH   7  13
ATOM     13  C   UNL     1       3.009   5.514  19.555  0.00  0.00    +0.000 A 
ATOM     14  C   UNL     1       2.315   4.291  19.594  0.00  0.00    +0.000 A 
ATOM     15  C   UNL     1       2.972   3.071  19.399  0.00  0.00    +0.000 A 
ATOM     16  C   UNL     1       4.344   3.044  19.158  0.00  0.00    +0.000 A 
ATOM     17  C   UNL     1       5.053   4.239  19.120  0.00  0.00    +0.000 A 
ATOM     18  C   UNL     1       4.399   5.455  19.333  0.00  0.00    +0.000 A 
BRANCH  17  19
ATOM     19  N   UNL     1       6.447   4.254  18.838  0.00  0.00    +0.000 N 
ATOM     20  H   UNL     1       7.049   4.549  19.602  0.00  0.00    +0.000 HD
BRANCH  19  21
ATOM     21  S   UNL     1       6.958   4.917  17.367  0.00  0.00    +0.000 S 
ATOM     22  O   UNL     1       7.045   6.341  17.600  0.00  0.00    +0.000 OA
ATOM     23  O   UNL     1       8.090   4.166  16.874  0.00  0.00    +0.000 OA
BRANCH  21  24
ATOM     24  C   UNL     1       5.609   4.646  16.171  0.00  0.00    +0.000 C 
ATOM     25  C   UNL     1       5.828   5.318  14.837  0.00  0.00    +0.000 C 
ATOM     26  C   UNL     1       5.962   3.825  14.957  0.00  0.00    +0.000 C 
ENDBRANCH  21  24
ENDBRANCH  19  21
ENDBRANCH  17  19
ENDBRANCH   7  13
BRANCH   1  28
ATOM     27  C   UNL     1      -1.180  13.626  21.492  0.00  0.00    +0.000 C 
ATOM     28  S   UNL     1       0.015  12.295  21.496  0.00  0.00    +0.000 S 
ATOM     29  O   UNL     1       1.285  12.805  21.025  0.00  0.00    +0.000 OA
ATOM     30  O   UNL     1      -0.094  11.624  22.774  0.00  0.00    +0.000 OA
ENDBRANCH   1  28
TORSDOF 5
ENDMDL
MODEL 4
REMARK VINA RESULT:      -8.9      1.079      1.109
REMARK  Name = 
REMARK  6 active torsions:
REMARK  status: ('A' for Active; 'I' for Inactive)
REMARK    1  A    between atoms: C_1  and  S_2
REMARK    2  A    between atoms: S_2  and  N_5
REMARK    3  A    between atoms: C_11  and  C_12
REMARK    4  A    between atoms: C_16  and  N_17
REMARK    5  A    between atoms: N_17  and  S_18
REMARK    6  A    between atoms: S_18  and  C_21
REMARK                            x       y       z     vdW  Elec       q    Type
REMARK                         _______ _______ _______ _____ _____    ______ ____
ROOT
ATOM      1  N   UNL     1       0.091  11.666  19.808  0.00  0.00    +0.000 N 
ATOM      2  C   UNL     1       0.345  10.456  20.435  0.00  0.00    +0.000 A 
ATOM      3  N   UNL     1      -0.011  10.290  21.708  0.00  0.00    +0.000 NA
ATOM      4  N   UNL     1       0.356   9.020  21.967  0.00  0.00    +0.000 N 
ATOM      5  C   UNL     1       1.009   8.404  20.934  0.00  0.00    +0.000 A 
ATOM      6  C   UNL     1       1.587   7.133  20.828  0.00  0.00    +0.000 A 
ATOM      7  C   UNL     1       2.288   6.804  19.649  0.00  0.00    +0.000 A 
ATOM      8  C   UNL     1       2.317   7.753  18.607  0.00  0.00    +0.000 A 
ATOM      9  C   UNL     1       1.683   9.004  18.708  0.00  0.00    +0.000 A 
ATOM     10  C   UNL     1       1.031   9.337  19.905  0.00  0.00    +0.000 A 
ATOM     11  H   UNL     1       0.116  12.442  20.468  0.00  0.00    +0.000 HD
ATOM     12  H   UNL     1       0.159   8.636  22.885  0.00  0.00    +0.000 HD
ENDROOT
BRANCH   7  13
ATOM     13  C   UNL     1       3.019   5.514  19.538  0.00  0.00    +0.000 A 
ATOM     14  C   UNL     1       2.354   4.275  19.586  0.00  0.00    +0.000 A 
ATOM     15  C   UNL     1       3.044   3.069  19.416  0.00  0.00    +0.000 A 
ATOM     16  C   UNL     1       4.418   3.073  19.190  0.00  0.00    +0.000 A 
ATOM     17  C   UNL     1       5.098   4.284  19.143  0.00  0.00    +0.000 A 
ATOM     18  C   UNL     1       4.411   5.486  19.332  0.00  0.00    +0.000 A 
BRANCH  17  19
ATOM     19  N   UNL     1       6.494   4.330  18.876  0.00  0.00    +0.000 N 
ATOM     20  H   UNL     1       7.079   4.654  19.641  0.00  0.00    +0.000 HD
BRANCH  19  21
ATOM     21  S   UNL     1       7.005   4.977  17.398  0.00  0.00    +0.000 S 
ATOM     22  O   UNL     1       7.136   6.398  17.629  0.00  0.00    +0.000 OA
ATOM     23  O   UNL     1       8.108   4.193  16.890  0.00  0.00    +0.000 OA
BRANCH  21  24
ATOM     24  C   UNL     1       5.633   4.745  16.220  0.00  0.00    +0.000 C 
ATOM     25  C   UNL     1       5.943   5.210  14.818  0.00  0.00    +0.000 C 
ATOM     26  C   UNL     1       5.872   3.740  15.122  0.00  0.00    +0.000 C 
ENDBRANCH  21  24
ENDBRANCH  19  21
ENDBRANCH  17  19
ENDBRANCH   7  13
BRANCH   1  28
ATOM     27  C   UNL     1      -2.437  12.610  20.082  0.00  0.00    +0.000 C 
ATOM     28  S   UNL     1      -1.349  11.780  18.930  0.00  0.00    +0.000 S 
ATOM     29  O   UNL     1      -1.864  10.452  18.674  0.00  0.00    +0.000 OA
ATOM     30  O   UNL     1      -1.087  12.703  17.845  0.00  0.00    +0.000 OA
ENDBRANCH   1  28
TORSDOF 5
ENDMDL
MODEL 5
REMARK VINA RESULT:      -8.7      1.502      1.686
REMARK  Name = 
REMARK  6 active torsions:
REMARK  status: ('A' for Active; 'I' for Inactive)
REMARK    1  A    between atoms: C_1  and  S_2
REMARK    2  A    between atoms: S_2  and  N_5
REMARK    3  A    between atoms: C_11  and  C_12
REMARK    4  A    between atoms: C_16  and  N_17
REMARK    5  A    between atoms: N_17  and  S_18
REMARK    6  A    between atoms: S_18  and  C_21
REMARK                            x       y       z     vdW  Elec       q    Type
REMARK                         _______ _______ _______ _____ _____    ______ ____
ROOT
ATOM      1  N   UNL     1       0.526  11.771  20.010  0.00  0.00    +0.000 N 
ATOM      2  C   UNL     1       0.730  10.535  20.605  0.00  0.00    +0.000 A 
ATOM      3  N   UNL     1       0.521  10.395  21.914  0.00  0.00    +0.000 NA
ATOM      4  N   UNL     1       0.782   9.091  22.129  0.00  0.00    +0.000 N 
ATOM      5  C   UNL     1       1.233   8.420  21.025  0.00  0.00    +0.000 A 
ATOM      6  C   UNL     1       1.657   7.096  20.852  0.00  0.00    +0.000 A 
ATOM      7  C   UNL     1       2.166   6.707  19.595  0.00  0.00    +0.000 A 
ATOM      8  C   UNL     1       2.163   7.658  18.554  0.00  0.00    +0.000 A 
ATOM      9  C   UNL     1       1.681   8.967  18.729  0.00  0.00    +0.000 A 
ATOM     10  C   UNL     1       1.222   9.355  19.998  0.00  0.00    +0.000 A 
ATOM     11  H   UNL     1       0.715  12.533  20.659  0.00  0.00    +0.000 HD
ATOM     12  H   UNL     1       0.663   8.721  23.066  0.00  0.00    +0.000 HD
ENDROOT
BRANCH   7  13
ATOM     13  C   UNL     1       2.738   5.350  19.399  0.00  0.00    +0.000 A 
ATOM     14  C   UNL     1       1.931   4.198  19.369  0.00  0.00    +0.000 A 
ATOM     15  C   UNL     1       2.472   2.932  19.118  0.00  0.00    +0.000 A 
ATOM     16  C   UNL     1       3.838   2.786  18.887  0.00  0.00    +0.000 A 
ATOM     17  C   UNL     1       4.657   3.909  18.917  0.00  0.00    +0.000 A 
ATOM     18  C   UNL     1       4.118   5.169  19.185  0.00  0.00    +0.000 A 
BRANCH  17  19
ATOM     19  N   UNL     1       6.050   3.805  18.647  0.00  0.00    +0.000 N 
ATOM     20  H   UNL     1       6.661   3.845  19.459  0.00  0.00    +0.000 HD
BRANCH  19  21
ATOM     21  S   UNL     1       6.685   4.701  17.360  0.00  0.00    +0.000 S 
ATOM     22  O   UNL     1       8.066   4.286  17.251  0.00  0.00    +0.000 OA
ATOM     23  O   UNL     1       5.784   4.620  16.233  0.00  0.00    +0.000 OA
BRANCH  21  24
ATOM     24  C   UNL     1       6.685   6.447  17.885  0.00  0.00    +0.000 C 
ATOM     25  C   UNL     1       7.956   6.882  18.573  0.00  0.00    +0.000 C 
ATOM     26  C   UNL     1       7.663   7.348  17.174  0.00  0.00    +0.000 C 
ENDBRANCH  21  24
ENDBRANCH  19  21
ENDBRANCH  17  19
ENDBRANCH   7  13
BRANCH   1  28
ATOM     27  C   UNL     1      -1.866  12.887  20.632  0.00  0.00    +0.000 C 
ATOM     28  S   UNL     1      -0.993  12.042  19.320  0.00  0.00    +0.000 S 
ATOM     29  O   UNL     1      -1.641  10.773  19.069  0.00  0.00    +0.000 OA
ATOM     30  O   UNL     1      -0.785  13.001  18.255  0.00  0.00    +0.000 OA
ENDBRANCH   1  28
TORSDOF 5
ENDMDL
MODEL 6
REMARK VINA RESULT:      -8.7      2.789      9.031
REMARK  Name = 
REMARK  6 active torsions:
REMARK  status: ('A' for Active; 'I' for Inactive)
REMARK    1  A    between atoms: C_1  and  S_2
REMARK    2  A    between atoms: S_2  and  N_5
REMARK    3  A    between atoms: C_11  and  C_12
REMARK    4  A    between atoms: C_16  and  N_17
REMARK    5  A    between atoms: N_17  and  S_18
REMARK    6  A    between atoms: S_18  and  C_21
REMARK                            x       y       z     vdW  Elec       q    Type
REMARK                         _______ _______ _______ _____ _____    ______ ____
ROOT
ATOM      1  N   UNL     1       5.102   4.799  17.924  0.00  0.00    +0.000 N 
ATOM      2  C   UNL     1       4.137   5.312  18.779  0.00  0.00    +0.000 A 
ATOM      3  N   UNL     1       3.743   4.593  19.829  0.00  0.00    +0.000 NA
ATOM      4  N   UNL     1       2.844   5.396  20.431  0.00  0.00    +0.000 N 
ATOM      5  C   UNL     1       2.590   6.559  19.754  0.00  0.00    +0.000 A 
ATOM      6  C   UNL     1       1.698   7.607  20.015  0.00  0.00    +0.000 A 
ATOM      7  C   UNL     1       1.587   8.650  19.071  0.00  0.00    +0.000 A 
ATOM      8  C   UNL     1       2.427   8.615  17.939  0.00  0.00    +0.000 A 
ATOM      9  C   UNL     1       3.357   7.582  17.721  0.00  0.00    +0.000 A 
ATOM     10  C   UNL     1       3.423   6.527  18.644  0.00  0.00    +0.000 A 
ATOM     11  H   UNL     1       5.060   3.782  17.882  0.00  0.00    +0.000 HD
ATOM     12  H   UNL     1       2.412   5.080  21.292  0.00  0.00    +0.000 HD
ENDROOT
BRANCH   7  13
ATOM     13  C   UNL     1       0.571   9.720  19.244  0.00  0.00    +0.000 A 
ATOM     14  C   UNL     1       0.367  10.361  20.480  0.00  0.00    +0.000 A 
ATOM     15  C   UNL     1      -0.546  11.413  20.616  0.00  0.00    +0.000 A 
ATOM     16  C   UNL     1      -1.279  11.853  19.517  0.00  0.00    +0.000 A 
ATOM     17  C   UNL     1      -1.100  11.232  18.286  0.00  0.00    +0.000 A 
ATOM     18  C   UNL     1      -0.201  10.171  18.155  0.00  0.00    +0.000 A 
BRANCH  17  19
ATOM     19  N   UNL     1      -1.801  11.679  17.132  0.00  0.00    +0.000 N 
ATOM     20  H   UNL     1      -1.969  12.680  17.078  0.00  0.00    +0.000 HD
BRANCH  19  21
ATOM     21  S   UNL     1      -3.161  10.803  16.633  0.00  0.00    +0.000 S 
ATOM     22  O   UNL     1      -3.109  10.809  15.188  0.00  0.00    +0.000 OA
ATOM     23  O   UNL     1      -3.230   9.566  17.378  0.00  0.00    +0.000 OA
BRANCH  21  24
ATOM     24  C   UNL     1      -4.622  11.775  17.126  0.00  0.00    +0.000 C 
ATOM     25  C   UNL     1      -5.655  10.985  17.892  0.00  0.00    +0.000 C 
ATOM     26  C   UNL     1      -4.799  11.992  18.607  0.00  0.00    +0.000 C 
ENDBRANCH  21  24
ENDBRANCH  19  21
ENDBRANCH  17  19
ENDBRANCH   7  13
BRANCH   1  28
ATOM     27  C   UNL     1       6.810   6.857  17.476  0.00  0.00    +0.000 C 
ATOM     28  S   UNL     1       6.704   5.241  18.234  0.00  0.00    +0.000 S 
ATOM     29  O   UNL     1       7.596   4.339  17.538  0.00  0.00    +0.000 OA
ATOM     30  O   UNL     1       6.799   5.431  19.666  0.00  0.00    +0.000 OA
ENDBRANCH   1  28
TORSDOF 5
ENDMDL
MODEL 7
REMARK VINA RESULT:      -8.5      1.509      1.584
REMARK  Name = 
REMARK  6 active torsions:
REMARK  status: ('A' for Active; 'I' for Inactive)
REMARK    1  A    between atoms: C_1  and  S_2
REMARK    2  A    between atoms: S_2  and  N_5
REMARK    3  A    between atoms: C_11  and  C_12
REMARK    4  A    between atoms: C_16  and  N_17
REMARK    5  A    between atoms: N_17  and  S_18
REMARK    6  A    between atoms: S_18  and  C_21
REMARK                            x       y       z     vdW  Elec       q    Type
REMARK                         _______ _______ _______ _____ _____    ______ ____
ROOT
ATOM      1  N   UNL     1       0.501  12.180  20.314  0.00  0.00    +0.000 N 
ATOM      2  C   UNL     1       0.806  10.868  20.645  0.00  0.00    +0.000 A 
ATOM      3  N   UNL     1       0.876  10.514  21.928  0.00  0.00    +0.000 NA
ATOM      4  N   UNL     1       1.155   9.198  21.870  0.00  0.00    +0.000 N 
ATOM      5  C   UNL     1       1.352   8.723  20.601  0.00  0.00    +0.000 A 
ATOM      6  C   UNL     1       1.708   7.452  20.131  0.00  0.00    +0.000 A 
ATOM      7  C   UNL     1       1.934   7.281  18.748  0.00  0.00    +0.000 A 
ATOM      8  C   UNL     1       1.727   8.387  17.899  0.00  0.00    +0.000 A 
ATOM      9  C   UNL     1       1.314   9.642  18.382  0.00  0.00    +0.000 A 
ATOM     10  C   UNL     1       1.140   9.811  19.764  0.00  0.00    +0.000 A 
ATOM     11  H   UNL     1       0.835  12.830  21.023  0.00  0.00    +0.000 HD
ATOM     12  H   UNL     1       1.231   8.679  22.738  0.00  0.00    +0.000 HD
ENDROOT
BRANCH   7  13
ATOM     13  C   UNL     1       2.430   5.984  18.219  0.00  0.00    +0.000 A 
ATOM     14  C   UNL     1       1.609   4.844  18.152  0.00  0.00    +0.000 A 
ATOM     15  C   UNL     1       2.065   3.646  17.591  0.00  0.00    +0.000 A 
ATOM     16  C   UNL     1       3.358   3.559  17.079  0.00  0.00    +0.000 A 
ATOM     17  C   UNL     1       4.190   4.671  17.138  0.00  0.00    +0.000 A 
ATOM     18  C   UNL     1       3.739   5.860  17.715  0.00  0.00    +0.000 A 
BRANCH  17  19
ATOM     19  N   UNL     1       5.502   4.632  16.590  0.00  0.00    +0.000 N 
ATOM     20  H   UNL     1       5.683   3.879  15.931  0.00  0.00    +0.000 HD
BRANCH  19  21
ATOM     21  S   UNL     1       6.813   4.855  17.637  0.00  0.00    +0.000 S 
ATOM     22  O   UNL     1       6.479   4.111  18.831  0.00  0.00    +0.000 OA
ATOM     23  O   UNL     1       8.043   4.611  16.919  0.00  0.00    +0.000 OA
BRANCH  21  24
ATOM     24  C   UNL     1       6.830   6.621  18.089  0.00  0.00    +0.000 C 
ATOM     25  C   UNL     1       8.182   7.129  18.530  0.00  0.00    +0.000 C 
ATOM     26  C   UNL     1       7.634   7.523  17.187  0.00  0.00    +0.000 C 
ENDBRANCH  21  24
ENDBRANCH  19  21
ENDBRANCH  17  19
ENDBRANCH   7  13
BRANCH   1  28
ATOM     27  C   UNL     1      -1.144  14.318  20.041  0.00  0.00    +0.000 C 
ATOM     28  S   UNL     1      -1.124  12.530  20.013  0.00  0.00    +0.000 S 
ATOM     29  O   UNL     1      -1.935  12.037  21.106  0.00  0.00    +0.000 OA
ATOM     30  O   UNL     1      -1.379  12.120  18.648  0.00  0.00    +0.000 OA
ENDBRANCH   1  28
TORSDOF 5
ENDMDL
MODEL 8
REMARK VINA RESULT:      -8.5      2.511      3.826
REMARK  Name = 
REMARK  6 active torsions:
REMARK  status: ('A' for Active; 'I' for Inactive)
REMARK    1  A    between atoms: C_1  and  S_2
REMARK    2  A    between atoms: S_2  and  N_5
REMARK    3  A    between atoms: C_11  and  C_12
REMARK    4  A    between atoms: C_16  and  N_17
REMARK    5  A    between atoms: N_17  and  S_18
REMARK    6  A    between atoms: S_18  and  C_21
REMARK                            x       y       z     vdW  Elec       q    Type
REMARK                         _______ _______ _______ _____ _____    ______ ____
ROOT
ATOM      1  N   UNL     1      -1.016  10.575  20.650  0.00  0.00    +0.000 N 
ATOM      2  C   UNL     1      -0.075  10.345  19.658  0.00  0.00    +0.000 A 
ATOM      3  N   UNL     1      -0.007  11.172  18.615  0.00  0.00    +0.000 NA
ATOM      4  N   UNL     1       1.012  10.669  17.891  0.00  0.00    +0.000 N 
ATOM      5  C   UNL     1       1.534   9.506  18.390  0.00  0.00    +0.000 A 
ATOM      6  C   UNL     1       2.542   8.661  17.910  0.00  0.00    +0.000 A 
ATOM      7  C   UNL     1       2.805   7.460  18.603  0.00  0.00    +0.000 A 
ATOM      8  C   UNL     1       2.080   7.202  19.783  0.00  0.00    +0.000 A 
ATOM      9  C   UNL     1       1.109   8.089  20.282  0.00  0.00    +0.000 A 
ATOM     10  C   UNL     1       0.824   9.256  19.557  0.00  0.00    +0.000 A 
ATOM     11  H   UNL     1      -1.851  11.022  20.276  0.00  0.00    +0.000 HD
ATOM     12  H   UNL     1       1.288  11.151  17.042  0.00  0.00    +0.000 HD
ENDROOT
BRANCH   7  13
ATOM     13  C   UNL     1       3.781   6.476  18.066  0.00  0.00    +0.000 A 
ATOM     14  C   UNL     1       4.388   6.640  16.808  0.00  0.00    +0.000 A 
ATOM     15  C   UNL     1       5.354   5.741  16.340  0.00  0.00    +0.000 A 
ATOM     16  C   UNL     1       5.740   4.655  17.122  0.00  0.00    +0.000 A 
ATOM     17  C   UNL     1       5.150   4.469  18.367  0.00  0.00    +0.000 A 
ATOM     18  C   UNL     1       4.172   5.356  18.825  0.00  0.00    +0.000 A 
BRANCH  17  19
ATOM     19  N   UNL     1       5.545   3.394  19.210  0.00  0.00    +0.000 N 
ATOM     20  H   UNL     1       6.375   2.885  18.917  0.00  0.00    +0.000 HD
BRANCH  19  21
ATOM     21  S   UNL     1       4.349   2.338  19.775  0.00  0.00    +0.000 S 
ATOM     22  O   UNL     1       3.971   1.542  18.629  0.00  0.00    +0.000 OA
ATOM     23  O   UNL     1       4.798   1.723  21.003  0.00  0.00    +0.000 OA
BRANCH  21  24
ATOM     24  C   UNL     1       2.908   3.364  20.218  0.00  0.00    +0.000 C 
ATOM     25  C   UNL     1       1.648   2.575  20.476  0.00  0.00    +0.000 C 
ATOM     26  C   UNL     1       2.390   3.199  21.624  0.00  0.00    +0.000 C 
ENDBRANCH  21  24
ENDBRANCH  19  21
ENDBRANCH  17  19
ENDBRANCH   7  13
BRANCH   1  28
ATOM     27  C   UNL     1      -0.380  10.218  23.262  0.00  0.00    +0.000 C 
ATOM     28  S   UNL     1      -0.505  11.469  21.990  0.00  0.00    +0.000 S 
ATOM     29  O   UNL     1      -1.537  12.412  22.363  0.00  0.00    +0.000 OA
ATOM     30  O   UNL     1       0.840  11.912  21.689  0.00  0.00    +0.000 OA
ENDBRANCH   1  28
TORSDOF 5
ENDMDL
MODEL 9
REMARK VINA RESULT:      -8.4      2.715      8.764
REMARK  Name = 
REMARK  6 active torsions:
REMARK  status: ('A' for Active; 'I' for Inactive)
REMARK    1  A    between atoms: C_1  and  S_2
REMARK    2  A    between atoms: S_2  and  N_5
REMARK    3  A    between atoms: C_11  and  C_12
REMARK    4  A    between atoms: C_16  and  N_17
REMARK    5  A    between atoms: N_17  and  S_18
REMARK    6  A    between atoms: S_18  and  C_21
REMARK                            x       y       z     vdW  Elec       q    Type
REMARK                         _______ _______ _______ _____ _____    ______ ____
ROOT
ATOM      1  N   UNL     1       5.473   4.857  17.003  0.00  0.00    +0.000 N 
ATOM      2  C   UNL     1       4.607   5.219  18.024  0.00  0.00    +0.000 A 
ATOM      3  N   UNL     1       4.392   4.373  19.031  0.00  0.00    +0.000 NA
ATOM      4  N   UNL     1       3.544   5.053  19.827  0.00  0.00    +0.000 N 
ATOM      5  C   UNL     1       3.147   6.261  19.321  0.00  0.00    +0.000 A 
ATOM      6  C   UNL     1       2.249   7.221  19.806  0.00  0.00    +0.000 A 
ATOM      7  C   UNL     1       1.963   8.346  19.005  0.00  0.00    +0.000 A 
ATOM      8  C   UNL     1       2.645   8.479  17.779  0.00  0.00    +0.000 A 
ATOM      9  C   UNL     1       3.586   7.534  17.332  0.00  0.00    +0.000 A 
ATOM     10  C   UNL     1       3.825   6.395  18.117  0.00  0.00    +0.000 A 
ATOM     11  H   UNL     1       5.474   3.849  16.854  0.00  0.00    +0.000 HD
ATOM     12  H   UNL     1       3.246   4.624  20.697  0.00  0.00    +0.000 HD
ENDROOT
BRANCH   7  13
ATOM     13  C   UNL     1       0.930   9.329  19.424  0.00  0.00    +0.000 A 
ATOM     14  C   UNL     1       0.727   9.667  20.774  0.00  0.00    +0.000 A 
ATOM     15  C   UNL     1      -0.204  10.642  21.151  0.00  0.00    +0.000 A 
ATOM     16  C   UNL     1      -0.955  11.306  20.185  0.00  0.00    +0.000 A 
ATOM     17  C   UNL     1      -0.777  10.985  18.844  0.00  0.00    +0.000 A 
ATOM     18  C   UNL     1       0.139   9.999  18.470  0.00  0.00    +0.000 A 
BRANCH  17  19
ATOM     19  N   UNL     1      -1.499  11.668  17.826  0.00  0.00    +0.000 N 
ATOM     20  H   UNL     1      -1.585  12.674  17.946  0.00  0.00    +0.000 HD
BRANCH  19  21
ATOM     21  S   UNL     1      -2.951  10.991  17.282  0.00  0.00    +0.000 S 
ATOM     22  O   UNL     1      -2.934   9.624  17.754  0.00  0.00    +0.000 OA
ATOM     23  O   UNL     1      -4.042  11.883  17.602  0.00  0.00    +0.000 OA
BRANCH  21  24
ATOM     24  C   UNL     1      -2.856  10.935  15.463  0.00  0.00    +0.000 C 
ATOM     25  C   UNL     1      -2.603   9.557  14.903  0.00  0.00    +0.000 C 
ATOM     26  C   UNL     1      -3.963  10.183  14.769  0.00  0.00    +0.000 C 
ENDBRANCH  21  24
ENDBRANCH  19  21
ENDBRANCH  17  19
ENDBRANCH   7  13
BRANCH   1  28
ATOM     27  C   UNL     1       7.231   5.644  18.911  0.00  0.00    +0.000 C 
ATOM     28  S   UNL     1       7.079   5.362  17.152  0.00  0.00    +0.000 S 
ATOM     29  O   UNL     1       7.255   6.620  16.460  0.00  0.00    +0.000 OA
ATOM     30  O   UNL     1       7.894   4.210  16.829  0.00  0.00    +0.000 OA
ENDBRANCH   1  28
TORSDOF 5
ENDMDL
