MODEL 1
REMARK VINA RESULT:      -8.3      0.000      0.000
REMARK  Name = 
REMARK  5 active torsions:
REMARK  status: ('A' for Active; 'I' for Inactive)
REMARK    1  A    between atoms: C_2  and  C_3
REMARK    2  A    between atoms: C_3  and  N_4
REMARK    3  A    between atoms: N_9  and  C_10
REMARK    4  A    between atoms: C_10  and  C_11
REMARK    5  A    between atoms: N_23  and  C_24
REMARK                            x       y       z     vdW  Elec       q    Type
REMARK                         _______ _______ _______ _____ _____    ______ ____
ROOT
ATOM      1  N   UNL     1       1.636   8.795  19.168  0.00  0.00    +0.000 N 
ATOM      2  C   UNL     1       1.591   8.029  20.301  0.00  0.00    +0.000 A 
ATOM      3  C   UNL     1       1.193   8.542  21.462  0.00  0.00    +0.000 A 
ATOM      4  C   UNL     1       0.729   9.945  21.520  0.00  0.00    +0.000 A 
ATOM      5  O   UNL     1       0.315  10.359  22.602  0.00  0.00    +0.000 OA
ATOM      6  N   UNL     1       0.799  10.706  20.357  0.00  0.00    +0.000 N 
ATOM      7  C   UNL     1       1.332  10.177  19.182  0.00  0.00    +0.000 A 
ATOM      8  O   UNL     1       1.495  10.842  18.156  0.00  0.00    +0.000 OA
ENDROOT
BRANCH   1   9
ATOM      9  C   UNL     1       2.088   8.136  17.928  0.00  0.00    +0.000 C 
BRANCH   9  11
ATOM     10  O   UNL     1       4.056   6.871  18.484  0.00  0.00    +0.000 OA
ATOM     11  C   UNL     1       2.856   6.840  18.208  0.00  0.00    +0.000 C 
ATOM     12  N   UNL     1       2.083   5.709  18.045  0.00  0.00    +0.000 N 
ATOM     13  H   UNL     1       1.182   5.831  17.575  0.00  0.00    +0.000 HD
BRANCH  12  14
ATOM     14  C   UNL     1       2.491   4.365  18.227  0.00  0.00    +0.000 A 
ATOM     15  C   UNL     1       3.320   3.695  17.321  0.00  0.00    +0.000 A 
ATOM     16  C   UNL     1       3.622   2.341  17.499  0.00  0.00    +0.000 A 
ATOM     17  C   UNL     1       3.120   1.647  18.596  0.00  0.00    +0.000 A 
ATOM     18  C   UNL     1       2.342   2.316  19.540  0.00  0.00    +0.000 A 
ATOM     19  C   UNL     1       2.038   3.668  19.361  0.00  0.00    +0.000 A 
ATOM     20 CL   UNL     1       1.063   4.448  20.559  0.00  0.00    +0.000 Cl
ENDBRANCH  12  14
ENDBRANCH   9  11
ENDBRANCH   1   9
BRANCH   6  21
ATOM     21  C   UNL     1       0.263  12.161  20.388  0.00  0.00    +0.000 C 
BRANCH  21  22
ATOM     22  C   UNL     1      -1.241  12.371  20.056  0.00  0.00    +0.000 A 
ATOM     23  C   UNL     1      -1.935  12.950  21.108  0.00  0.00    +0.000 A 
ATOM     24  C   UNL     1      -3.147  13.541  20.853  0.00  0.00    +0.000 A 
ATOM     25  C   UNL     1      -3.983  12.679  20.223  0.00  0.00    +0.000 A 
ATOM     26  C   UNL     1      -3.501  11.988  19.125  0.00  0.00    +0.000 A 
ATOM     27  C   UNL     1      -4.507  11.467  18.277  0.00  0.00    +0.000 A 
ATOM     28  C   UNL     1      -4.195  11.024  17.009  0.00  0.00    +0.000 A 
ATOM     29  C   UNL     1      -2.883  11.081  16.613  0.00  0.00    +0.000 A 
ATOM     30  C   UNL     1      -1.854  11.465  17.532  0.00  0.00    +0.000 A 
ATOM     31  C   UNL     1      -2.092  11.943  18.875  0.00  0.00    +0.000 A 
ENDBRANCH  21  22
ENDBRANCH   6  21
TORSDOF 5
ENDMDL
MODEL 2
REMARK VINA RESULT:      -8.2      1.173      2.499
REMARK  Name = 
REMARK  5 active torsions:
REMARK  status: ('A' for Active; 'I' for Inactive)
REMARK    1  A    between atoms: C_2  and  C_3
REMARK    2  A    between atoms: C_3  and  N_4
REMARK    3  A    between atoms: N_9  and  C_10
REMARK    4  A    between atoms: C_10  and  C_11
REMARK    5  A    between atoms: N_23  and  C_24
REMARK                            x       y       z     vdW  Elec       q    Type
REMARK                         _______ _______ _______ _____ _____    ______ ____
ROOT
ATOM      1  N   UNL     1       1.476   8.892  19.366  0.00  0.00    +0.000 N 
ATOM      2  C   UNL     1       1.565   8.057  20.447  0.00  0.00    +0.000 A 
ATOM      3  C   UNL     1       1.231   8.474  21.664  0.00  0.00    +0.000 A 
ATOM      4  C   UNL     1       0.693   9.840  21.848  0.00  0.00    +0.000 A 
ATOM      5  O   UNL     1       0.343  10.162  22.983  0.00  0.00    +0.000 OA
ATOM      6  N   UNL     1       0.629  10.673  20.736  0.00  0.00    +0.000 N 
ATOM      7  C   UNL     1       1.097  10.249  19.492  0.00  0.00    +0.000 A 
ATOM      8  O   UNL     1       1.142  10.984  18.502  0.00  0.00    +0.000 OA
ENDROOT
BRANCH   1   9
ATOM      9  C   UNL     1       1.866   8.338  18.055  0.00  0.00    +0.000 C 
BRANCH   9  11
ATOM     10  O   UNL     1       3.950   7.155  18.261  0.00  0.00    +0.000 OA
ATOM     11  C   UNL     1       2.723   7.075  18.192  0.00  0.00    +0.000 C 
ATOM     12  N   UNL     1       1.979   5.913  18.154  0.00  0.00    +0.000 N 
ATOM     13  H   UNL     1       1.008   5.998  17.844  0.00  0.00    +0.000 HD
BRANCH  12  14
ATOM     14  C   UNL     1       2.467   4.586  18.255  0.00  0.00    +0.000 A 
ATOM     15  C   UNL     1       3.346   4.029  17.321  0.00  0.00    +0.000 A 
ATOM     16  C   UNL     1       3.728   2.687  17.415  0.00  0.00    +0.000 A 
ATOM     17  C   UNL     1       3.257   1.893  18.457  0.00  0.00    +0.000 A 
ATOM     18  C   UNL     1       2.428   2.450  19.430  0.00  0.00    +0.000 A 
ATOM     19  C   UNL     1       2.044   3.791  19.335  0.00  0.00    +0.000 A 
ATOM     20 CL   UNL     1       1.010   4.431  20.565  0.00  0.00    +0.000 Cl
ENDBRANCH  12  14
ENDBRANCH   9  11
ENDBRANCH   1   9
BRANCH   6  21
ATOM     21  C   UNL     1       0.016  12.088  20.901  0.00  0.00    +0.000 C 
BRANCH  21  22
ATOM     22  C   UNL     1      -1.532  12.203  20.833  0.00  0.00    +0.000 A 
ATOM     23  C   UNL     1      -1.995  12.317  19.531  0.00  0.00    +0.000 A 
ATOM     24  C   UNL     1      -3.314  12.047  19.273  0.00  0.00    +0.000 A 
ATOM     25  C   UNL     1      -4.124  12.786  20.070  0.00  0.00    +0.000 A 
ATOM     26  C   UNL     1      -3.856  12.813  21.428  0.00  0.00    +0.000 A 
ATOM     27  C   UNL     1      -4.949  13.217  22.230  0.00  0.00    +0.000 A 
ATOM     28  C   UNL     1      -4.932  13.008  23.594  0.00  0.00    +0.000 A 
ATOM     29  C   UNL     1      -3.818  12.426  24.141  0.00  0.00    +0.000 A 
ATOM     30  C   UNL     1      -2.658  12.163  23.343  0.00  0.00    +0.000 A 
ATOM     31  C   UNL     1      -2.590  12.349  21.911  0.00  0.00    +0.000 A 
ENDBRANCH  21  22
ENDBRANCH   6  21
TORSDOF 5
ENDMDL
MODEL 3
REMARK VINA RESULT:      -8.2      0.963      2.058
REMARK  Name = 
REMARK  5 active torsions:
REMARK  status: ('A' for Active; 'I' for Inactive)
REMARK    1  A    between atoms: C_2  and  C_3
REMARK    2  A    between atoms: C_3  and  N_4
REMARK    3  A    between atoms: N_9  and  C_10
REMARK    4  A    between atoms: C_10  and  C_11
REMARK    5  A    between atoms: N_23  and  C_24
REMARK                            x       y       z     vdW  Elec       q    Type
REMARK                         _______ _______ _______ _____ _____    ______ ____
ROOT
ATOM      1  N   UNL     1       2.175   8.420  18.736  0.00  0.00    +0.000 N 
ATOM      2  C   UNL     1       2.010   7.796  19.942  0.00  0.00    +0.000 A 
ATOM      3  C   UNL     1       1.208   8.303  20.874  0.00  0.00    +0.000 A 
ATOM      4  C   UNL     1       0.430   9.527  20.582  0.00  0.00    +0.000 A 
ATOM      5  O   UNL     1      -0.342   9.927  21.452  0.00  0.00    +0.000 OA
ATOM      6  N   UNL     1       0.629  10.150  19.354  0.00  0.00    +0.000 N 
ATOM      7  C   UNL     1       1.564   9.662  18.442  0.00  0.00    +0.000 A 
ATOM      8  O   UNL     1       1.836  10.233  17.383  0.00  0.00    +0.000 OA
ENDROOT
BRANCH   1   9
ATOM      9  C   UNL     1       3.083   7.779  17.766  0.00  0.00    +0.000 C 
BRANCH   9  11
ATOM     10  O   UNL     1       4.651   6.189  18.658  0.00  0.00    +0.000 OA
ATOM     11  C   UNL     1       3.518   6.381  18.216  0.00  0.00    +0.000 C 
ATOM     12  N   UNL     1       2.550   5.420  18.002  0.00  0.00    +0.000 N 
ATOM     13  H   UNL     1       1.764   5.684  17.403  0.00  0.00    +0.000 HD
BRANCH  12  14
ATOM     14  C   UNL     1       2.638   4.039  18.307  0.00  0.00    +0.000 A 
ATOM     15  C   UNL     1       3.431   3.150  17.574  0.00  0.00    +0.000 A 
ATOM     16  C   UNL     1       3.416   1.781  17.858  0.00  0.00    +0.000 A 
ATOM     17  C   UNL     1       2.627   1.288  18.894  0.00  0.00    +0.000 A 
ATOM     18  C   UNL     1       1.878   2.168  19.673  0.00  0.00    +0.000 A 
ATOM     19  C   UNL     1       1.891   3.536  19.387  0.00  0.00    +0.000 A 
ATOM     20 CL   UNL     1       0.939   4.585  20.380  0.00  0.00    +0.000 Cl
ENDBRANCH  12  14
ENDBRANCH   9  11
ENDBRANCH   1   9
BRANCH   6  21
ATOM     21  C   UNL     1      -0.221  11.402  19.010  0.00  0.00    +0.000 C 
BRANCH  21  22
ATOM     22  C   UNL     1      -1.715  11.169  18.649  0.00  0.00    +0.000 A 
ATOM     23  C   UNL     1      -1.869  10.269  17.606  0.00  0.00    +0.000 A 
ATOM     24  C   UNL     1      -3.092   9.674  17.424  0.00  0.00    +0.000 A 
ATOM     25  C   UNL     1      -4.073  10.604  17.322  0.00  0.00    +0.000 A 
ATOM     26  C   UNL     1      -4.121  11.608  18.275  0.00  0.00    +0.000 A 
ATOM     27  C   UNL     1      -5.374  12.257  18.374  0.00  0.00    +0.000 A 
ATOM     28  C   UNL     1      -5.666  13.056  19.460  0.00  0.00    +0.000 A 
ATOM     29  C   UNL     1      -4.696  13.218  20.417  0.00  0.00    +0.000 A 
ATOM     30  C   UNL     1      -3.382  12.681  20.231  0.00  0.00    +0.000 A 
ATOM     31  C   UNL     1      -2.992  11.834  19.126  0.00  0.00    +0.000 A 
ENDBRANCH  21  22
ENDBRANCH   6  21
TORSDOF 5
ENDMDL
MODEL 4
REMARK VINA RESULT:      -8.0      1.060      1.344
REMARK  Name = 
REMARK  5 active torsions:
REMARK  status: ('A' for Active; 'I' for Inactive)
REMARK    1  A    between atoms: C_2  and  C_3
REMARK    2  A    between atoms: C_3  and  N_4
REMARK    3  A    between atoms: N_9  and  C_10
REMARK    4  A    between atoms: C_10  and  C_11
REMARK    5  A    between atoms: N_23  and  C_24
REMARK                            x       y       z     vdW  Elec       q    Type
REMARK                         _______ _______ _______ _____ _____    ______ ____
ROOT
ATOM      1  N   UNL     1       1.529   8.888  19.581  0.00  0.00    +0.000 N 
ATOM      2  C   UNL     1       1.427   8.176  20.745  0.00  0.00    +0.000 A 
ATOM      3  C   UNL     1       0.941   8.733  21.850  0.00  0.00    +0.000 A 
ATOM      4  C   UNL     1       0.441  10.125  21.808  0.00  0.00    +0.000 A 
ATOM      5  O   UNL     1      -0.053  10.580  22.838  0.00  0.00    +0.000 OA
ATOM      6  N   UNL     1       0.572  10.831  20.616  0.00  0.00    +0.000 N 
ATOM      7  C   UNL     1       1.194  10.260  19.506  0.00  0.00    +0.000 A 
ATOM      8  O   UNL     1       1.411  10.879  18.461  0.00  0.00    +0.000 OA
ENDROOT
BRANCH   1   9
ATOM      9  C   UNL     1       2.079   8.182  18.407  0.00  0.00    +0.000 C 
BRANCH   9  11
ATOM     10  O   UNL     1       3.491   6.634  19.588  0.00  0.00    +0.000 OA
ATOM     11  C   UNL     1       2.590   6.782  18.761  0.00  0.00    +0.000 C 
ATOM     12  N   UNL     1       1.991   5.785  18.016  0.00  0.00    +0.000 N 
ATOM     13  H   UNL     1       1.449   6.082  17.201  0.00  0.00    +0.000 HD
BRANCH  12  14
ATOM     14  C   UNL     1       2.240   4.393  18.101  0.00  0.00    +0.000 A 
ATOM     15  C   UNL     1       1.371   3.506  18.746  0.00  0.00    +0.000 A 
ATOM     16  C   UNL     1       1.704   2.155  18.881  0.00  0.00    +0.000 A 
ATOM     17  C   UNL     1       2.896   1.668  18.351  0.00  0.00    +0.000 A 
ATOM     18  C   UNL     1       3.744   2.527  17.653  0.00  0.00    +0.000 A 
ATOM     19  C   UNL     1       3.412   3.878  17.520  0.00  0.00    +0.000 A 
ATOM     20 CL   UNL     1       4.502   4.902  16.649  0.00  0.00    +0.000 Cl
ENDBRANCH  12  14
ENDBRANCH   9  11
ENDBRANCH   1   9
BRANCH   6  21
ATOM     21  C   UNL     1       0.002  12.272  20.539  0.00  0.00    +0.000 C 
BRANCH  21  22
ATOM     22  C   UNL     1      -1.483  12.426  20.108  0.00  0.00    +0.000 A 
ATOM     23  C   UNL     1      -2.267  12.973  21.113  0.00  0.00    +0.000 A 
ATOM     24  C   UNL     1      -3.481  13.519  20.779  0.00  0.00    +0.000 A 
ATOM     25  C   UNL     1      -4.240  12.629  20.093  0.00  0.00    +0.000 A 
ATOM     26  C   UNL     1      -3.660  11.962  19.028  0.00  0.00    +0.000 A 
ATOM     27  C   UNL     1      -4.587  11.407  18.114  0.00  0.00    +0.000 A 
ATOM     28  C   UNL     1      -4.175  10.982  16.868  0.00  0.00    +0.000 A 
ATOM     29  C   UNL     1      -2.842  11.090  16.561  0.00  0.00    +0.000 A 
ATOM     30  C   UNL     1      -1.892  11.509  17.547  0.00  0.00    +0.000 A 
ATOM     31  C   UNL     1      -2.237  11.972  18.872  0.00  0.00    +0.000 A 
ENDBRANCH  21  22
ENDBRANCH   6  21
TORSDOF 5
ENDMDL
MODEL 5
REMARK VINA RESULT:      -8.0      2.619      8.662
REMARK  Name = 
REMARK  5 active torsions:
REMARK  status: ('A' for Active; 'I' for Inactive)
REMARK    1  A    between atoms: C_2  and  C_3
REMARK    2  A    between atoms: C_3  and  N_4
REMARK    3  A    between atoms: N_9  and  C_10
REMARK    4  A    between atoms: C_10  and  C_11
REMARK    5  A    between atoms: N_23  and  C_24
REMARK                            x       y       z     vdW  Elec       q    Type
REMARK                         _______ _______ _______ _____ _____    ______ ____
ROOT
ATOM      1  N   UNL     1      -0.239  10.018  18.905  0.00  0.00    +0.000 N 
ATOM      2  C   UNL     1      -0.723   9.930  20.181  0.00  0.00    +0.000 A 
ATOM      3  C   UNL     1      -0.097   9.207  21.105  0.00  0.00    +0.000 A 
ATOM      4  C   UNL     1       1.179   8.539  20.769  0.00  0.00    +0.000 A 
ATOM      5  O   UNL     1       1.753   7.929  21.670  0.00  0.00    +0.000 OA
ATOM      6  N   UNL     1       1.641   8.631  19.459  0.00  0.00    +0.000 N 
ATOM      7  C   UNL     1       0.903   9.297  18.482  0.00  0.00    +0.000 A 
ATOM      8  O   UNL     1       1.229   9.327  17.293  0.00  0.00    +0.000 OA
ENDROOT
BRANCH   1   9
ATOM      9  C   UNL     1      -1.002  10.847  17.952  0.00  0.00    +0.000 C 
BRANCH   9  11
ATOM     10  O   UNL     1      -3.010   9.526  17.848  0.00  0.00    +0.000 OA
ATOM     11  C   UNL     1      -2.514  10.630  18.078  0.00  0.00    +0.000 C 
ATOM     12  N   UNL     1      -3.200  11.786  18.391  0.00  0.00    +0.000 N 
ATOM     13  H   UNL     1      -2.683  12.665  18.304  0.00  0.00    +0.000 HD
BRANCH  12  14
ATOM     14  C   UNL     1      -4.597  11.924  18.577  0.00  0.00    +0.000 A 
ATOM     15  C   UNL     1      -5.528  11.643  17.571  0.00  0.00    +0.000 A 
ATOM     16  C   UNL     1      -6.891  11.879  17.775  0.00  0.00    +0.000 A 
ATOM     17  C   UNL     1      -7.343  12.374  18.995  0.00  0.00    +0.000 A 
ATOM     18  C   UNL     1      -6.436  12.602  20.028  0.00  0.00    +0.000 A 
ATOM     19  C   UNL     1      -5.073  12.368  19.823  0.00  0.00    +0.000 A 
ATOM     20 CL   UNL     1      -3.989  12.672  21.137  0.00  0.00    +0.000 Cl
ENDBRANCH  12  14
ENDBRANCH   9  11
ENDBRANCH   1   9
BRANCH   6  21
ATOM     21  C   UNL     1       3.006   7.984  19.104  0.00  0.00    +0.000 C 
BRANCH  21  22
ATOM     22  C   UNL     1       2.989   6.498  18.649  0.00  0.00    +0.000 A 
ATOM     23  C   UNL     1       3.678   6.306  17.461  0.00  0.00    +0.000 A 
ATOM     24  C   UNL     1       4.080   5.036  17.129  0.00  0.00    +0.000 A 
ATOM     25  C   UNL     1       3.031   4.177  17.149  0.00  0.00    +0.000 A 
ATOM     26  C   UNL     1       2.201   4.186  18.257  0.00  0.00    +0.000 A 
ATOM     27  C   UNL     1       1.427   3.012  18.414  0.00  0.00    +0.000 A 
ATOM     28  C   UNL     1       0.789   2.748  19.609  0.00  0.00    +0.000 A 
ATOM     29  C   UNL     1       0.910   3.668  20.619  0.00  0.00    +0.000 A 
ATOM     30  C   UNL     1       1.566   4.921  20.397  0.00  0.00    +0.000 A 
ATOM     31  C   UNL     1       2.260   5.278  19.180  0.00  0.00    +0.000 A 
ENDBRANCH  21  22
ENDBRANCH   6  21
TORSDOF 5
ENDMDL
MODEL 6
REMARK VINA RESULT:      -7.9      2.927      8.905
REMARK  Name = 
REMARK  5 active torsions:
REMARK  status: ('A' for Active; 'I' for Inactive)
REMARK    1  A    between atoms: C_2  and  C_3
REMARK    2  A    between atoms: C_3  and  N_4
REMARK    3  A    between atoms: N_9  and  C_10
REMARK    4  A    between atoms: C_10  and  C_11
REMARK    5  A    between atoms: N_23  and  C_24
REMARK                            x       y       z     vdW  Elec       q    Type
REMARK                         _______ _______ _______ _____ _____    ______ ____
ROOT
ATOM      1  N   UNL     1       0.259   8.980  20.410  0.00  0.00    +0.000 N 
ATOM      2  C   UNL     1      -0.126   9.734  19.335  0.00  0.00    +0.000 A 
ATOM      3  C   UNL     1       0.604   9.768  18.224  0.00  0.00    +0.000 A 
ATOM      4  C   UNL     1       1.817   8.927  18.120  0.00  0.00    +0.000 A 
ATOM      5  O   UNL     1       2.429   8.946  17.053  0.00  0.00    +0.000 OA
ATOM      6  N   UNL     1       2.194   8.182  19.233  0.00  0.00    +0.000 N 
ATOM      7  C   UNL     1       1.475   8.258  20.426  0.00  0.00    +0.000 A 
ATOM      8  O   UNL     1       1.825   7.686  21.461  0.00  0.00    +0.000 OA
ENDROOT
BRANCH   1   9
ATOM      9  C   UNL     1      -0.618   9.005  21.597  0.00  0.00    +0.000 C 
BRANCH   9  11
ATOM     10  O   UNL     1       0.142  10.141  23.575  0.00  0.00    +0.000 OA
ATOM     11  C   UNL     1      -0.381  10.244  22.465  0.00  0.00    +0.000 C 
ATOM     12  N   UNL     1      -0.873  11.402  21.897  0.00  0.00    +0.000 N 
ATOM     13  H   UNL     1      -1.498  11.292  21.094  0.00  0.00    +0.000 HD
BRANCH  12  14
ATOM     14  C   UNL     1      -0.814  12.709  22.440  0.00  0.00    +0.000 A 
ATOM     15  C   UNL     1      -1.646  13.136  23.480  0.00  0.00    +0.000 A 
ATOM     16  C   UNL     1      -1.612  14.462  23.922  0.00  0.00    +0.000 A 
ATOM     17  C   UNL     1      -0.728  15.371  23.348  0.00  0.00    +0.000 A 
ATOM     18  C   UNL     1       0.150  14.947  22.352  0.00  0.00    +0.000 A 
ATOM     19  C   UNL     1       0.114  13.622  21.909  0.00  0.00    +0.000 A 
ATOM     20 CL   UNL     1       1.222  13.148  20.666  0.00  0.00    +0.000 Cl
ENDBRANCH  12  14
ENDBRANCH   9  11
ENDBRANCH   1   9
BRANCH   6  21
ATOM     21  C   UNL     1       3.431   7.253  19.122  0.00  0.00    +0.000 C 
BRANCH  21  22
ATOM     22  C   UNL     1       3.182   5.793  18.650  0.00  0.00    +0.000 A 
ATOM     23  C   UNL     1       3.727   5.545  17.399  0.00  0.00    +0.000 A 
ATOM     24  C   UNL     1       3.930   4.244  17.015  0.00  0.00    +0.000 A 
ATOM     25  C   UNL     1       2.787   3.523  17.123  0.00  0.00    +0.000 A 
ATOM     26  C   UNL     1       2.072   3.609  18.306  0.00  0.00    +0.000 A 
ATOM     27  C   UNL     1       1.172   2.538  18.521  0.00  0.00    +0.000 A 
ATOM     28  C   UNL     1       0.620   2.327  19.767  0.00  0.00    +0.000 A 
ATOM     29  C   UNL     1       0.950   3.200  20.773  0.00  0.00    +0.000 A 
ATOM     30  C   UNL     1       1.738   4.365  20.506  0.00  0.00    +0.000 A 
ATOM     31  C   UNL     1       2.355   4.662  19.233  0.00  0.00    +0.000 A 
ENDBRANCH  21  22
ENDBRANCH   6  21
TORSDOF 5
ENDMDL
MODEL 7
REMARK VINA RESULT:      -7.9      2.948      8.908
REMARK  Name = 
REMARK  5 active torsions:
REMARK  status: ('A' for Active; 'I' for Inactive)
REMARK    1  A    between atoms: C_2  and  C_3
REMARK    2  A    between atoms: C_3  and  N_4
REMARK    3  A    between atoms: N_9  and  C_10
REMARK    4  A    between atoms: C_10  and  C_11
REMARK    5  A    between atoms: N_23  and  C_24
REMARK                            x       y       z     vdW  Elec       q    Type
REMARK                         _______ _______ _______ _____ _____    ______ ____
ROOT
ATOM      1  N   UNL     1       0.173   9.044  20.384  0.00  0.00    +0.000 N 
ATOM      2  C   UNL     1      -0.233   9.758  19.289  0.00  0.00    +0.000 A 
ATOM      3  C   UNL     1       0.492   9.777  18.175  0.00  0.00    +0.000 A 
ATOM      4  C   UNL     1       1.725   8.963  18.090  0.00  0.00    +0.000 A 
ATOM      5  O   UNL     1       2.332   8.966  17.020  0.00  0.00    +0.000 OA
ATOM      6  N   UNL     1       2.123   8.260  19.222  0.00  0.00    +0.000 N 
ATOM      7  C   UNL     1       1.407   8.352  20.415  0.00  0.00    +0.000 A 
ATOM      8  O   UNL     1       1.773   7.818  21.465  0.00  0.00    +0.000 OA
ENDROOT
BRANCH   1   9
ATOM      9  C   UNL     1      -0.700   9.082  21.573  0.00  0.00    +0.000 C 
BRANCH   9  11
ATOM     10  O   UNL     1       0.119  10.270  23.496  0.00  0.00    +0.000 OA
ATOM     11  C   UNL     1      -0.472  10.339  22.418  0.00  0.00    +0.000 C 
ATOM     12  N   UNL     1      -1.051  11.467  21.872  0.00  0.00    +0.000 N 
ATOM     13  H   UNL     1      -1.716  11.320  21.109  0.00  0.00    +0.000 HD
BRANCH  12  14
ATOM     14  C   UNL     1      -1.023  12.780  22.403  0.00  0.00    +0.000 A 
ATOM     15  C   UNL     1      -0.056  13.724  22.041  0.00  0.00    +0.000 A 
ATOM     16  C   UNL     1      -0.016  14.977  22.659  0.00  0.00    +0.000 A 
ATOM     17  C   UNL     1      -0.958  15.312  23.629  0.00  0.00    +0.000 A 
ATOM     18  C   UNL     1      -1.964  14.406  23.958  0.00  0.00    +0.000 A 
ATOM     19  C   UNL     1      -2.002  13.152  23.342  0.00  0.00    +0.000 A 
ATOM     20 CL   UNL     1      -3.268  12.062  23.791  0.00  0.00    +0.000 Cl
ENDBRANCH  12  14
ENDBRANCH   9  11
ENDBRANCH   1   9
BRANCH   6  21
ATOM     21  C   UNL     1       3.382   7.357  19.132  0.00  0.00    +0.000 C 
BRANCH  21  22
ATOM     22  C   UNL     1       3.172   5.890  18.665  0.00  0.00    +0.000 A 
ATOM     23  C   UNL     1       3.720   5.654  17.413  0.00  0.00    +0.000 A 
ATOM     24  C   UNL     1       3.958   4.358  17.031  0.00  0.00    +0.000 A 
ATOM     25  C   UNL     1       2.835   3.607  17.144  0.00  0.00    +0.000 A 
ATOM     26  C   UNL     1       2.120   3.676  18.328  0.00  0.00    +0.000 A 
ATOM     27  C   UNL     1       1.251   2.582  18.548  0.00  0.00    +0.000 A 
ATOM     28  C   UNL     1       0.707   2.358  19.796  0.00  0.00    +0.000 A 
ATOM     29  C   UNL     1       1.016   3.242  20.799  0.00  0.00    +0.000 A 
ATOM     30  C   UNL     1       1.771   4.428  20.527  0.00  0.00    +0.000 A 
ATOM     31  C   UNL     1       2.377   4.738  19.252  0.00  0.00    +0.000 A 
ENDBRANCH  21  22
ENDBRANCH   6  21
TORSDOF 5
ENDMDL
MODEL 8
REMARK VINA RESULT:      -7.8      1.764      2.830
REMARK  Name = 
REMARK  5 active torsions:
REMARK  status: ('A' for Active; 'I' for Inactive)
REMARK    1  A    between atoms: C_2  and  C_3
REMARK    2  A    between atoms: C_3  and  N_4
REMARK    3  A    between atoms: N_9  and  C_10
REMARK    4  A    between atoms: C_10  and  C_11
REMARK    5  A    between atoms: N_23  and  C_24
REMARK                            x       y       z     vdW  Elec       q    Type
REMARK                         _______ _______ _______ _____ _____    ______ ____
ROOT
ATOM      1  N   UNL     1       0.782   9.430  21.813  0.00  0.00    +0.000 N 
ATOM      2  C   UNL     1       0.125   9.503  23.011  0.00  0.00    +0.000 A 
ATOM      3  C   UNL     1      -0.835  10.400  23.214  0.00  0.00    +0.000 A 
ATOM      4  C   UNL     1      -1.246  11.293  22.109  0.00  0.00    +0.000 A 
ATOM      5  O   UNL     1      -2.178  12.068  22.324  0.00  0.00    +0.000 OA
ATOM      6  N   UNL     1      -0.551  11.210  20.906  0.00  0.00    +0.000 N 
ATOM      7  C   UNL     1       0.530  10.341  20.760  0.00  0.00    +0.000 A 
ATOM      8  O   UNL     1       1.229  10.299  19.744  0.00  0.00    +0.000 OA
ENDROOT
BRANCH   1   9
ATOM      9  C   UNL     1       1.830   8.400  21.682  0.00  0.00    +0.000 C 
BRANCH   9  11
ATOM     10  O   UNL     1       0.149   6.881  20.875  0.00  0.00    +0.000 OA
ATOM     11  C   UNL     1       1.345   7.177  20.898  0.00  0.00    +0.000 C 
ATOM     12  N   UNL     1       2.376   6.461  20.323  0.00  0.00    +0.000 N 
ATOM     13  H   UNL     1       3.323   6.686  20.636  0.00  0.00    +0.000 HD
BRANCH  12  14
ATOM     14  C   UNL     1       2.264   5.288  19.537  0.00  0.00    +0.000 A 
ATOM     15  C   UNL     1       2.217   5.313  18.139  0.00  0.00    +0.000 A 
ATOM     16  C   UNL     1       2.016   4.136  17.412  0.00  0.00    +0.000 A 
ATOM     17  C   UNL     1       1.883   2.917  18.071  0.00  0.00    +0.000 A 
ATOM     18  C   UNL     1       1.987   2.866  19.460  0.00  0.00    +0.000 A 
ATOM     19  C   UNL     1       2.186   4.043  20.187  0.00  0.00    +0.000 A 
ATOM     20 CL   UNL     1       2.302   3.926  21.910  0.00  0.00    +0.000 Cl
ENDBRANCH  12  14
ENDBRANCH   9  11
ENDBRANCH   1   9
BRANCH   6  21
ATOM     21  C   UNL     1      -1.007  12.099  19.720  0.00  0.00    +0.000 C 
BRANCH  21  22
ATOM     22  C   UNL     1      -2.161  11.559  18.830  0.00  0.00    +0.000 A 
ATOM     23  C   UNL     1      -1.698  10.758  17.798  0.00  0.00    +0.000 A 
ATOM     24  C   UNL     1      -2.579   9.913  17.172  0.00  0.00    +0.000 A 
ATOM     25  C   UNL     1      -3.662  10.593  16.720  0.00  0.00    +0.000 A 
ATOM     26  C   UNL     1      -4.302  11.455  17.594  0.00  0.00    +0.000 A 
ATOM     27  C   UNL     1      -5.629  11.779  17.226  0.00  0.00    +0.000 A 
ATOM     28  C   UNL     1      -6.483  12.373  18.132  0.00  0.00    +0.000 A 
ATOM     29  C   UNL     1      -5.995  12.660  19.381  0.00  0.00    +0.000 A 
ATOM     30  C   UNL     1      -4.610  12.470  19.691  0.00  0.00    +0.000 A 
ATOM     31  C   UNL     1      -3.649  11.854  18.804  0.00  0.00    +0.000 A 
ENDBRANCH  21  22
ENDBRANCH   6  21
TORSDOF 5
ENDMDL
MODEL 9
REMARK VINA RESULT:      -7.8      2.891      8.980
REMARK  Name = 
REMARK  5 active torsions:
REMARK  status: ('A' for Active; 'I' for Inactive)
REMARK    1  A    between atoms: C_2  and  C_3
REMARK    2  A    between atoms: C_3  and  N_4
REMARK    3  A    between atoms: N_9  and  C_10
REMARK    4  A    between atoms: C_10  and  C_11
REMARK    5  A    between atoms: N_23  and  C_24
REMARK                            x       y       z     vdW  Elec       q    Type
REMARK                         _______ _______ _______ _____ _____    ______ ____
ROOT
ATOM      1  N   UNL     1       2.078   8.227  18.811  0.00  0.00    +0.000 N 
ATOM      2  C   UNL     1       1.468   8.316  20.033  0.00  0.00    +0.000 A 
ATOM      3  C   UNL     1       1.432   7.276  20.860  0.00  0.00    +0.000 A 
ATOM      4  C   UNL     1       2.117   6.019  20.484  0.00  0.00    +0.000 A 
ATOM      5  O   UNL     1       2.107   5.103  21.305  0.00  0.00    +0.000 OA
ATOM      6  N   UNL     1       2.715   5.950  19.230  0.00  0.00    +0.000 N 
ATOM      7  C   UNL     1       2.635   7.016  18.335  0.00  0.00    +0.000 A 
ATOM      8  O   UNL     1       3.072   6.965  17.183  0.00  0.00    +0.000 OA
ENDROOT
BRANCH   1   9
ATOM      9  C   UNL     1       2.069   9.436  17.965  0.00  0.00    +0.000 C 
BRANCH   9  11
ATOM     10  O   UNL     1       1.390  11.456  19.080  0.00  0.00    +0.000 OA
ATOM     11  C   UNL     1       1.038  10.466  18.438  0.00  0.00    +0.000 C 
ATOM     12  N   UNL     1      -0.260  10.111  18.127  0.00  0.00    +0.000 N 
ATOM     13  H   UNL     1      -0.412   9.148  17.816  0.00  0.00    +0.000 HD
BRANCH  12  14
ATOM     14  C   UNL     1      -1.436  10.843  18.422  0.00  0.00    +0.000 A 
ATOM     15  C   UNL     1      -1.571  11.632  19.569  0.00  0.00    +0.000 A 
ATOM     16  C   UNL     1      -2.783  12.264  19.861  0.00  0.00    +0.000 A 
ATOM     17  C   UNL     1      -3.868  12.136  18.998  0.00  0.00    +0.000 A 
ATOM     18  C   UNL     1      -3.732  11.402  17.821  0.00  0.00    +0.000 A 
ATOM     19  C   UNL     1      -2.521  10.768  17.530  0.00  0.00    +0.000 A 
ATOM     20 CL   UNL     1      -2.407   9.865  16.058  0.00  0.00    +0.000 Cl
ENDBRANCH  12  14
ENDBRANCH   9  11
ENDBRANCH   1   9
BRANCH   6  21
ATOM     21  C   UNL     1       3.485   4.660  18.844  0.00  0.00    +0.000 C 
BRANCH  21  22
ATOM     22  C   UNL     1       4.927   4.832  18.290  0.00  0.00    +0.000 A 
ATOM     23  C   UNL     1       5.784   5.395  19.223  0.00  0.00    +0.000 A 
ATOM     24  C   UNL     1       7.137   5.264  19.040  0.00  0.00    +0.000 A 
ATOM     25  C   UNL     1       7.504   5.709  17.813  0.00  0.00    +0.000 A 
ATOM     26  C   UNL     1       6.786   5.264  16.716  0.00  0.00    +0.000 A 
ATOM     27  C   UNL     1       7.465   5.399  15.482  0.00  0.00    +0.000 A 
ATOM     28  C   UNL     1       7.014   4.738  14.358  0.00  0.00    +0.000 A 
ATOM     29  C   UNL     1       5.880   3.974  14.473  0.00  0.00    +0.000 A 
ATOM     30  C   UNL     1       5.118   3.968  15.685  0.00  0.00    +0.000 A 
ATOM     31  C   UNL     1       5.517   4.630  16.907  0.00  0.00    +0.000 A 
ENDBRANCH  21  22
ENDBRANCH   6  21
TORSDOF 5
ENDMDL
