MODEL 1
REMARK VINA RESULT:      -8.1      0.000      0.000
REMARK  Name = 
REMARK  3 active torsions:
REMARK  status: ('A' for Active; 'I' for Inactive)
REMARK    1  A    between atoms: N_1  and  C_2
REMARK    2  A    between atoms: C_9  and  C_10
REMARK    3  A    between atoms: C_9  and  C_16
REMARK                            x       y       z     vdW  Elec       q    Type
REMARK                         _______ _______ _______ _____ _____    ______ ____
ROOT
ATOM      1  C   UNL     1       6.962   7.884  17.746  0.00  0.00    +0.000 A 
ATOM      2  C   UNL     1       8.072   7.092  18.079  0.00  0.00    +0.000 A 
ATOM      3  C   UNL     1       7.909   5.778  18.514  0.00  0.00    +0.000 A 
ATOM      4  C   UNL     1       6.617   5.299  18.625  0.00  0.00    +0.000 A 
ATOM      5  C   UNL     1       5.485   6.057  18.311  0.00  0.00    +0.000 A 
ATOM      6  C   UNL     1       5.682   7.310  17.757  0.00  0.00    +0.000 A 
ATOM      7  C   UNL     1       4.300   5.210  18.613  0.00  0.00    +0.000 C 
ATOM      8  C   UNL     1       2.979   5.501  18.791  0.00  0.00    +0.000 C 
ATOM      9  C   UNL     1       4.893   3.828  18.924  0.00  0.00    +0.000 C 
ATOM     10  O   UNL     1       4.339   2.762  19.106  0.00  0.00    +0.000 OA
ATOM     11  N   UNL     1       6.261   4.009  18.979  0.00  0.00    +0.000 N 
ATOM     12  H   UNL     1       6.896   3.249  19.179  0.00  0.00    +0.000 HD
ENDROOT
BRANCH   8  13
ATOM     13  C   UNL     1       2.484   6.858  18.753  0.00  0.00    +0.000 A 
ATOM     14  N   UNL     1       2.600   7.816  17.857  0.00  0.00    +0.000 NA
ATOM     15  C   UNL     1       2.065   8.953  18.388  0.00  0.00    +0.000 A 
ATOM     16  C   UNL     1       1.965  10.236  17.836  0.00  0.00    +0.000 A 
ATOM     17  C   UNL     1       1.441  11.264  18.627  0.00  0.00    +0.000 A 
ATOM     18  C   UNL     1       1.030  11.009  19.939  0.00  0.00    +0.000 A 
ATOM     19  C   UNL     1       1.088   9.720  20.490  0.00  0.00    +0.000 A 
ATOM     20  C   UNL     1       1.603   8.714  19.672  0.00  0.00    +0.000 A 
ATOM     21  N   UNL     1       1.794   7.363  19.846  0.00  0.00    +0.000 N 
ATOM     22  H   UNL     1       1.525   6.834  20.663  0.00  0.00    +0.000 HD
ENDBRANCH   8  13
BRANCH   8  23
ATOM     23  C   UNL     1       2.075   4.379  19.173  0.00  0.00    +0.000 A 
ATOM     24  C   UNL     1       1.867   4.075  20.528  0.00  0.00    +0.000 A 
ATOM     25  C   UNL     1       1.093   2.971  20.889  0.00  0.00    +0.000 A 
ATOM     26  C   UNL     1       0.514   2.175  19.902  0.00  0.00    +0.000 A 
ATOM     27  C   UNL     1       0.691   2.488  18.554  0.00  0.00    +0.000 A 
ATOM     28  C   UNL     1       1.464   3.591  18.187  0.00  0.00    +0.000 A 
ENDBRANCH   8  23
BRANCH   1  29
ATOM     29  N   UNL     1       7.140   9.164  17.203  0.00  0.00    +0.000 N 
ATOM     30  H   UNL     1       8.115   9.395  17.046  0.00  0.00    +0.000 HD
ATOM     31  H   UNL     1       6.674   9.878  17.759  0.00  0.00    +0.000 HD
ENDBRANCH   1  29
TORSDOF 3
ENDMDL
MODEL 2
REMARK VINA RESULT:      -7.9      0.336      1.145
REMARK  Name = 
REMARK  3 active torsions:
REMARK  status: ('A' for Active; 'I' for Inactive)
REMARK    1  A    between atoms: N_1  and  C_2
REMARK    2  A    between atoms: C_9  and  C_10
REMARK    3  A    between atoms: C_9  and  C_16
REMARK                            x       y       z     vdW  Elec       q    Type
REMARK                         _______ _______ _______ _____ _____    ______ ____
ROOT
ATOM      1  C   UNL     1       6.882   7.807  17.733  0.00  0.00    +0.000 A 
ATOM      2  C   UNL     1       7.988   6.947  17.826  0.00  0.00    +0.000 A 
ATOM      3  C   UNL     1       7.820   5.595  18.118  0.00  0.00    +0.000 A 
ATOM      4  C   UNL     1       6.531   5.144  18.332  0.00  0.00    +0.000 A 
ATOM      5  C   UNL     1       5.405   5.968  18.258  0.00  0.00    +0.000 A 
ATOM      6  C   UNL     1       5.589   7.274  17.837  0.00  0.00    +0.000 A 
ATOM      7  C   UNL     1       4.229   5.126  18.603  0.00  0.00    +0.000 C 
ATOM      8  C   UNL     1       2.953   5.431  18.980  0.00  0.00    +0.000 C 
ATOM      9  C   UNL     1       4.792   3.699  18.669  0.00  0.00    +0.000 C 
ATOM     10  O   UNL     1       4.217   2.635  18.791  0.00  0.00    +0.000 OA
ATOM     11  N   UNL     1       6.164   3.831  18.572  0.00  0.00    +0.000 N 
ATOM     12  H   UNL     1       6.783   3.034  18.598  0.00  0.00    +0.000 HD
ENDROOT
BRANCH   8  13
ATOM     13  C   UNL     1       2.518   6.796  19.167  0.00  0.00    +0.000 A 
ATOM     14  N   UNL     1       2.111   7.456  20.233  0.00  0.00    +0.000 NA
ATOM     15  C   UNL     1       1.676   8.682  19.825  0.00  0.00    +0.000 A 
ATOM     16  C   UNL     1       1.137   9.734  20.576  0.00  0.00    +0.000 A 
ATOM     17  C   UNL     1       0.685  10.873  19.901  0.00  0.00    +0.000 A 
ATOM     18  C   UNL     1       0.772  10.952  18.507  0.00  0.00    +0.000 A 
ATOM     19  C   UNL     1       1.346   9.922  17.747  0.00  0.00    +0.000 A 
ATOM     20  C   UNL     1       1.799   8.805  18.451  0.00  0.00    +0.000 A 
ATOM     21  N   UNL     1       2.419   7.638  18.068  0.00  0.00    +0.000 N 
ATOM     22  H   UNL     1       2.704   7.408  17.128  0.00  0.00    +0.000 HD
ENDBRANCH   8  13
BRANCH   8  23
ATOM     23  C   UNL     1       2.053   4.298  19.337  0.00  0.00    +0.000 A 
ATOM     24  C   UNL     1       1.930   3.892  20.675  0.00  0.00    +0.000 A 
ATOM     25  C   UNL     1       1.159   2.776  21.002  0.00  0.00    +0.000 A 
ATOM     26  C   UNL     1       0.497   2.069  19.999  0.00  0.00    +0.000 A 
ATOM     27  C   UNL     1       0.590   2.483  18.670  0.00  0.00    +0.000 A 
ATOM     28  C   UNL     1       1.360   3.600  18.337  0.00  0.00    +0.000 A 
ENDBRANCH   8  23
BRANCH   1  29
ATOM     29  N   UNL     1       7.050   9.138  17.329  0.00  0.00    +0.000 N 
ATOM     30  H   UNL     1       7.315   9.753  18.092  0.00  0.00    +0.000 HD
ATOM     31  H   UNL     1       6.231   9.489  16.836  0.00  0.00    +0.000 HD
ENDBRANCH   1  29
TORSDOF 3
ENDMDL
MODEL 3
REMARK VINA RESULT:      -7.5      7.126      9.255
REMARK  Name = 
REMARK  3 active torsions:
REMARK  status: ('A' for Active; 'I' for Inactive)
REMARK    1  A    between atoms: N_1  and  C_2
REMARK    2  A    between atoms: C_9  and  C_10
REMARK    3  A    between atoms: C_9  and  C_16
REMARK                            x       y       z     vdW  Elec       q    Type
REMARK                         _______ _______ _______ _____ _____    ______ ____
ROOT
ATOM      1  C   UNL     1       2.265  13.029  18.496  0.00  0.00    +0.000 A 
ATOM      2  C   UNL     1       3.011  14.124  18.960  0.00  0.00    +0.000 A 
ATOM      3  C   UNL     1       2.601  14.847  20.079  0.00  0.00    +0.000 A 
ATOM      4  C   UNL     1       1.426  14.457  20.694  0.00  0.00    +0.000 A 
ATOM      5  C   UNL     1       0.650  13.379  20.259  0.00  0.00    +0.000 A 
ATOM      6  C   UNL     1       1.149  12.600  19.229  0.00  0.00    +0.000 A 
ATOM      7  C   UNL     1      -0.546  13.323  21.141  0.00  0.00    +0.000 C 
ATOM      8  C   UNL     1      -1.755  12.703  21.019  0.00  0.00    +0.000 C 
ATOM      9  C   UNL     1      -0.249  14.349  22.245  0.00  0.00    +0.000 C 
ATOM     10  O   UNL     1      -0.852  14.589  23.272  0.00  0.00    +0.000 OA
ATOM     11  N   UNL     1       0.895  15.012  21.845  0.00  0.00    +0.000 N 
ATOM     12  H   UNL     1       1.306  15.752  22.395  0.00  0.00    +0.000 HD
ENDROOT
BRANCH   8  13
ATOM     13  C   UNL     1      -2.112  11.952  19.838  0.00  0.00    +0.000 A 
ATOM     14  N   UNL     1      -1.512  10.966  19.202  0.00  0.00    +0.000 NA
ATOM     15  C   UNL     1      -2.209  10.722  18.055  0.00  0.00    +0.000 A 
ATOM     16  C   UNL     1      -1.962   9.787  17.042  0.00  0.00    +0.000 A 
ATOM     17  C   UNL     1      -2.789   9.793  15.913  0.00  0.00    +0.000 A 
ATOM     18  C   UNL     1      -3.835  10.714  15.806  0.00  0.00    +0.000 A 
ATOM     19  C   UNL     1      -4.117  11.630  16.831  0.00  0.00    +0.000 A 
ATOM     20  C   UNL     1      -3.283  11.590  17.949  0.00  0.00    +0.000 A 
ATOM     21  N   UNL     1      -3.256  12.295  19.130  0.00  0.00    +0.000 N 
ATOM     22  H   UNL     1      -3.930  12.992  19.412  0.00  0.00    +0.000 HD
ENDBRANCH   8  13
BRANCH   8  23
ATOM     23  C   UNL     1      -2.764  12.947  22.090  0.00  0.00    +0.000 A 
ATOM     24  C   UNL     1      -2.807  12.113  23.218  0.00  0.00    +0.000 A 
ATOM     25  C   UNL     1      -3.804  12.282  24.179  0.00  0.00    +0.000 A 
ATOM     26  C   UNL     1      -4.755  13.291  24.025  0.00  0.00    +0.000 A 
ATOM     27  C   UNL     1      -4.701  14.143  22.921  0.00  0.00    +0.000 A 
ATOM     28  C   UNL     1      -3.704  13.979  21.958  0.00  0.00    +0.000 A 
ENDBRANCH   8  23
BRANCH   1  29
ATOM     29  N   UNL     1       2.742  12.240  17.441  0.00  0.00    +0.000 N 
ATOM     30  H   UNL     1       2.316  12.471  16.549  0.00  0.00    +0.000 HD
ATOM     31  H   UNL     1       2.661  11.246  17.646  0.00  0.00    +0.000 HD
ENDBRANCH   1  29
TORSDOF 3
ENDMDL
MODEL 4
REMARK VINA RESULT:      -7.2      4.992      9.015
REMARK  Name = 
REMARK  3 active torsions:
REMARK  status: ('A' for Active; 'I' for Inactive)
REMARK    1  A    between atoms: N_1  and  C_2
REMARK    2  A    between atoms: C_9  and  C_10
REMARK    3  A    between atoms: C_9  and  C_16
REMARK                            x       y       z     vdW  Elec       q    Type
REMARK                         _______ _______ _______ _____ _____    ______ ____
ROOT
ATOM      1  C   UNL     1       3.323  14.880  18.108  0.00  0.00    +0.000 A 
ATOM      2  C   UNL     1       3.012  16.199  17.743  0.00  0.00    +0.000 A 
ATOM      3  C   UNL     1       1.796  16.775  18.108  0.00  0.00    +0.000 A 
ATOM      4  C   UNL     1       0.908  15.991  18.820  0.00  0.00    +0.000 A 
ATOM      5  C   UNL     1       1.175  14.672  19.196  0.00  0.00    +0.000 A 
ATOM      6  C   UNL     1       2.440  14.172  18.936  0.00  0.00    +0.000 A 
ATOM      7  C   UNL     1      -0.039  14.165  19.889  0.00  0.00    +0.000 C 
ATOM      8  C   UNL     1      -0.469  12.908  20.197  0.00  0.00    +0.000 C 
ATOM      9  C   UNL     1      -0.929  15.406  20.049  0.00  0.00    +0.000 C 
ATOM     10  O   UNL     1      -1.969  15.550  20.661  0.00  0.00    +0.000 OA
ATOM     11  N   UNL     1      -0.314  16.406  19.320  0.00  0.00    +0.000 N 
ATOM     12  H   UNL     1      -0.703  17.335  19.250  0.00  0.00    +0.000 HD
ENDROOT
BRANCH   8  13
ATOM     13  C   UNL     1       0.268  11.730  19.798  0.00  0.00    +0.000 A 
ATOM     14  N   UNL     1       0.650  11.284  18.619  0.00  0.00    +0.000 NA
ATOM     15  C   UNL     1       1.189  10.043  18.796  0.00  0.00    +0.000 A 
ATOM     16  C   UNL     1       1.719   9.157  17.850  0.00  0.00    +0.000 A 
ATOM     17  C   UNL     1       2.138   7.894  18.281  0.00  0.00    +0.000 A 
ATOM     18  C   UNL     1       2.026   7.531  19.627  0.00  0.00    +0.000 A 
ATOM     19  C   UNL     1       1.533   8.423  20.590  0.00  0.00    +0.000 A 
ATOM     20  C   UNL     1       1.136   9.680  20.131  0.00  0.00    +0.000 A 
ATOM     21  N   UNL     1       0.635  10.798  20.758  0.00  0.00    +0.000 N 
ATOM     22  H   UNL     1       0.504  10.901  21.754  0.00  0.00    +0.000 HD
ENDBRANCH   8  13
BRANCH   8  23
ATOM     23  C   UNL     1      -1.809  12.777  20.837  0.00  0.00    +0.000 A 
ATOM     24  C   UNL     1      -2.961  12.677  20.041  0.00  0.00    +0.000 A 
ATOM     25  C   UNL     1      -4.224  12.645  20.633  0.00  0.00    +0.000 A 
ATOM     26  C   UNL     1      -4.342  12.701  22.022  0.00  0.00    +0.000 A 
ATOM     27  C   UNL     1      -3.201  12.771  22.821  0.00  0.00    +0.000 A 
ATOM     28  C   UNL     1      -1.935  12.802  22.233  0.00  0.00    +0.000 A 
ENDBRANCH   8  23
BRANCH   1  29
ATOM     29  N   UNL     1       4.590  14.348  17.835  0.00  0.00    +0.000 N 
ATOM     30  H   UNL     1       5.249  15.044  17.501  0.00  0.00    +0.000 HD
ATOM     31  H   UNL     1       4.537  13.553  17.202  0.00  0.00    +0.000 HD
ENDBRANCH   1  29
TORSDOF 3
ENDMDL
MODEL 5
REMARK VINA RESULT:      -7.1      5.057      9.576
REMARK  Name = 
REMARK  3 active torsions:
REMARK  status: ('A' for Active; 'I' for Inactive)
REMARK    1  A    between atoms: N_1  and  C_2
REMARK    2  A    between atoms: C_9  and  C_10
REMARK    3  A    between atoms: C_9  and  C_16
REMARK                            x       y       z     vdW  Elec       q    Type
REMARK                         _______ _______ _______ _____ _____    ______ ____
ROOT
ATOM      1  C   UNL     1      -3.116  10.421  16.139  0.00  0.00    +0.000 A 
ATOM      2  C   UNL     1      -4.496  10.674  16.108  0.00  0.00    +0.000 A 
ATOM      3  C   UNL     1      -5.110  11.422  17.111  0.00  0.00    +0.000 A 
ATOM      4  C   UNL     1      -4.311  11.882  18.142  0.00  0.00    +0.000 A 
ATOM      5  C   UNL     1      -2.936  11.646  18.214  0.00  0.00    +0.000 A 
ATOM      6  C   UNL     1      -2.333  11.015  17.140  0.00  0.00    +0.000 A 
ATOM      7  C   UNL     1      -2.459  12.252  19.486  0.00  0.00    +0.000 C 
ATOM      8  C   UNL     1      -1.320  12.086  20.218  0.00  0.00    +0.000 C 
ATOM      9  C   UNL     1      -3.672  13.035  20.009  0.00  0.00    +0.000 C 
ATOM     10  O   UNL     1      -3.763  13.804  20.946  0.00  0.00    +0.000 OA
ATOM     11  N   UNL     1      -4.727  12.688  19.187  0.00  0.00    +0.000 N 
ATOM     12  H   UNL     1      -5.656  13.061  19.320  0.00  0.00    +0.000 HD
ENDROOT
BRANCH   8  13
ATOM     13  C   UNL     1      -0.299  11.136  19.837  0.00  0.00    +0.000 A 
ATOM     14  N   UNL     1       0.364  10.955  18.713  0.00  0.00    +0.000 NA
ATOM     15  C   UNL     1       1.108   9.820  18.845  0.00  0.00    +0.000 A 
ATOM     16  C   UNL     1       1.965   9.201  17.925  0.00  0.00    +0.000 A 
ATOM     17  C   UNL     1       2.555   7.983  18.279  0.00  0.00    +0.000 A 
ATOM     18  C   UNL     1       2.292   7.402  19.523  0.00  0.00    +0.000 A 
ATOM     19  C   UNL     1       1.467   8.031  20.468  0.00  0.00    +0.000 A 
ATOM     20  C   UNL     1       0.904   9.251  20.091  0.00  0.00    +0.000 A 
ATOM     21  N   UNL     1       0.083  10.149  20.734  0.00  0.00    +0.000 N 
ATOM     22  H   UNL     1      -0.235  10.072  21.689  0.00  0.00    +0.000 HD
ENDBRANCH   8  13
BRANCH   8  23
ATOM     23  C   UNL     1      -1.224  12.815  21.515  0.00  0.00    +0.000 A 
ATOM     24  C   UNL     1      -1.854  12.300  22.659  0.00  0.00    +0.000 A 
ATOM     25  C   UNL     1      -1.843  13.023  23.852  0.00  0.00    +0.000 A 
ATOM     26  C   UNL     1      -1.193  14.256  23.913  0.00  0.00    +0.000 A 
ATOM     27  C   UNL     1      -0.539  14.761  22.788  0.00  0.00    +0.000 A 
ATOM     28  C   UNL     1      -0.547  14.040  21.592  0.00  0.00    +0.000 A 
ENDBRANCH   8  23
BRANCH   1  29
ATOM     29  N   UNL     1      -2.490   9.765  15.071  0.00  0.00    +0.000 N 
ATOM     30  H   UNL     1      -2.671  10.205  14.175  0.00  0.00    +0.000 HD
ATOM     31  H   UNL     1      -2.719   8.773  15.051  0.00  0.00    +0.000 HD
ENDBRANCH   1  29
TORSDOF 3
ENDMDL
MODEL 6
REMARK VINA RESULT:      -6.9      6.724     10.745
REMARK  Name = 
REMARK  3 active torsions:
REMARK  status: ('A' for Active; 'I' for Inactive)
REMARK    1  A    between atoms: N_1  and  C_2
REMARK    2  A    between atoms: C_9  and  C_10
REMARK    3  A    between atoms: C_9  and  C_16
REMARK                            x       y       z     vdW  Elec       q    Type
REMARK                         _______ _______ _______ _____ _____    ______ ____
ROOT
ATOM      1  C   UNL     1      -7.004  12.978  19.598  0.00  0.00    +0.000 A 
ATOM      2  C   UNL     1      -7.449  12.940  18.267  0.00  0.00    +0.000 A 
ATOM      3  C   UNL     1      -6.595  12.545  17.238  0.00  0.00    +0.000 A 
ATOM      4  C   UNL     1      -5.296  12.218  17.578  0.00  0.00    +0.000 A 
ATOM      5  C   UNL     1      -4.811  12.251  18.888  0.00  0.00    +0.000 A 
ATOM      6  C   UNL     1      -5.714  12.517  19.903  0.00  0.00    +0.000 A 
ATOM      7  C   UNL     1      -3.370  11.888  18.825  0.00  0.00    +0.000 C 
ATOM      8  C   UNL     1      -2.340  12.042  19.707  0.00  0.00    +0.000 C 
ATOM      9  C   UNL     1      -3.156  11.442  17.372  0.00  0.00    +0.000 C 
ATOM     10  O   UNL     1      -2.187  10.932  16.844  0.00  0.00    +0.000 OA
ATOM     11  N   UNL     1      -4.328  11.748  16.708  0.00  0.00    +0.000 N 
ATOM     12  H   UNL     1      -4.451  11.562  15.723  0.00  0.00    +0.000 HD
ENDROOT
BRANCH   8  13
ATOM     13  C   UNL     1      -2.515  12.710  20.976  0.00  0.00    +0.000 A 
ATOM     14  N   UNL     1      -2.771  12.256  22.186  0.00  0.00    +0.000 NA
ATOM     15  C   UNL     1      -2.984  13.330  23.000  0.00  0.00    +0.000 A 
ATOM     16  C   UNL     1      -3.306  13.369  24.362  0.00  0.00    +0.000 A 
ATOM     17  C   UNL     1      -3.557  14.612  24.953  0.00  0.00    +0.000 A 
ATOM     18  C   UNL     1      -3.489  15.784  24.194  0.00  0.00    +0.000 A 
ATOM     19  C   UNL     1      -3.130  15.762  22.838  0.00  0.00    +0.000 A 
ATOM     20  C   UNL     1      -2.872  14.509  22.282  0.00  0.00    +0.000 A 
ATOM     21  N   UNL     1      -2.484  14.096  21.027  0.00  0.00    +0.000 N 
ATOM     22  H   UNL     1      -2.266  14.705  20.252  0.00  0.00    +0.000 HD
ENDBRANCH   8  13
BRANCH   8  23
ATOM     23  C   UNL     1      -0.982  11.625  19.255  0.00  0.00    +0.000 A 
ATOM     24  C   UNL     1      -0.588  10.282  19.362  0.00  0.00    +0.000 A 
ATOM     25  C   UNL     1       0.712   9.903  19.025  0.00  0.00    +0.000 A 
ATOM     26  C   UNL     1       1.620  10.859  18.569  0.00  0.00    +0.000 A 
ATOM     27  C   UNL     1       1.227  12.190  18.432  0.00  0.00    +0.000 A 
ATOM     28  C   UNL     1      -0.073  12.574  18.767  0.00  0.00    +0.000 A 
ENDBRANCH   8  23
BRANCH   1  29
ATOM     29  N   UNL     1      -7.897  13.267  20.638  0.00  0.00    +0.000 N 
ATOM     30  H   UNL     1      -7.873  12.579  21.383  0.00  0.00    +0.000 HD
ATOM     31  H   UNL     1      -8.845  13.408  20.293  0.00  0.00    +0.000 HD
ENDBRANCH   1  29
TORSDOF 3
ENDMDL
MODEL 7
REMARK VINA RESULT:      -6.9      5.645      9.602
REMARK  Name = 
REMARK  3 active torsions:
REMARK  status: ('A' for Active; 'I' for Inactive)
REMARK    1  A    between atoms: N_1  and  C_2
REMARK    2  A    between atoms: C_9  and  C_10
REMARK    3  A    between atoms: C_9  and  C_16
REMARK                            x       y       z     vdW  Elec       q    Type
REMARK                         _______ _______ _______ _____ _____    ______ ____
ROOT
ATOM      1  C   UNL     1       1.001  10.348  19.109  0.00  0.00    +0.000 A 
ATOM      2  C   UNL     1       1.087   9.182  19.885  0.00  0.00    +0.000 A 
ATOM      3  C   UNL     1       0.467   9.103  21.130  0.00  0.00    +0.000 A 
ATOM      4  C   UNL     1      -0.212  10.222  21.576  0.00  0.00    +0.000 A 
ATOM      5  C   UNL     1      -0.314  11.405  20.839  0.00  0.00    +0.000 A 
ATOM      6  C   UNL     1       0.197  11.409  19.552  0.00  0.00    +0.000 A 
ATOM      7  C   UNL     1      -1.067  12.374  21.679  0.00  0.00    +0.000 C 
ATOM      8  C   UNL     1      -1.207  13.730  21.622  0.00  0.00    +0.000 C 
ATOM      9  C   UNL     1      -1.558  11.540  22.871  0.00  0.00    +0.000 C 
ATOM     10  O   UNL     1      -2.320  11.834  23.770  0.00  0.00    +0.000 OA
ATOM     11  N   UNL     1      -0.936  10.312  22.752  0.00  0.00    +0.000 N 
ATOM     12  H   UNL     1      -1.081   9.570  23.421  0.00  0.00    +0.000 HD
ENDROOT
BRANCH   8  13
ATOM     13  C   UNL     1      -0.515  14.530  20.638  0.00  0.00    +0.000 A 
ATOM     14  N   UNL     1       0.764  14.783  20.445  0.00  0.00    +0.000 NA
ATOM     15  C   UNL     1       0.861  15.722  19.460  0.00  0.00    +0.000 A 
ATOM     16  C   UNL     1       1.999  16.327  18.912  0.00  0.00    +0.000 A 
ATOM     17  C   UNL     1       1.823  17.334  17.957  0.00  0.00    +0.000 A 
ATOM     18  C   UNL     1       0.539  17.724  17.565  0.00  0.00    +0.000 A 
ATOM     19  C   UNL     1      -0.607  17.098  18.077  0.00  0.00    +0.000 A 
ATOM     20  C   UNL     1      -0.399  16.089  19.018  0.00  0.00    +0.000 A 
ATOM     21  N   UNL     1      -1.248  15.256  19.710  0.00  0.00    +0.000 N 
ATOM     22  H   UNL     1      -2.251  15.219  19.600  0.00  0.00    +0.000 HD
ENDBRANCH   8  13
BRANCH   8  23
ATOM     23  C   UNL     1      -1.990  14.386  22.710  0.00  0.00    +0.000 A 
ATOM     24  C   UNL     1      -1.343  14.821  23.876  0.00  0.00    +0.000 A 
ATOM     25  C   UNL     1      -2.083  15.353  24.933  0.00  0.00    +0.000 A 
ATOM     26  C   UNL     1      -3.469  15.464  24.825  0.00  0.00    +0.000 A 
ATOM     27  C   UNL     1      -4.116  15.060  23.657  0.00  0.00    +0.000 A 
ATOM     28  C   UNL     1      -3.380  14.528  22.596  0.00  0.00    +0.000 A 
ENDBRANCH   8  23
BRANCH   1  29
ATOM     29  N   UNL     1       1.531  10.379  17.812  0.00  0.00    +0.000 N 
ATOM     30  H   UNL     1       2.529  10.562  17.796  0.00  0.00    +0.000 HD
ATOM     31  H   UNL     1       1.025  11.028  17.212  0.00  0.00    +0.000 HD
ENDBRANCH   1  29
TORSDOF 3
ENDMDL
MODEL 8
REMARK VINA RESULT:      -6.9      8.709     10.396
REMARK  Name = 
REMARK  3 active torsions:
REMARK  status: ('A' for Active; 'I' for Inactive)
REMARK    1  A    between atoms: N_1  and  C_2
REMARK    2  A    between atoms: C_9  and  C_10
REMARK    3  A    between atoms: C_9  and  C_16
REMARK                            x       y       z     vdW  Elec       q    Type
REMARK                         _______ _______ _______ _____ _____    ______ ____
ROOT
ATOM      1  C   UNL     1       6.318  13.304  23.310  0.00  0.00    +0.000 A 
ATOM      2  C   UNL     1       6.852  12.181  23.960  0.00  0.00    +0.000 A 
ATOM      3  C   UNL     1       8.046  11.605  23.529  0.00  0.00    +0.000 A 
ATOM      4  C   UNL     1       8.664  12.169  22.429  0.00  0.00    +0.000 A 
ATOM      5  C   UNL     1       8.162  13.280  21.748  0.00  0.00    +0.000 A 
ATOM      6  C   UNL     1       7.048  13.910  22.277  0.00  0.00    +0.000 A 
ATOM      7  C   UNL     1       9.077  13.539  20.605  0.00  0.00    +0.000 C 
ATOM      8  C   UNL     1       8.942  14.270  19.461  0.00  0.00    +0.000 C 
ATOM      9  C   UNL     1      10.259  12.588  20.845  0.00  0.00    +0.000 C 
ATOM     10  O   UNL     1      11.324  12.502  20.267  0.00  0.00    +0.000 OA
ATOM     11  N   UNL     1       9.880  11.775  21.896  0.00  0.00    +0.000 N 
ATOM     12  H   UNL     1      10.480  11.046  22.254  0.00  0.00    +0.000 HD
ENDROOT
BRANCH   8  13
ATOM     13  C   UNL     1       7.711  14.950  19.130  0.00  0.00    +0.000 A 
ATOM     14  N   UNL     1       7.154  16.048  19.598  0.00  0.00    +0.000 NA
ATOM     15  C   UNL     1       5.915  16.160  19.038  0.00  0.00    +0.000 A 
ATOM     16  C   UNL     1       4.934  17.142  19.229  0.00  0.00    +0.000 A 
ATOM     17  C   UNL     1       3.699  16.983  18.592  0.00  0.00    +0.000 A 
ATOM     18  C   UNL     1       3.456  15.867  17.786  0.00  0.00    +0.000 A 
ATOM     19  C   UNL     1       4.443  14.897  17.555  0.00  0.00    +0.000 A 
ATOM     20  C   UNL     1       5.668  15.091  18.194  0.00  0.00    +0.000 A 
ATOM     21  N   UNL     1       6.852  14.388  18.196  0.00  0.00    +0.000 N 
ATOM     22  H   UNL     1       7.043  13.563  17.647  0.00  0.00    +0.000 HD
ENDBRANCH   8  13
BRANCH   8  23
ATOM     23  C   UNL     1      10.066  14.228  18.482  0.00  0.00    +0.000 A 
ATOM     24  C   UNL     1      10.121  13.208  17.520  0.00  0.00    +0.000 A 
ATOM     25  C   UNL     1      11.216  13.112  16.660  0.00  0.00    +0.000 A 
ATOM     26  C   UNL     1      12.254  14.040  16.749  0.00  0.00    +0.000 A 
ATOM     27  C   UNL     1      12.193  15.074  17.683  0.00  0.00    +0.000 A 
ATOM     28  C   UNL     1      11.098  15.175  18.545  0.00  0.00    +0.000 A 
ENDBRANCH   8  23
BRANCH   1  29
ATOM     29  N   UNL     1       5.179  13.943  23.817  0.00  0.00    +0.000 N 
ATOM     30  H   UNL     1       5.395  14.624  24.538  0.00  0.00    +0.000 HD
ATOM     31  H   UNL     1       4.480  13.274  24.135  0.00  0.00    +0.000 HD
ENDBRANCH   1  29
TORSDOF 3
ENDMDL
MODEL 9
REMARK VINA RESULT:      -6.9      5.452      9.725
REMARK  Name = 
REMARK  3 active torsions:
REMARK  status: ('A' for Active; 'I' for Inactive)
REMARK    1  A    between atoms: N_1  and  C_2
REMARK    2  A    between atoms: C_9  and  C_10
REMARK    3  A    between atoms: C_9  and  C_16
REMARK                            x       y       z     vdW  Elec       q    Type
REMARK                         _______ _______ _______ _____ _____    ______ ____
ROOT
ATOM      1  C   UNL     1       0.562   9.651  20.134  0.00  0.00    +0.000 A 
ATOM      2  C   UNL     1       1.318   9.153  19.061  0.00  0.00    +0.000 A 
ATOM      3  C   UNL     1       1.965  10.016  18.179  0.00  0.00    +0.000 A 
ATOM      4  C   UNL     1       1.813  11.374  18.390  0.00  0.00    +0.000 A 
ATOM      5  C   UNL     1       1.063  11.911  19.439  0.00  0.00    +0.000 A 
ATOM      6  C   UNL     1       0.543  11.033  20.375  0.00  0.00    +0.000 A 
ATOM      7  C   UNL     1       1.102  13.390  19.287  0.00  0.00    +0.000 C 
ATOM      8  C   UNL     1       0.338  14.392  19.809  0.00  0.00    +0.000 C 
ATOM      9  C   UNL     1       2.128  13.627  18.169  0.00  0.00    +0.000 C 
ATOM     10  O   UNL     1       2.612  14.663  17.758  0.00  0.00    +0.000 OA
ATOM     11  N   UNL     1       2.426  12.378  17.660  0.00  0.00    +0.000 N 
ATOM     12  H   UNL     1       3.077  12.250  16.899  0.00  0.00    +0.000 HD
ENDROOT
BRANCH   8  13
ATOM     13  C   UNL     1      -0.798  14.123  20.660  0.00  0.00    +0.000 A 
ATOM     14  N   UNL     1      -0.908  13.960  21.962  0.00  0.00    +0.000 NA
ATOM     15  C   UNL     1      -2.191  13.579  22.229  0.00  0.00    +0.000 A 
ATOM     16  C   UNL     1      -2.794  13.271  23.455  0.00  0.00    +0.000 A 
ATOM     17  C   UNL     1      -4.119  12.821  23.452  0.00  0.00    +0.000 A 
ATOM     18  C   UNL     1      -4.817  12.682  22.249  0.00  0.00    +0.000 A 
ATOM     19  C   UNL     1      -4.237  13.024  21.018  0.00  0.00    +0.000 A 
ATOM     20  C   UNL     1      -2.920  13.483  21.056  0.00  0.00    +0.000 A 
ATOM     21  N   UNL     1      -2.046  13.920  20.087  0.00  0.00    +0.000 N 
ATOM     22  H   UNL     1      -2.263  14.023  19.107  0.00  0.00    +0.000 HD
ENDBRANCH   8  13
BRANCH   8  23
ATOM     23  C   UNL     1       0.626  15.783  19.354  0.00  0.00    +0.000 A 
ATOM     24  C   UNL     1       1.594  16.553  20.016  0.00  0.00    +0.000 A 
ATOM     25  C   UNL     1       1.803  17.884  19.652  0.00  0.00    +0.000 A 
ATOM     26  C   UNL     1       1.056  18.447  18.617  0.00  0.00    +0.000 A 
ATOM     27  C   UNL     1       0.113  17.680  17.934  0.00  0.00    +0.000 A 
ATOM     28  C   UNL     1      -0.100  16.347  18.295  0.00  0.00    +0.000 A 
ENDBRANCH   8  23
BRANCH   1  29
ATOM     29  N   UNL     1       0.009   8.778  21.079  0.00  0.00    +0.000 N 
ATOM     30  H   UNL     1      -0.945   9.019  21.331  0.00  0.00    +0.000 HD
ATOM     31  H   UNL     1       0.600   8.690  21.904  0.00  0.00    +0.000 HD
ENDBRANCH   1  29
TORSDOF 3
ENDMDL
