MODEL 1
REMARK VINA RESULT:      -7.9      0.000      0.000
REMARK  Name = 
REMARK  6 active torsions:
REMARK  status: ('A' for Active; 'I' for Inactive)
REMARK    1  A    between atoms: C_1  and  N_2
REMARK    2  A    between atoms: C_4  and  C_5
REMARK    3  A    between atoms: C_7  and  C_8
REMARK    4  A    between atoms: C_8  and  O_10
REMARK    5  A    between atoms: C_13  and  O_14
REMARK    6  A    between atoms: O_14  and  C_15
REMARK                            x       y       z     vdW  Elec       q    Type
REMARK                         _______ _______ _______ _____ _____    ______ ____
ROOT
ATOM      1  C   UNL     1       4.248   4.011  18.063  0.00  0.00    +0.000 A 
ATOM      2  C   UNL     1       4.918   3.009  18.805  0.00  0.00    +0.000 A 
ATOM      3  C   UNL     1       4.272   2.284  19.816  0.00  0.00    +0.000 A 
ATOM      4  C   UNL     1       2.942   2.556  20.117  0.00  0.00    +0.000 A 
ATOM      5  C   UNL     1       2.254   3.505  19.369  0.00  0.00    +0.000 A 
ATOM      6  C   UNL     1       2.901   4.282  18.383  0.00  0.00    +0.000 A 
ENDROOT
BRANCH   1  10
ATOM      7  C   UNL     1       5.901   3.604  13.495  0.00  0.00    +0.000 C 
ATOM      8  N   UNL     1       5.927   4.356  14.736  0.00  0.00    +0.000 N 
ATOM      9  C   UNL     1       5.021   4.053  15.765  0.00  0.00    +0.000 A 
ATOM     10  C   UNL     1       5.062   4.650  16.986  0.00  0.00    +0.000 A 
ATOM     11  C   UNL     1       6.085   5.638  17.205  0.00  0.00    +0.000 A 
ATOM     12  C   UNL     1       6.454   6.410  18.324  0.00  0.00    +0.000 A 
ATOM     13  C   UNL     1       7.554   7.161  17.948  0.00  0.00    +0.000 A 
ATOM     14  N   UNL     1       7.859   6.864  16.641  0.00  0.00    +0.000 N 
ATOM     15  C   UNL     1       6.965   5.933  16.183  0.00  0.00    +0.000 A 
ATOM     16  C   UNL     1       6.952   5.318  14.880  0.00  0.00    +0.000 A 
ATOM     17  O   UNL     1       7.766   5.588  14.008  0.00  0.00    +0.000 OA
ATOM     18  H   UNL     1       8.622   7.249  16.098  0.00  0.00    +0.000 HD
ENDBRANCH   1  10
BRANCH   3  19
ATOM     19  C   UNL     1       5.039   1.249  20.553  0.00  0.00    +0.000 C 
ATOM     20  O   UNL     1       5.419   1.400  21.698  0.00  0.00    +0.000 OA
BRANCH  19  21
ATOM     21  O   UNL     1       5.309   0.144  19.826  0.00  0.00    +0.000 OA
ATOM     22  H   UNL     1       6.250  -0.037  19.657  0.00  0.00    +0.000 HD
ENDBRANCH  19  21
ENDBRANCH   3  19
BRANCH   6  23
ATOM     23  O   UNL     1       2.205   5.300  17.741  0.00  0.00    +0.000 OA
BRANCH  23  24
ATOM     24  C   UNL     1       2.083   6.515  18.407  0.00  0.00    +0.000 A 
ATOM     25  C   UNL     1       1.983   6.603  19.804  0.00  0.00    +0.000 A 
ATOM     26  C   UNL     1       1.787   7.835  20.431  0.00  0.00    +0.000 A 
ATOM     27  C   UNL     1       1.769   9.002  19.673  0.00  0.00    +0.000 A 
ATOM     28  C   UNL     1       1.914   8.933  18.286  0.00  0.00    +0.000 A 
ATOM     29  C   UNL     1       2.061   7.690  17.651  0.00  0.00    +0.000 A 
ENDBRANCH  23  24
ENDBRANCH   6  23
TORSDOF 5
ENDMDL
MODEL 2
REMARK VINA RESULT:      -7.5      2.050      5.091
REMARK  Name = 
REMARK  6 active torsions:
REMARK  status: ('A' for Active; 'I' for Inactive)
REMARK    1  A    between atoms: C_1  and  N_2
REMARK    2  A    between atoms: C_4  and  C_5
REMARK    3  A    between atoms: C_7  and  C_8
REMARK    4  A    between atoms: C_8  and  O_10
REMARK    5  A    between atoms: C_13  and  O_14
REMARK    6  A    between atoms: O_14  and  C_15
REMARK                            x       y       z     vdW  Elec       q    Type
REMARK                         _______ _______ _______ _____ _____    ______ ____
ROOT
ATOM      1  C   UNL     1       3.741   6.757  18.322  0.00  0.00    +0.000 A 
ATOM      2  C   UNL     1       3.204   7.965  17.816  0.00  0.00    +0.000 A 
ATOM      3  C   UNL     1       2.139   8.621  18.449  0.00  0.00    +0.000 A 
ATOM      4  C   UNL     1       1.578   8.074  19.598  0.00  0.00    +0.000 A 
ATOM      5  C   UNL     1       2.121   6.913  20.135  0.00  0.00    +0.000 A 
ATOM      6  C   UNL     1       3.158   6.209  19.484  0.00  0.00    +0.000 A 
ENDROOT
BRANCH   1  10
ATOM      7  C   UNL     1       5.208   4.586  14.211  0.00  0.00    +0.000 C 
ATOM      8  N   UNL     1       5.572   5.059  15.534  0.00  0.00    +0.000 N 
ATOM      9  C   UNL     1       4.668   5.832  16.281  0.00  0.00    +0.000 A 
ATOM     10  C   UNL     1       4.908   6.217  17.563  0.00  0.00    +0.000 A 
ATOM     11  C   UNL     1       6.155   5.807  18.153  0.00  0.00    +0.000 A 
ATOM     12  C   UNL     1       6.714   5.975  19.436  0.00  0.00    +0.000 A 
ATOM     13  C   UNL     1       7.932   5.319  19.431  0.00  0.00    +0.000 A 
ATOM     14  N   UNL     1       8.122   4.760  18.190  0.00  0.00    +0.000 N 
ATOM     15  C   UNL     1       7.038   5.055  17.405  0.00  0.00    +0.000 A 
ATOM     16  C   UNL     1       6.814   4.627  16.048  0.00  0.00    +0.000 A 
ATOM     17  O   UNL     1       7.612   3.938  15.427  0.00  0.00    +0.000 OA
ATOM     18  H   UNL     1       8.917   4.207  17.893  0.00  0.00    +0.000 HD
ENDBRANCH   1  10
BRANCH   3  19
ATOM     19  C   UNL     1       1.628   9.883  17.859  0.00  0.00    +0.000 C 
ATOM     20  O   UNL     1       2.351  10.819  17.576  0.00  0.00    +0.000 OA
BRANCH  19  21
ATOM     21  O   UNL     1       0.287   9.912  17.700  0.00  0.00    +0.000 OA
ATOM     22  H   UNL     1      -0.074   9.330  17.011  0.00  0.00    +0.000 HD
ENDBRANCH  19  21
ENDBRANCH   3  19
BRANCH   6  23
ATOM     23  O   UNL     1       3.591   4.991  19.994  0.00  0.00    +0.000 OA
BRANCH  23  24
ATOM     24  C   UNL     1       3.040   3.834  19.452  0.00  0.00    +0.000 A 
ATOM     25  C   UNL     1       3.796   2.914  18.710  0.00  0.00    +0.000 A 
ATOM     26  C   UNL     1       3.192   1.803  18.120  0.00  0.00    +0.000 A 
ATOM     27  C   UNL     1       1.838   1.556  18.332  0.00  0.00    +0.000 A 
ATOM     28  C   UNL     1       1.085   2.439  19.108  0.00  0.00    +0.000 A 
ATOM     29  C   UNL     1       1.680   3.583  19.660  0.00  0.00    +0.000 A 
ENDBRANCH  23  24
ENDBRANCH   6  23
TORSDOF 5
ENDMDL
MODEL 3
REMARK VINA RESULT:      -7.5      1.947      5.100
REMARK  Name = 
REMARK  6 active torsions:
REMARK  status: ('A' for Active; 'I' for Inactive)
REMARK    1  A    between atoms: C_1  and  N_2
REMARK    2  A    between atoms: C_4  and  C_5
REMARK    3  A    between atoms: C_7  and  C_8
REMARK    4  A    between atoms: C_8  and  O_10
REMARK    5  A    between atoms: C_13  and  O_14
REMARK    6  A    between atoms: O_14  and  C_15
REMARK                            x       y       z     vdW  Elec       q    Type
REMARK                         _______ _______ _______ _____ _____    ______ ____
ROOT
ATOM      1  C   UNL     1       3.516   6.964  18.254  0.00  0.00    +0.000 A 
ATOM      2  C   UNL     1       2.856   8.141  17.828  0.00  0.00    +0.000 A 
ATOM      3  C   UNL     1       1.833   8.729  18.586  0.00  0.00    +0.000 A 
ATOM      4  C   UNL     1       1.439   8.143  19.784  0.00  0.00    +0.000 A 
ATOM      5  C   UNL     1       2.106   7.012  20.241  0.00  0.00    +0.000 A 
ATOM      6  C   UNL     1       3.102   6.375  19.468  0.00  0.00    +0.000 A 
ENDROOT
BRANCH   1  10
ATOM      7  C   UNL     1       5.254   3.260  15.604  0.00  0.00    +0.000 C 
ATOM      8  N   UNL     1       5.482   4.595  16.125  0.00  0.00    +0.000 N 
ATOM      9  C   UNL     1       4.442   5.292  16.762  0.00  0.00    +0.000 A 
ATOM     10  C   UNL     1       4.618   6.499  17.361  0.00  0.00    +0.000 A 
ATOM     11  C   UNL     1       5.939   7.071  17.318  0.00  0.00    +0.000 A 
ATOM     12  C   UNL     1       6.496   8.249  17.853  0.00  0.00    +0.000 A 
ATOM     13  C   UNL     1       7.839   8.245  17.522  0.00  0.00    +0.000 A 
ATOM     14  N   UNL     1       8.108   7.101  16.809  0.00  0.00    +0.000 N 
ATOM     15  C   UNL     1       6.950   6.379  16.682  0.00  0.00    +0.000 A 
ATOM     16  C   UNL     1       6.799   5.098  16.042  0.00  0.00    +0.000 A 
ATOM     17  O   UNL     1       7.727   4.505  15.511  0.00  0.00    +0.000 OA
ATOM     18  H   UNL     1       9.009   6.816  16.443  0.00  0.00    +0.000 HD
ENDBRANCH   1  10
BRANCH   3  19
ATOM     19  C   UNL     1       1.186   9.963  18.074  0.00  0.00    +0.000 C 
ATOM     20  O   UNL     1      -0.011  10.162  18.156  0.00  0.00    +0.000 OA
BRANCH  19  21
ATOM     21  O   UNL     1       2.038  10.824  17.477  0.00  0.00    +0.000 OA
ATOM     22  H   UNL     1       2.680  11.262  18.061  0.00  0.00    +0.000 HD
ENDBRANCH  19  21
ENDBRANCH   3  19
BRANCH   6  23
ATOM     23  O   UNL     1       3.660   5.182  19.909  0.00  0.00    +0.000 OA
BRANCH  23  24
ATOM     24  C   UNL     1       3.021   4.000  19.549  0.00  0.00    +0.000 A 
ATOM     25  C   UNL     1       3.718   2.883  19.065  0.00  0.00    +0.000 A 
ATOM     26  C   UNL     1       3.034   1.740  18.644  0.00  0.00    +0.000 A 
ATOM     27  C   UNL     1       1.650   1.673  18.776  0.00  0.00    +0.000 A 
ATOM     28  C   UNL     1       0.949   2.762  19.300  0.00  0.00    +0.000 A 
ATOM     29  C   UNL     1       1.631   3.929  19.676  0.00  0.00    +0.000 A 
ENDBRANCH  23  24
ENDBRANCH   6  23
TORSDOF 5
ENDMDL
MODEL 4
REMARK VINA RESULT:      -7.5      1.475      1.842
REMARK  Name = 
REMARK  6 active torsions:
REMARK  status: ('A' for Active; 'I' for Inactive)
REMARK    1  A    between atoms: C_1  and  N_2
REMARK    2  A    between atoms: C_4  and  C_5
REMARK    3  A    between atoms: C_7  and  C_8
REMARK    4  A    between atoms: C_8  and  O_10
REMARK    5  A    between atoms: C_13  and  O_14
REMARK    6  A    between atoms: O_14  and  C_15
REMARK                            x       y       z     vdW  Elec       q    Type
REMARK                         _______ _______ _______ _____ _____    ______ ____
ROOT
ATOM      1  C   UNL     1       3.724   5.043  17.447  0.00  0.00    +0.000 A 
ATOM      2  C   UNL     1       3.523   3.663  17.687  0.00  0.00    +0.000 A 
ATOM      3  C   UNL     1       2.492   3.201  18.517  0.00  0.00    +0.000 A 
ATOM      4  C   UNL     1       1.646   4.113  19.138  0.00  0.00    +0.000 A 
ATOM      5  C   UNL     1       1.799   5.470  18.880  0.00  0.00    +0.000 A 
ATOM      6  C   UNL     1       2.863   5.958  18.089  0.00  0.00    +0.000 A 
ENDROOT
BRANCH   1  10
ATOM      7  C   UNL     1       5.997   3.741  13.335  0.00  0.00    +0.000 C 
ATOM      8  N   UNL     1       5.977   4.623  14.488  0.00  0.00    +0.000 N 
ATOM      9  C   UNL     1       4.865   4.640  15.346  0.00  0.00    +0.000 A 
ATOM     10  C   UNL     1       4.829   5.365  16.495  0.00  0.00    +0.000 A 
ATOM     11  C   UNL     1       5.992   6.147  16.820  0.00  0.00    +0.000 A 
ATOM     12  C   UNL     1       6.327   6.964  17.918  0.00  0.00    +0.000 A 
ATOM     13  C   UNL     1       7.612   7.426  17.697  0.00  0.00    +0.000 A 
ATOM     14  N   UNL     1       8.062   6.911  16.504  0.00  0.00    +0.000 N 
ATOM     15  C   UNL     1       7.075   6.128  15.965  0.00  0.00    +0.000 A 
ATOM     16  C   UNL     1       7.149   5.370  14.742  0.00  0.00    +0.000 A 
ATOM     17  O   UNL     1       8.139   5.359  14.024  0.00  0.00    +0.000 OA
ATOM     18  H   UNL     1       8.972   7.064  16.087  0.00  0.00    +0.000 HD
ENDBRANCH   1  10
BRANCH   3  19
ATOM     19  C   UNL     1       2.343   1.738  18.723  0.00  0.00    +0.000 C 
ATOM     20  O   UNL     1       3.290   0.975  18.738  0.00  0.00    +0.000 OA
BRANCH  19  21
ATOM     21  O   UNL     1       1.063   1.329  18.853  0.00  0.00    +0.000 OA
ATOM     22  H   UNL     1       0.617   1.578  19.681  0.00  0.00    +0.000 HD
ENDBRANCH  19  21
ENDBRANCH   3  19
BRANCH   6  23
ATOM     23  O   UNL     1       3.048   7.329  17.952  0.00  0.00    +0.000 OA
BRANCH  23  24
ATOM     24  C   UNL     1       2.133   8.168  18.580  0.00  0.00    +0.000 A 
ATOM     25  C   UNL     1       1.917   8.145  19.966  0.00  0.00    +0.000 A 
ATOM     26  C   UNL     1       0.938   8.950  20.551  0.00  0.00    +0.000 A 
ATOM     27  C   UNL     1       0.218   9.845  19.765  0.00  0.00    +0.000 A 
ATOM     28  C   UNL     1       0.457   9.911  18.391  0.00  0.00    +0.000 A 
ATOM     29  C   UNL     1       1.405   9.067  17.796  0.00  0.00    +0.000 A 
ENDBRANCH  23  24
ENDBRANCH   6  23
TORSDOF 5
ENDMDL
MODEL 5
REMARK VINA RESULT:      -7.4      2.637      6.302
REMARK  Name = 
REMARK  6 active torsions:
REMARK  status: ('A' for Active; 'I' for Inactive)
REMARK    1  A    between atoms: C_1  and  N_2
REMARK    2  A    between atoms: C_4  and  C_5
REMARK    3  A    between atoms: C_7  and  C_8
REMARK    4  A    between atoms: C_8  and  O_10
REMARK    5  A    between atoms: C_13  and  O_14
REMARK    6  A    between atoms: O_14  and  C_15
REMARK                            x       y       z     vdW  Elec       q    Type
REMARK                         _______ _______ _______ _____ _____    ______ ____
ROOT
ATOM      1  C   UNL     1       5.147   4.601  16.393  0.00  0.00    +0.000 A 
ATOM      2  C   UNL     1       4.889   4.158  15.074  0.00  0.00    +0.000 A 
ATOM      3  C   UNL     1       5.912   4.035  14.123  0.00  0.00    +0.000 A 
ATOM      4  C   UNL     1       7.217   4.367  14.469  0.00  0.00    +0.000 A 
ATOM      5  C   UNL     1       7.498   4.762  15.772  0.00  0.00    +0.000 A 
ATOM      6  C   UNL     1       6.474   4.942  16.729  0.00  0.00    +0.000 A 
ENDROOT
BRANCH   1  10
ATOM      7  C   UNL     1       2.310   7.357  19.243  0.00  0.00    +0.000 C 
ATOM      8  N   UNL     1       2.629   6.023  18.770  0.00  0.00    +0.000 N 
ATOM      9  C   UNL     1       3.541   5.846  17.716  0.00  0.00    +0.000 A 
ATOM     10  C   UNL     1       3.958   4.622  17.297  0.00  0.00    +0.000 A 
ATOM     11  C   UNL     1       3.421   3.472  17.976  0.00  0.00    +0.000 A 
ATOM     12  C   UNL     1       3.649   2.088  17.852  0.00  0.00    +0.000 A 
ATOM     13  C   UNL     1       2.872   1.466  18.813  0.00  0.00    +0.000 A 
ATOM     14  N   UNL     1       2.187   2.431  19.512  0.00  0.00    +0.000 N 
ATOM     15  C   UNL     1       2.520   3.660  19.005  0.00  0.00    +0.000 A 
ATOM     16  C   UNL     1       2.059   4.941  19.476  0.00  0.00    +0.000 A 
ATOM     17  O   UNL     1       1.279   5.065  20.409  0.00  0.00    +0.000 OA
ATOM     18  H   UNL     1       1.550   2.278  20.285  0.00  0.00    +0.000 HD
ENDBRANCH   1  10
BRANCH   3  19
ATOM     19  C   UNL     1       5.565   3.565  12.759  0.00  0.00    +0.000 C 
ATOM     20  O   UNL     1       4.473   3.749  12.256  0.00  0.00    +0.000 OA
BRANCH  19  21
ATOM     21  O   UNL     1       6.555   2.882  12.145  0.00  0.00    +0.000 OA
ATOM     22  H   UNL     1       7.439   3.284  12.185  0.00  0.00    +0.000 HD
ENDBRANCH  19  21
ENDBRANCH   3  19
BRANCH   6  23
ATOM     23  O   UNL     1       6.786   5.450  17.984  0.00  0.00    +0.000 OA
BRANCH  23  24
ATOM     24  C   UNL     1       7.277   6.750  18.049  0.00  0.00    +0.000 A 
ATOM     25  C   UNL     1       6.756   7.793  17.268  0.00  0.00    +0.000 A 
ATOM     26  C   UNL     1       7.324   9.068  17.307  0.00  0.00    +0.000 A 
ATOM     27  C   UNL     1       8.369   9.334  18.186  0.00  0.00    +0.000 A 
ATOM     28  C   UNL     1       8.866   8.316  19.003  0.00  0.00    +0.000 A 
ATOM     29  C   UNL     1       8.329   7.022  18.928  0.00  0.00    +0.000 A 
ENDBRANCH  23  24
ENDBRANCH   6  23
TORSDOF 5
ENDMDL
MODEL 6
REMARK VINA RESULT:      -7.3      1.723      2.227
REMARK  Name = 
REMARK  6 active torsions:
REMARK  status: ('A' for Active; 'I' for Inactive)
REMARK    1  A    between atoms: C_1  and  N_2
REMARK    2  A    between atoms: C_4  and  C_5
REMARK    3  A    between atoms: C_7  and  C_8
REMARK    4  A    between atoms: C_8  and  O_10
REMARK    5  A    between atoms: C_13  and  O_14
REMARK    6  A    between atoms: O_14  and  C_15
REMARK                            x       y       z     vdW  Elec       q    Type
REMARK                         _______ _______ _______ _____ _____    ______ ____
ROOT
ATOM      1  C   UNL     1       3.632   5.339  19.032  0.00  0.00    +0.000 A 
ATOM      2  C   UNL     1       3.554   4.164  19.817  0.00  0.00    +0.000 A 
ATOM      3  C   UNL     1       2.506   3.949  20.723  0.00  0.00    +0.000 A 
ATOM      4  C   UNL     1       1.518   4.915  20.875  0.00  0.00    +0.000 A 
ATOM      5  C   UNL     1       1.552   6.056  20.081  0.00  0.00    +0.000 A 
ATOM      6  C   UNL     1       2.626   6.315  19.201  0.00  0.00    +0.000 A 
ENDROOT
BRANCH   1  10
ATOM      7  C   UNL     1       5.111   4.434  14.476  0.00  0.00    +0.000 C 
ATOM      8  N   UNL     1       5.485   4.838  15.819  0.00  0.00    +0.000 N 
ATOM      9  C   UNL     1       4.494   5.105  16.778  0.00  0.00    +0.000 A 
ATOM     10  C   UNL     1       4.778   5.387  18.077  0.00  0.00    +0.000 A 
ATOM     11  C   UNL     1       6.166   5.414  18.459  0.00  0.00    +0.000 A 
ATOM     12  C   UNL     1       6.822   5.618  19.689  0.00  0.00    +0.000 A 
ATOM     13  C   UNL     1       8.178   5.484  19.447  0.00  0.00    +0.000 A 
ATOM     14  N   UNL     1       8.357   5.202  18.114  0.00  0.00    +0.000 N 
ATOM     15  C   UNL     1       7.130   5.158  17.505  0.00  0.00    +0.000 A 
ATOM     16  C   UNL     1       6.864   4.853  16.123  0.00  0.00    +0.000 A 
ATOM     17  O   UNL     1       7.747   4.606  15.314  0.00  0.00    +0.000 OA
ATOM     18  H   UNL     1       9.241   5.038  17.645  0.00  0.00    +0.000 HD
ENDBRANCH   1  10
BRANCH   3  19
ATOM     19  C   UNL     1       2.492   2.692  21.512  0.00  0.00    +0.000 C 
ATOM     20  O   UNL     1       1.516   2.312  22.129  0.00  0.00    +0.000 OA
BRANCH  19  21
ATOM     21  O   UNL     1       3.670   2.031  21.514  0.00  0.00    +0.000 OA
ATOM     22  H   UNL     1       4.149   2.011  20.668  0.00  0.00    +0.000 HD
ENDBRANCH  19  21
ENDBRANCH   3  19
BRANCH   6  23
ATOM     23  O   UNL     1       2.679   7.522  18.514  0.00  0.00    +0.000 OA
BRANCH  23  24
ATOM     24  C   UNL     1       1.762   8.505  18.869  0.00  0.00    +0.000 A 
ATOM     25  C   UNL     1       1.496   8.842  20.205  0.00  0.00    +0.000 A 
ATOM     26  C   UNL     1       0.515   9.783  20.524  0.00  0.00    +0.000 A 
ATOM     27  C   UNL     1      -0.156  10.456  19.507  0.00  0.00    +0.000 A 
ATOM     28  C   UNL     1       0.133  10.163  18.172  0.00  0.00    +0.000 A 
ATOM     29  C   UNL     1       1.083   9.182  17.852  0.00  0.00    +0.000 A 
ENDBRANCH  23  24
ENDBRANCH   6  23
TORSDOF 5
ENDMDL
MODEL 7
REMARK VINA RESULT:      -7.1      1.796      2.256
REMARK  Name = 
REMARK  6 active torsions:
REMARK  status: ('A' for Active; 'I' for Inactive)
REMARK    1  A    between atoms: C_1  and  N_2
REMARK    2  A    between atoms: C_4  and  C_5
REMARK    3  A    between atoms: C_7  and  C_8
REMARK    4  A    between atoms: C_8  and  O_10
REMARK    5  A    between atoms: C_13  and  O_14
REMARK    6  A    between atoms: O_14  and  C_15
REMARK                            x       y       z     vdW  Elec       q    Type
REMARK                         _______ _______ _______ _____ _____    ______ ____
ROOT
ATOM      1  C   UNL     1       3.346   4.972  18.465  0.00  0.00    +0.000 A 
ATOM      2  C   UNL     1       2.888   3.634  18.405  0.00  0.00    +0.000 A 
ATOM      3  C   UNL     1       1.753   3.210  19.110  0.00  0.00    +0.000 A 
ATOM      4  C   UNL     1       1.058   4.114  19.905  0.00  0.00    +0.000 A 
ATOM      5  C   UNL     1       1.465   5.443  19.942  0.00  0.00    +0.000 A 
ATOM      6  C   UNL     1       2.635   5.878  19.281  0.00  0.00    +0.000 A 
ENDROOT
BRANCH   1  10
ATOM      7  C   UNL     1       5.274   4.651  14.000  0.00  0.00    +0.000 C 
ATOM      8  N   UNL     1       5.479   5.011  15.391  0.00  0.00    +0.000 N 
ATOM      9  C   UNL     1       4.392   5.045  16.280  0.00  0.00    +0.000 A 
ATOM     10  C   UNL     1       4.533   5.273  17.612  0.00  0.00    +0.000 A 
ATOM     11  C   UNL     1       5.867   5.495  18.107  0.00  0.00    +0.000 A 
ATOM     12  C   UNL     1       6.391   5.712  19.397  0.00  0.00    +0.000 A 
ATOM     13  C   UNL     1       7.764   5.815  19.259  0.00  0.00    +0.000 A 
ATOM     14  N   UNL     1       8.081   5.664  17.930  0.00  0.00    +0.000 N 
ATOM     15  C   UNL     1       6.925   5.467  17.222  0.00  0.00    +0.000 A 
ATOM     16  C   UNL     1       6.812   5.225  15.806  0.00  0.00    +0.000 A 
ATOM     17  O   UNL     1       7.779   5.183  15.059  0.00  0.00    +0.000 OA
ATOM     18  H   UNL     1       9.011   5.679  17.527  0.00  0.00    +0.000 HD
ENDBRANCH   1  10
BRANCH   3  19
ATOM     19  C   UNL     1       1.334   1.791  18.998  0.00  0.00    +0.000 C 
ATOM     20  O   UNL     1       0.174   1.455  18.852  0.00  0.00    +0.000 OA
BRANCH  19  21
ATOM     21  O   UNL     1       2.349   0.907  19.112  0.00  0.00    +0.000 OA
ATOM     22  H   UNL     1       3.244   1.285  19.126  0.00  0.00    +0.000 HD
ENDBRANCH  19  21
ENDBRANCH   3  19
BRANCH   6  23
ATOM     23  O   UNL     1       3.071   7.188  19.441  0.00  0.00    +0.000 OA
BRANCH  23  24
ATOM     24  C   UNL     1       2.121   8.200  19.333  0.00  0.00    +0.000 A 
ATOM     25  C   UNL     1       1.441   8.717  20.445  0.00  0.00    +0.000 A 
ATOM     26  C   UNL     1       0.442   9.680  20.289  0.00  0.00    +0.000 A 
ATOM     27  C   UNL     1       0.168  10.194  19.024  0.00  0.00    +0.000 A 
ATOM     28  C   UNL     1       0.871   9.720  17.915  0.00  0.00    +0.000 A 
ATOM     29  C   UNL     1       1.840   8.717  18.065  0.00  0.00    +0.000 A 
ENDBRANCH  23  24
ENDBRANCH   6  23
TORSDOF 5
ENDMDL
MODEL 8
REMARK VINA RESULT:      -7.1      3.236      6.444
REMARK  Name = 
REMARK  6 active torsions:
REMARK  status: ('A' for Active; 'I' for Inactive)
REMARK    1  A    between atoms: C_1  and  N_2
REMARK    2  A    between atoms: C_4  and  C_5
REMARK    3  A    between atoms: C_7  and  C_8
REMARK    4  A    between atoms: C_8  and  O_10
REMARK    5  A    between atoms: C_13  and  O_14
REMARK    6  A    between atoms: O_14  and  C_15
REMARK                            x       y       z     vdW  Elec       q    Type
REMARK                         _______ _______ _______ _____ _____    ______ ____
ROOT
ATOM      1  C   UNL     1       2.481   6.184  20.010  0.00  0.00    +0.000 A 
ATOM      2  C   UNL     1       1.644   5.174  20.541  0.00  0.00    +0.000 A 
ATOM      3  C   UNL     1       1.984   3.816  20.461  0.00  0.00    +0.000 A 
ATOM      4  C   UNL     1       3.165   3.437  19.832  0.00  0.00    +0.000 A 
ATOM      5  C   UNL     1       4.022   4.417  19.344  0.00  0.00    +0.000 A 
ATOM      6  C   UNL     1       3.673   5.786  19.368  0.00  0.00    +0.000 A 
ENDROOT
BRANCH   1  10
ATOM      7  C   UNL     1       0.056   9.185  22.989  0.00  0.00    +0.000 C 
ATOM      8  N   UNL     1       0.713   9.013  21.707  0.00  0.00    +0.000 N 
ATOM      9  C   UNL     1       1.451   7.848  21.441  0.00  0.00    +0.000 A 
ATOM     10  C   UNL     1       2.003   7.581  20.228  0.00  0.00    +0.000 A 
ATOM     11  C   UNL     1       1.813   8.558  19.187  0.00  0.00    +0.000 A 
ATOM     12  C   UNL     1       2.188   8.603  17.830  0.00  0.00    +0.000 A 
ATOM     13  C   UNL     1       1.685   9.784  17.314  0.00  0.00    +0.000 A 
ATOM     14  N   UNL     1       1.018  10.448  18.316  0.00  0.00    +0.000 N 
ATOM     15  C   UNL     1       1.092   9.702  19.463  0.00  0.00    +0.000 A 
ATOM     16  C   UNL     1       0.492  10.014  20.735  0.00  0.00    +0.000 A 
ATOM     17  O   UNL     1      -0.162  11.029  20.932  0.00  0.00    +0.000 OA
ATOM     18  H   UNL     1       0.534  11.335  18.234  0.00  0.00    +0.000 HD
ENDBRANCH   1  10
BRANCH   3  19
ATOM     19  C   UNL     1       1.055   2.814  21.040  0.00  0.00    +0.000 C 
ATOM     20  O   UNL     1       1.156   2.403  22.180  0.00  0.00    +0.000 OA
BRANCH  19  21
ATOM     21  O   UNL     1       0.115   2.373  20.177  0.00  0.00    +0.000 OA
ATOM     22  H   UNL     1      -0.394   3.059  19.712  0.00  0.00    +0.000 HD
ENDBRANCH  19  21
ENDBRANCH   3  19
BRANCH   6  23
ATOM     23  O   UNL     1       4.506   6.720  18.764  0.00  0.00    +0.000 OA
BRANCH  23  24
ATOM     24  C   UNL     1       5.276   6.294  17.687  0.00  0.00    +0.000 A 
ATOM     25  C   UNL     1       4.773   6.230  16.378  0.00  0.00    +0.000 A 
ATOM     26  C   UNL     1       5.554   5.727  15.336  0.00  0.00    +0.000 A 
ATOM     27  C   UNL     1       6.874   5.358  15.576  0.00  0.00    +0.000 A 
ATOM     28  C   UNL     1       7.402   5.461  16.865  0.00  0.00    +0.000 A 
ATOM     29  C   UNL     1       6.602   5.919  17.922  0.00  0.00    +0.000 A 
ENDBRANCH  23  24
ENDBRANCH   6  23
TORSDOF 5
ENDMDL
MODEL 9
REMARK VINA RESULT:      -7.1      6.164     10.404
REMARK  Name = 
REMARK  6 active torsions:
REMARK  status: ('A' for Active; 'I' for Inactive)
REMARK    1  A    between atoms: C_1  and  N_2
REMARK    2  A    between atoms: C_4  and  C_5
REMARK    3  A    between atoms: C_7  and  C_8
REMARK    4  A    between atoms: C_8  and  O_10
REMARK    5  A    between atoms: C_13  and  O_14
REMARK    6  A    between atoms: O_14  and  C_15
REMARK                            x       y       z     vdW  Elec       q    Type
REMARK                         _______ _______ _______ _____ _____    ______ ____
ROOT
ATOM      1  C   UNL     1      -0.995  11.674  19.063  0.00  0.00    +0.000 A 
ATOM      2  C   UNL     1      -2.380  11.887  18.865  0.00  0.00    +0.000 A 
ATOM      3  C   UNL     1      -3.126  11.109  17.967  0.00  0.00    +0.000 A 
ATOM      4  C   UNL     1      -2.496  10.107  17.237  0.00  0.00    +0.000 A 
ATOM      5  C   UNL     1      -1.146   9.853  17.450  0.00  0.00    +0.000 A 
ATOM      6  C   UNL     1      -0.367  10.659  18.310  0.00  0.00    +0.000 A 
ENDROOT
BRANCH   1  10
ATOM      7  C   UNL     1      -1.400  13.548  23.545  0.00  0.00    +0.000 C 
ATOM      8  N   UNL     1      -0.655  13.523  22.299  0.00  0.00    +0.000 N 
ATOM      9  C   UNL     1      -0.951  12.562  21.319  0.00  0.00    +0.000 A 
ATOM     10  C   UNL     1      -0.363  12.549  20.094  0.00  0.00    +0.000 A 
ATOM     11  C   UNL     1       0.610  13.575  19.817  0.00  0.00    +0.000 A 
ATOM     12  C   UNL     1       1.369  13.898  18.676  0.00  0.00    +0.000 A 
ATOM     13  C   UNL     1       2.107  15.025  18.991  0.00  0.00    +0.000 A 
ATOM     14  N   UNL     1       1.813  15.392  20.283  0.00  0.00    +0.000 N 
ATOM     15  C   UNL     1       0.897  14.509  20.792  0.00  0.00    +0.000 A 
ATOM     16  C   UNL     1       0.290  14.553  22.098  0.00  0.00    +0.000 A 
ATOM     17  O   UNL     1       0.554  15.414  22.926  0.00  0.00    +0.000 OA
ATOM     18  H   UNL     1       2.189  16.187  20.785  0.00  0.00    +0.000 HD
ENDBRANCH   1  10
BRANCH   3  19
ATOM     19  C   UNL     1      -4.574  11.391  17.812  0.00  0.00    +0.000 C 
ATOM     20  O   UNL     1      -5.433  10.793  18.431  0.00  0.00    +0.000 OA
BRANCH  19  21
ATOM     21  O   UNL     1      -4.853  12.343  16.895  0.00  0.00    +0.000 OA
ATOM     22  H   UNL     1      -4.835  13.261  17.214  0.00  0.00    +0.000 HD
ENDBRANCH  19  21
ENDBRANCH   3  19
BRANCH   6  23
ATOM     23  O   UNL     1       1.002  10.444  18.404  0.00  0.00    +0.000 OA
BRANCH  23  24
ATOM     24  C   UNL     1       1.428   9.221  18.913  0.00  0.00    +0.000 A 
ATOM     25  C   UNL     1       2.146   8.293  18.144  0.00  0.00    +0.000 A 
ATOM     26  C   UNL     1       2.492   7.046  18.667  0.00  0.00    +0.000 A 
ATOM     27  C   UNL     1       2.191   6.743  19.993  0.00  0.00    +0.000 A 
ATOM     28  C   UNL     1       1.518   7.677  20.783  0.00  0.00    +0.000 A 
ATOM     29  C   UNL     1       1.126   8.911  20.242  0.00  0.00    +0.000 A 
ENDBRANCH  23  24
ENDBRANCH   6  23
TORSDOF 5
ENDMDL
