MODEL 1
REMARK VINA RESULT:      -8.5      0.000      0.000
REMARK  Name = 
REMARK  9 active torsions:
REMARK  status: ('A' for Active; 'I' for Inactive)
REMARK    1  A    between atoms: C_1  and  O_2
REMARK    2  A    between atoms: O_2  and  C_3
REMARK    3  A    between atoms: C_6  and  S_7
REMARK    4  A    between atoms: S_7  and  N_10
REMARK    5  A    between atoms: N_10  and  N_11
REMARK    6  A    between atoms: C_12  and  C_13
REMARK    7  A    between atoms: C_12  and  C_14
REMARK    8  A    between atoms: C_18  and  N_19
REMARK    9  A    between atoms: C_20  and  C_22
REMARK                            x       y       z     vdW  Elec       q    Type
REMARK                         _______ _______ _______ _____ _____    ______ ____
ROOT
ATOM      1  C   UNL     1       6.720   5.594  16.968  0.00  0.00    +0.000 A 
ATOM      2  C   UNL     1       7.270   4.855  18.022  0.00  0.00    +0.000 A 
ATOM      3  C   UNL     1       8.048   5.490  18.985  0.00  0.00    +0.000 A 
ATOM      4  C   UNL     1       8.294   6.860  18.894  0.00  0.00    +0.000 A 
ATOM      5  C   UNL     1       7.744   7.618  17.858  0.00  0.00    +0.000 A 
ATOM      6  C   UNL     1       6.941   6.978  16.908  0.00  0.00    +0.000 A 
ENDROOT
BRANCH   5   7
ATOM      7  N   UNL     1       7.951   9.007  17.710  0.00  0.00    +0.000 N 
ATOM      8  C   UNL     1       8.733   9.799  18.524  0.00  0.00    +0.000 C 
ATOM      9  O   UNL     1       9.352   9.405  19.511  0.00  0.00    +0.000 OA
ATOM     10  H   UNL     1       7.407   9.473  16.989  0.00  0.00    +0.000 HD
BRANCH   8  11
ATOM     11  C   UNL     1       8.852  11.251  18.196  0.00  0.00    +0.000 A 
ATOM     12  C   UNL     1       7.697  11.828  17.630  0.00  0.00    +0.000 A 
ATOM     13  C   UNL     1       7.692  13.146  17.186  0.00  0.00    +0.000 A 
ATOM     14  C   UNL     1       8.842  13.916  17.307  0.00  0.00    +0.000 A 
ATOM     15  C   UNL     1       9.988  13.370  17.888  0.00  0.00    +0.000 A 
ATOM     16  C   UNL     1      10.000  12.040  18.332  0.00  0.00    +0.000 A 
ATOM     17 CL   UNL     1      11.490  11.463  18.995  0.00  0.00    +0.000 Cl
ENDBRANCH   8  11
ENDBRANCH   5   7
BRANCH   1  19
ATOM     18  N   UNL     1       5.007   3.949  16.176  0.00  0.00    +0.000 NA
ATOM     19  C   UNL     1       5.835   4.929  15.965  0.00  0.00    +0.000 C 
ATOM     20  C   UNL     1       5.948   5.409  14.531  0.00  0.00    +0.000 C 
BRANCH  18  21
ATOM     21  N   UNL     1       4.731   3.538  17.516  0.00  0.00    +0.000 N 
ATOM     22  H   UNL     1       5.459   3.361  18.210  0.00  0.00    +0.000 HD
BRANCH  21  23
ATOM     23  S   UNL     1       3.149   3.234  18.036  0.00  0.00    +0.000 S 
ATOM     24  O   UNL     1       3.256   2.229  19.077  0.00  0.00    +0.000 OA
ATOM     25  O   UNL     1       2.312   3.007  16.877  0.00  0.00    +0.000 OA
BRANCH  23  29
ATOM     26  C   UNL     1       2.013   7.174  20.035  0.00  0.00    +0.000 A 
ATOM     27  C   UNL     1       1.821   5.959  20.700  0.00  0.00    +0.000 A 
ATOM     28  C   UNL     1       2.168   4.754  20.090  0.00  0.00    +0.000 A 
ATOM     29  C   UNL     1       2.683   4.766  18.793  0.00  0.00    +0.000 A 
ATOM     30  C   UNL     1       2.884   5.974  18.118  0.00  0.00    +0.000 A 
ATOM     31  C   UNL     1       2.540   7.179  18.741  0.00  0.00    +0.000 A 
BRANCH  26  33
ATOM     32  C   UNL     1       0.953   9.289  19.983  0.00  0.00    +0.000 C 
ATOM     33  O   UNL     1       1.614   8.280  20.734  0.00  0.00    +0.000 OA
ENDBRANCH  26  33
ENDBRANCH  23  29
ENDBRANCH  21  23
ENDBRANCH  18  21
ENDBRANCH   1  19
TORSDOF 7
ENDMDL
MODEL 2
REMARK VINA RESULT:      -8.5      1.604      2.126
REMARK  Name = 
REMARK  9 active torsions:
REMARK  status: ('A' for Active; 'I' for Inactive)
REMARK    1  A    between atoms: C_1  and  O_2
REMARK    2  A    between atoms: O_2  and  C_3
REMARK    3  A    between atoms: C_6  and  S_7
REMARK    4  A    between atoms: S_7  and  N_10
REMARK    5  A    between atoms: N_10  and  N_11
REMARK    6  A    between atoms: C_12  and  C_13
REMARK    7  A    between atoms: C_12  and  C_14
REMARK    8  A    between atoms: C_18  and  N_19
REMARK    9  A    between atoms: C_20  and  C_22
REMARK                            x       y       z     vdW  Elec       q    Type
REMARK                         _______ _______ _______ _____ _____    ______ ____
ROOT
ATOM      1  C   UNL     1       7.026   6.323  17.194  0.00  0.00    +0.000 A 
ATOM      2  C   UNL     1       7.383   5.553  18.307  0.00  0.00    +0.000 A 
ATOM      3  C   UNL     1       8.162   6.110  19.317  0.00  0.00    +0.000 A 
ATOM      4  C   UNL     1       8.601   7.430  19.215  0.00  0.00    +0.000 A 
ATOM      5  C   UNL     1       8.245   8.220  18.119  0.00  0.00    +0.000 A 
ATOM      6  C   UNL     1       7.440   7.661  17.121  0.00  0.00    +0.000 A 
ENDROOT
BRANCH   5   7
ATOM      7  N   UNL     1       8.653   9.562  17.956  0.00  0.00    +0.000 N 
ATOM      8  C   UNL     1       9.083  10.403  18.960  0.00  0.00    +0.000 C 
ATOM      9  O   UNL     1       9.156  10.104  20.151  0.00  0.00    +0.000 OA
ATOM     10  H   UNL     1       8.537   9.962  17.030  0.00  0.00    +0.000 HD
BRANCH   8  11
ATOM     11  C   UNL     1       9.498  11.789  18.593  0.00  0.00    +0.000 A 
ATOM     12  C   UNL     1       8.455  12.618  18.131  0.00  0.00    +0.000 A 
ATOM     13  C   UNL     1       8.707  13.903  17.662  0.00  0.00    +0.000 A 
ATOM     14  C   UNL     1      10.010  14.388  17.654  0.00  0.00    +0.000 A 
ATOM     15  C   UNL     1      11.053  13.591  18.130  0.00  0.00    +0.000 A 
ATOM     16  C   UNL     1      10.804  12.293  18.599  0.00  0.00    +0.000 A 
ATOM     17 CL   UNL     1      12.180  11.386  19.123  0.00  0.00    +0.000 Cl
ENDBRANCH   8  11
ENDBRANCH   5   7
BRANCH   1  19
ATOM     18  N   UNL     1       4.844   5.824  16.071  0.00  0.00    +0.000 NA
ATOM     19  C   UNL     1       6.141   5.750  16.135  0.00  0.00    +0.000 C 
ATOM     20  C   UNL     1       6.818   4.947  15.040  0.00  0.00    +0.000 C 
BRANCH  18  21
ATOM     21  N   UNL     1       4.144   6.680  16.974  0.00  0.00    +0.000 N 
ATOM     22  H   UNL     1       4.193   7.700  16.933  0.00  0.00    +0.000 HD
BRANCH  21  23
ATOM     23  S   UNL     1       3.225   6.053  18.250  0.00  0.00    +0.000 S 
ATOM     24  O   UNL     1       4.176   5.663  19.274  0.00  0.00    +0.000 OA
ATOM     25  O   UNL     1       2.281   5.093  17.718  0.00  0.00    +0.000 OA
BRANCH  23  29
ATOM     26  C   UNL     1       0.875   9.681  19.708  0.00  0.00    +0.000 A 
ATOM     27  C   UNL     1       1.288   9.592  18.375  0.00  0.00    +0.000 A 
ATOM     28  C   UNL     1       2.007   8.483  17.929  0.00  0.00    +0.000 A 
ATOM     29  C   UNL     1       2.339   7.472  18.832  0.00  0.00    +0.000 A 
ATOM     30  C   UNL     1       1.927   7.547  20.166  0.00  0.00    +0.000 A 
ATOM     31  C   UNL     1       1.200   8.659  20.604  0.00  0.00    +0.000 A 
BRANCH  26  33
ATOM     32  C   UNL     1       0.979  11.896  20.533  0.00  0.00    +0.000 C 
ATOM     33  O   UNL     1       0.196  10.826  20.022  0.00  0.00    +0.000 OA
ENDBRANCH  26  33
ENDBRANCH  23  29
ENDBRANCH  21  23
ENDBRANCH  18  21
ENDBRANCH   1  19
TORSDOF 7
ENDMDL
MODEL 3
REMARK VINA RESULT:      -8.4      1.964      2.650
REMARK  Name = 
REMARK  9 active torsions:
REMARK  status: ('A' for Active; 'I' for Inactive)
REMARK    1  A    between atoms: C_1  and  O_2
REMARK    2  A    between atoms: O_2  and  C_3
REMARK    3  A    between atoms: C_6  and  S_7
REMARK    4  A    between atoms: S_7  and  N_10
REMARK    5  A    between atoms: N_10  and  N_11
REMARK    6  A    between atoms: C_12  and  C_13
REMARK    7  A    between atoms: C_12  and  C_14
REMARK    8  A    between atoms: C_18  and  N_19
REMARK    9  A    between atoms: C_20  and  C_22
REMARK                            x       y       z     vdW  Elec       q    Type
REMARK                         _______ _______ _______ _____ _____    ______ ____
ROOT
ATOM      1  C   UNL     1       6.607   6.426  17.275  0.00  0.00    +0.000 A 
ATOM      2  C   UNL     1       6.938   5.582  18.343  0.00  0.00    +0.000 A 
ATOM      3  C   UNL     1       7.891   5.983  19.275  0.00  0.00    +0.000 A 
ATOM      4  C   UNL     1       8.526   7.218  19.140  0.00  0.00    +0.000 A 
ATOM      5  C   UNL     1       8.200   8.079  18.090  0.00  0.00    +0.000 A 
ATOM      6  C   UNL     1       7.224   7.680  17.172  0.00  0.00    +0.000 A 
ENDROOT
BRANCH   5   7
ATOM      7  N   UNL     1       8.804   9.341  17.898  0.00  0.00    +0.000 N 
ATOM      8  C   UNL     1       9.159  10.227  18.893  0.00  0.00    +0.000 C 
ATOM      9  O   UNL     1       8.984  10.046  20.097  0.00  0.00    +0.000 OA
ATOM     10  H   UNL     1       8.905   9.654  16.937  0.00  0.00    +0.000 HD
BRANCH   8  11
ATOM     11  C   UNL     1       9.811  11.511  18.498  0.00  0.00    +0.000 A 
ATOM     12  C   UNL     1      11.130  11.676  18.967  0.00  0.00    +0.000 A 
ATOM     13  C   UNL     1      11.827  12.862  18.759  0.00  0.00    +0.000 A 
ATOM     14  C   UNL     1      11.220  13.903  18.068  0.00  0.00    +0.000 A 
ATOM     15  C   UNL     1       9.924  13.749  17.573  0.00  0.00    +0.000 A 
ATOM     16  C   UNL     1       9.214  12.558  17.786  0.00  0.00    +0.000 A 
ATOM     17 CL   UNL     1       7.602  12.500  17.163  0.00  0.00    +0.000 Cl
ENDBRANCH   8  11
ENDBRANCH   5   7
BRANCH   1  19
ATOM     18  N   UNL     1       4.260   6.190  16.436  0.00  0.00    +0.000 NA
ATOM     19  C   UNL     1       5.544   6.027  16.305  0.00  0.00    +0.000 C 
ATOM     20  C   UNL     1       5.999   5.306  15.051  0.00  0.00    +0.000 C 
BRANCH  18  21
ATOM     21  N   UNL     1       3.758   6.986  17.510  0.00  0.00    +0.000 N 
ATOM     22  H   UNL     1       3.956   7.983  17.609  0.00  0.00    +0.000 HD
BRANCH  21  23
ATOM     23  S   UNL     1       2.845   6.304  18.762  0.00  0.00    +0.000 S 
ATOM     24  O   UNL     1       3.802   5.832  19.744  0.00  0.00    +0.000 OA
ATOM     25  O   UNL     1       1.871   5.399  18.189  0.00  0.00    +0.000 OA
BRANCH  23  29
ATOM     26  C   UNL     1       0.603   9.891  20.470  0.00  0.00    +0.000 A 
ATOM     27  C   UNL     1       1.025   9.887  19.137  0.00  0.00    +0.000 A 
ATOM     28  C   UNL     1       1.711   8.791  18.614  0.00  0.00    +0.000 A 
ATOM     29  C   UNL     1       2.001   7.705  19.441  0.00  0.00    +0.000 A 
ATOM     30  C   UNL     1       1.580   7.694  20.775  0.00  0.00    +0.000 A 
ATOM     31  C   UNL     1       0.886   8.794  21.289  0.00  0.00    +0.000 A 
BRANCH  26  33
ATOM     32  C   UNL     1      -1.034  11.526  19.975  0.00  0.00    +0.000 C 
ATOM     33  O   UNL     1      -0.041  11.031  20.864  0.00  0.00    +0.000 OA
ENDBRANCH  26  33
ENDBRANCH  23  29
ENDBRANCH  21  23
ENDBRANCH  18  21
ENDBRANCH   1  19
TORSDOF 7
ENDMDL
MODEL 4
REMARK VINA RESULT:      -8.4      4.635      8.155
REMARK  Name = 
REMARK  9 active torsions:
REMARK  status: ('A' for Active; 'I' for Inactive)
REMARK    1  A    between atoms: C_1  and  O_2
REMARK    2  A    between atoms: O_2  and  C_3
REMARK    3  A    between atoms: C_6  and  S_7
REMARK    4  A    between atoms: S_7  and  N_10
REMARK    5  A    between atoms: N_10  and  N_11
REMARK    6  A    between atoms: C_12  and  C_13
REMARK    7  A    between atoms: C_12  and  C_14
REMARK    8  A    between atoms: C_18  and  N_19
REMARK    9  A    between atoms: C_20  and  C_22
REMARK                            x       y       z     vdW  Elec       q    Type
REMARK                         _______ _______ _______ _____ _____    ______ ____
ROOT
ATOM      1  C   UNL     1       2.053   7.203  19.315  0.00  0.00    +0.000 A 
ATOM      2  C   UNL     1       2.585   7.493  18.053  0.00  0.00    +0.000 A 
ATOM      3  C   UNL     1       2.454   8.772  17.521  0.00  0.00    +0.000 A 
ATOM      4  C   UNL     1       1.781   9.763  18.237  0.00  0.00    +0.000 A 
ATOM      5  C   UNL     1       1.255   9.498  19.503  0.00  0.00    +0.000 A 
ATOM      6  C   UNL     1       1.413   8.217  20.042  0.00  0.00    +0.000 A 
ENDROOT
BRANCH   5   7
ATOM      7  N   UNL     1       0.566  10.455  20.280  0.00  0.00    +0.000 N 
ATOM      8  C   UNL     1      -0.731  10.876  20.078  0.00  0.00    +0.000 C 
ATOM      9  O   UNL     1      -1.470  10.485  19.177  0.00  0.00    +0.000 OA
ATOM     10  H   UNL     1       1.107  10.932  20.995  0.00  0.00    +0.000 HD
BRANCH   8  11
ATOM     11  C   UNL     1      -1.301  11.885  21.021  0.00  0.00    +0.000 A 
ATOM     12  C   UNL     1      -1.687  13.102  20.424  0.00  0.00    +0.000 A 
ATOM     13  C   UNL     1      -2.144  14.169  21.191  0.00  0.00    +0.000 A 
ATOM     14  C   UNL     1      -2.233  14.035  22.571  0.00  0.00    +0.000 A 
ATOM     15  C   UNL     1      -1.880  12.828  23.178  0.00  0.00    +0.000 A 
ATOM     16  C   UNL     1      -1.413  11.751  22.410  0.00  0.00    +0.000 A 
ATOM     17 CL   UNL     1      -0.966  10.323  23.276  0.00  0.00    +0.000 Cl
ENDBRANCH   8  11
ENDBRANCH   5   7
BRANCH   1  19
ATOM     18  N   UNL     1       3.291   5.086  19.822  0.00  0.00    +0.000 NA
ATOM     19  C   UNL     1       2.241   5.848  19.917  0.00  0.00    +0.000 C 
ATOM     20  C   UNL     1       1.064   5.271  20.680  0.00  0.00    +0.000 C 
BRANCH  18  21
ATOM     21  N   UNL     1       4.490   5.610  19.251  0.00  0.00    +0.000 N 
ATOM     22  H   UNL     1       4.556   6.542  18.841  0.00  0.00    +0.000 HD
BRANCH  21  23
ATOM     23  S   UNL     1       5.896   4.673  19.143  0.00  0.00    +0.000 S 
ATOM     24  O   UNL     1       5.525   3.341  19.579  0.00  0.00    +0.000 OA
ATOM     25  O   UNL     1       6.981   5.383  19.789  0.00  0.00    +0.000 OA
BRANCH  23  29
ATOM     26  C   UNL     1       6.606   4.568  14.638  0.00  0.00    +0.000 A 
ATOM     27  C   UNL     1       5.711   3.675  15.237  0.00  0.00    +0.000 A 
ATOM     28  C   UNL     1       5.494   3.706  16.614  0.00  0.00    +0.000 A 
ATOM     29  C   UNL     1       6.200   4.619  17.399  0.00  0.00    +0.000 A 
ATOM     30  C   UNL     1       7.094   5.521  16.812  0.00  0.00    +0.000 A 
ATOM     31  C   UNL     1       7.300   5.487  15.429  0.00  0.00    +0.000 A 
BRANCH  26  33
ATOM     32  C   UNL     1       5.831   3.528  12.659  0.00  0.00    +0.000 C 
ATOM     33  O   UNL     1       6.742   4.421  13.285  0.00  0.00    +0.000 OA
ENDBRANCH  26  33
ENDBRANCH  23  29
ENDBRANCH  21  23
ENDBRANCH  18  21
ENDBRANCH   1  19
TORSDOF 7
ENDMDL
MODEL 5
REMARK VINA RESULT:      -8.4      5.361      9.047
REMARK  Name = 
REMARK  9 active torsions:
REMARK  status: ('A' for Active; 'I' for Inactive)
REMARK    1  A    between atoms: C_1  and  O_2
REMARK    2  A    between atoms: O_2  and  C_3
REMARK    3  A    between atoms: C_6  and  S_7
REMARK    4  A    between atoms: S_7  and  N_10
REMARK    5  A    between atoms: N_10  and  N_11
REMARK    6  A    between atoms: C_12  and  C_13
REMARK    7  A    between atoms: C_12  and  C_14
REMARK    8  A    between atoms: C_18  and  N_19
REMARK    9  A    between atoms: C_20  and  C_22
REMARK                            x       y       z     vdW  Elec       q    Type
REMARK                         _______ _______ _______ _____ _____    ______ ____
ROOT
ATOM      1  C   UNL     1       0.035   9.997  19.314  0.00  0.00    +0.000 A 
ATOM      2  C   UNL     1      -0.205   9.742  20.670  0.00  0.00    +0.000 A 
ATOM      3  C   UNL     1       0.539   8.772  21.336  0.00  0.00    +0.000 A 
ATOM      4  C   UNL     1       1.513   8.045  20.652  0.00  0.00    +0.000 A 
ATOM      5  C   UNL     1       1.777   8.294  19.303  0.00  0.00    +0.000 A 
ATOM      6  C   UNL     1       1.043   9.288  18.647  0.00  0.00    +0.000 A 
ENDROOT
BRANCH   5   7
ATOM      7  N   UNL     1       2.749   7.596  18.554  0.00  0.00    +0.000 N 
ATOM      8  C   UNL     1       2.905   6.227  18.510  0.00  0.00    +0.000 C 
ATOM      9  O   UNL     1       2.222   5.416  19.133  0.00  0.00    +0.000 OA
ATOM     10  H   UNL     1       3.445   8.161  18.076  0.00  0.00    +0.000 HD
BRANCH   8  11
ATOM     11  C   UNL     1       3.981   5.665  17.639  0.00  0.00    +0.000 A 
ATOM     12  C   UNL     1       5.083   6.519  17.433  0.00  0.00    +0.000 A 
ATOM     13  C   UNL     1       6.115   6.169  16.568  0.00  0.00    +0.000 A 
ATOM     14  C   UNL     1       6.068   4.953  15.898  0.00  0.00    +0.000 A 
ATOM     15  C   UNL     1       4.996   4.083  16.108  0.00  0.00    +0.000 A 
ATOM     16  C   UNL     1       3.950   4.433  16.975  0.00  0.00    +0.000 A 
ATOM     17 CL   UNL     1       2.658   3.294  17.123  0.00  0.00    +0.000 Cl
ENDBRANCH   8  11
ENDBRANCH   5   7
BRANCH   1  19
ATOM     18  N   UNL     1      -0.512  12.359  18.686  0.00  0.00    +0.000 NA
ATOM     19  C   UNL     1      -0.720  11.077  18.609  0.00  0.00    +0.000 C 
ATOM     20  C   UNL     1      -1.889  10.642  17.746  0.00  0.00    +0.000 C 
BRANCH  18  21
ATOM     21  N   UNL     1       0.653  12.844  19.353  0.00  0.00    +0.000 N 
ATOM     22  H   UNL     1       1.602  12.560  19.103  0.00  0.00    +0.000 HD
BRANCH  21  23
ATOM     23  S   UNL     1       0.538  13.884  20.684  0.00  0.00    +0.000 S 
ATOM     24  O   UNL     1       0.378  15.217  20.137  0.00  0.00    +0.000 OA
ATOM     25  O   UNL     1       1.619  13.589  21.601  0.00  0.00    +0.000 OA
BRANCH  23  29
ATOM     26  C   UNL     1      -3.396  12.693  22.662  0.00  0.00    +0.000 A 
ATOM     27  C   UNL     1      -2.183  12.185  23.134  0.00  0.00    +0.000 A 
ATOM     28  C   UNL     1      -0.979  12.548  22.530  0.00  0.00    +0.000 A 
ATOM     29  C   UNL     1      -0.996  13.403  21.427  0.00  0.00    +0.000 A 
ATOM     30  C   UNL     1      -2.203  13.923  20.948  0.00  0.00    +0.000 A 
ATOM     31  C   UNL     1      -3.405  13.559  21.565  0.00  0.00    +0.000 A 
BRANCH  26  33
ATOM     32  C   UNL     1      -4.468  12.359  24.745  0.00  0.00    +0.000 C 
ATOM     33  O   UNL     1      -4.503  12.245  23.328  0.00  0.00    +0.000 OA
ENDBRANCH  26  33
ENDBRANCH  23  29
ENDBRANCH  21  23
ENDBRANCH  18  21
ENDBRANCH   1  19
TORSDOF 7
ENDMDL
MODEL 6
REMARK VINA RESULT:      -8.3      6.188      9.897
REMARK  Name = 
REMARK  9 active torsions:
REMARK  status: ('A' for Active; 'I' for Inactive)
REMARK    1  A    between atoms: C_1  and  O_2
REMARK    2  A    between atoms: O_2  and  C_3
REMARK    3  A    between atoms: C_6  and  S_7
REMARK    4  A    between atoms: S_7  and  N_10
REMARK    5  A    between atoms: N_10  and  N_11
REMARK    6  A    between atoms: C_12  and  C_13
REMARK    7  A    between atoms: C_12  and  C_14
REMARK    8  A    between atoms: C_18  and  N_19
REMARK    9  A    between atoms: C_20  and  C_22
REMARK                            x       y       z     vdW  Elec       q    Type
REMARK                         _______ _______ _______ _____ _____    ______ ____
ROOT
ATOM      1  C   UNL     1      -0.179  11.218  18.632  0.00  0.00    +0.000 A 
ATOM      2  C   UNL     1       0.714  12.293  18.702  0.00  0.00    +0.000 A 
ATOM      3  C   UNL     1       2.063  12.096  18.420  0.00  0.00    +0.000 A 
ATOM      4  C   UNL     1       2.528  10.825  18.082  0.00  0.00    +0.000 A 
ATOM      5  C   UNL     1       1.651   9.742  17.994  0.00  0.00    +0.000 A 
ATOM      6  C   UNL     1       0.293   9.953  18.254  0.00  0.00    +0.000 A 
ENDROOT
BRANCH   5   7
ATOM      7  N   UNL     1       2.057   8.432  17.655  0.00  0.00    +0.000 N 
ATOM      8  C   UNL     1       2.370   7.428  18.546  0.00  0.00    +0.000 C 
ATOM      9  O   UNL     1       2.354   7.537  19.771  0.00  0.00    +0.000 OA
ATOM     10  H   UNL     1       2.212   8.246  16.669  0.00  0.00    +0.000 HD
BRANCH   8  11
ATOM     11  C   UNL     1       2.759   6.093  18.000  0.00  0.00    +0.000 A 
ATOM     12  C   UNL     1       1.777   5.090  18.130  0.00  0.00    +0.000 A 
ATOM     13  C   UNL     1       2.034   3.775  17.754  0.00  0.00    +0.000 A 
ATOM     14  C   UNL     1       3.278   3.441  17.232  0.00  0.00    +0.000 A 
ATOM     15  C   UNL     1       4.254   4.426  17.072  0.00  0.00    +0.000 A 
ATOM     16  C   UNL     1       4.002   5.751  17.455  0.00  0.00    +0.000 A 
ATOM     17 CL   UNL     1       5.302   6.874  17.248  0.00  0.00    +0.000 Cl
ENDBRANCH   8  11
ENDBRANCH   5   7
BRANCH   1  19
ATOM     18  N   UNL     1      -2.230  11.560  20.027  0.00  0.00    +0.000 NA
ATOM     19  C   UNL     1      -1.637  11.435  18.876  0.00  0.00    +0.000 C 
ATOM     20  C   UNL     1      -2.537  11.462  17.656  0.00  0.00    +0.000 C 
BRANCH  18  21
ATOM     21  N   UNL     1      -1.445  11.694  21.212  0.00  0.00    +0.000 N 
ATOM     22  H   UNL     1      -0.848  10.950  21.577  0.00  0.00    +0.000 HD
BRANCH  21  23
ATOM     23  S   UNL     1      -1.510  13.096  22.158  0.00  0.00    +0.000 S 
ATOM     24  O   UNL     1      -1.451  14.208  21.230  0.00  0.00    +0.000 OA
ATOM     25  O   UNL     1      -0.545  12.980  23.231  0.00  0.00    +0.000 OA
BRANCH  23  29
ATOM     26  C   UNL     1      -5.735  12.878  23.866  0.00  0.00    +0.000 A 
ATOM     27  C   UNL     1      -5.499  13.489  22.630  0.00  0.00    +0.000 A 
ATOM     28  C   UNL     1      -4.208  13.557  22.108  0.00  0.00    +0.000 A 
ATOM     29  C   UNL     1      -3.143  13.034  22.842  0.00  0.00    +0.000 A 
ATOM     30  C   UNL     1      -3.365  12.415  24.077  0.00  0.00    +0.000 A 
ATOM     31  C   UNL     1      -4.665  12.346  24.590  0.00  0.00    +0.000 A 
BRANCH  26  33
ATOM     32  C   UNL     1      -7.718  14.139  24.145  0.00  0.00    +0.000 C 
ATOM     33  O   UNL     1      -7.040  12.895  24.274  0.00  0.00    +0.000 OA
ENDBRANCH  26  33
ENDBRANCH  23  29
ENDBRANCH  21  23
ENDBRANCH  18  21
ENDBRANCH   1  19
TORSDOF 7
ENDMDL
MODEL 7
REMARK VINA RESULT:      -8.3      4.592      8.136
REMARK  Name = 
REMARK  9 active torsions:
REMARK  status: ('A' for Active; 'I' for Inactive)
REMARK    1  A    between atoms: C_1  and  O_2
REMARK    2  A    between atoms: O_2  and  C_3
REMARK    3  A    between atoms: C_6  and  S_7
REMARK    4  A    between atoms: S_7  and  N_10
REMARK    5  A    between atoms: N_10  and  N_11
REMARK    6  A    between atoms: C_12  and  C_13
REMARK    7  A    between atoms: C_12  and  C_14
REMARK    8  A    between atoms: C_18  and  N_19
REMARK    9  A    between atoms: C_20  and  C_22
REMARK                            x       y       z     vdW  Elec       q    Type
REMARK                         _______ _______ _______ _____ _____    ______ ____
ROOT
ATOM      1  C   UNL     1       2.126   7.369  19.276  0.00  0.00    +0.000 A 
ATOM      2  C   UNL     1       2.602   7.811  18.036  0.00  0.00    +0.000 A 
ATOM      3  C   UNL     1       2.275   9.086  17.581  0.00  0.00    +0.000 A 
ATOM      4  C   UNL     1       1.462   9.917  18.352  0.00  0.00    +0.000 A 
ATOM      5  C   UNL     1       0.988   9.499  19.597  0.00  0.00    +0.000 A 
ATOM      6  C   UNL     1       1.342   8.227  20.060  0.00  0.00    +0.000 A 
ENDROOT
BRANCH   5   7
ATOM      7  N   UNL     1       0.164  10.292  20.426  0.00  0.00    +0.000 N 
ATOM      8  C   UNL     1       0.579  11.359  21.194  0.00  0.00    +0.000 C 
ATOM      9  O   UNL     1       1.737  11.764  21.277  0.00  0.00    +0.000 OA
ATOM     10  H   UNL     1      -0.801   9.991  20.527  0.00  0.00    +0.000 HD
BRANCH   8  11
ATOM     11  C   UNL     1      -0.445  12.095  21.994  0.00  0.00    +0.000 A 
ATOM     12  C   UNL     1      -1.339  11.276  22.712  0.00  0.00    +0.000 A 
ATOM     13  C   UNL     1      -2.404  11.819  23.424  0.00  0.00    +0.000 A 
ATOM     14  C   UNL     1      -2.590  13.196  23.437  0.00  0.00    +0.000 A 
ATOM     15  C   UNL     1      -1.701  14.026  22.752  0.00  0.00    +0.000 A 
ATOM     16  C   UNL     1      -0.629  13.483  22.029  0.00  0.00    +0.000 A 
ATOM     17 CL   UNL     1       0.380  14.607  21.186  0.00  0.00    +0.000 Cl
ENDBRANCH   8  11
ENDBRANCH   5   7
BRANCH   1  19
ATOM     18  N   UNL     1       3.580   5.340  19.476  0.00  0.00    +0.000 NA
ATOM     19  C   UNL     1       2.521   6.025  19.797  0.00  0.00    +0.000 C 
ATOM     20  C   UNL     1       1.563   5.359  20.766  0.00  0.00    +0.000 C 
BRANCH  18  21
ATOM     21  N   UNL     1       4.602   5.952  18.690  0.00  0.00    +0.000 N 
ATOM     22  H   UNL     1       4.463   6.815  18.161  0.00  0.00    +0.000 HD
BRANCH  21  23
ATOM     23  S   UNL     1       6.125   5.234  18.511  0.00  0.00    +0.000 S 
ATOM     24  O   UNL     1       6.072   3.992  19.258  0.00  0.00    +0.000 OA
ATOM     25  O   UNL     1       7.143   6.222  18.797  0.00  0.00    +0.000 OA
BRANCH  23  29
ATOM     26  C   UNL     1       6.312   4.164  14.080  0.00  0.00    +0.000 A 
ATOM     27  C   UNL     1       7.291   4.981  14.656  0.00  0.00    +0.000 A 
ATOM     28  C   UNL     1       7.235   5.308  16.010  0.00  0.00    +0.000 A 
ATOM     29  C   UNL     1       6.174   4.838  16.785  0.00  0.00    +0.000 A 
ATOM     30  C   UNL     1       5.191   4.017  16.223  0.00  0.00    +0.000 A 
ATOM     31  C   UNL     1       5.260   3.687  14.866  0.00  0.00    +0.000 A 
BRANCH  26  33
ATOM     32  C   UNL     1       5.468   3.143  12.120  0.00  0.00    +0.000 C 
ATOM     33  O   UNL     1       6.472   3.935  12.742  0.00  0.00    +0.000 OA
ENDBRANCH  26  33
ENDBRANCH  23  29
ENDBRANCH  21  23
ENDBRANCH  18  21
ENDBRANCH   1  19
TORSDOF 7
ENDMDL
MODEL 8
REMARK VINA RESULT:      -8.2      4.896      7.613
REMARK  Name = 
REMARK  9 active torsions:
REMARK  status: ('A' for Active; 'I' for Inactive)
REMARK    1  A    between atoms: C_1  and  O_2
REMARK    2  A    between atoms: O_2  and  C_3
REMARK    3  A    between atoms: C_6  and  S_7
REMARK    4  A    between atoms: S_7  and  N_10
REMARK    5  A    between atoms: N_10  and  N_11
REMARK    6  A    between atoms: C_12  and  C_13
REMARK    7  A    between atoms: C_12  and  C_14
REMARK    8  A    between atoms: C_18  and  N_19
REMARK    9  A    between atoms: C_20  and  C_22
REMARK                            x       y       z     vdW  Elec       q    Type
REMARK                         _______ _______ _______ _____ _____    ______ ____
ROOT
ATOM      1  C   UNL     1       3.168   3.093  19.954  0.00  0.00    +0.000 A 
ATOM      2  C   UNL     1       2.219   2.178  19.483  0.00  0.00    +0.000 A 
ATOM      3  C   UNL     1       0.882   2.554  19.382  0.00  0.00    +0.000 A 
ATOM      4  C   UNL     1       0.485   3.836  19.762  0.00  0.00    +0.000 A 
ATOM      5  C   UNL     1       1.418   4.767  20.221  0.00  0.00    +0.000 A 
ATOM      6  C   UNL     1       2.764   4.391  20.296  0.00  0.00    +0.000 A 
ENDROOT
BRANCH   5   7
ATOM      7  N   UNL     1       1.083   6.080  20.619  0.00  0.00    +0.000 N 
ATOM      8  C   UNL     1       1.680   7.238  20.168  0.00  0.00    +0.000 C 
ATOM      9  O   UNL     1       2.606   7.289  19.361  0.00  0.00    +0.000 OA
ATOM     10  H   UNL     1       0.400   6.167  21.366  0.00  0.00    +0.000 HD
BRANCH   8  11
ATOM     11  C   UNL     1       1.173   8.543  20.688  0.00  0.00    +0.000 A 
ATOM     12  C   UNL     1       1.023   8.606  22.088  0.00  0.00    +0.000 A 
ATOM     13  C   UNL     1       0.470   9.724  22.705  0.00  0.00    +0.000 A 
ATOM     14  C   UNL     1       0.065  10.805  21.933  0.00  0.00    +0.000 A 
ATOM     15  C   UNL     1       0.229  10.772  20.547  0.00  0.00    +0.000 A 
ATOM     16  C   UNL     1       0.780   9.645  19.919  0.00  0.00    +0.000 A 
ATOM     17 CL   UNL     1       0.895   9.703  18.194  0.00  0.00    +0.000 Cl
ENDBRANCH   8  11
ENDBRANCH   5   7
BRANCH   1  19
ATOM     18  N   UNL     1       5.597   3.281  19.375  0.00  0.00    +0.000 NA
ATOM     19  C   UNL     1       4.612   2.715  20.009  0.00  0.00    +0.000 C 
ATOM     20  C   UNL     1       4.971   1.508  20.855  0.00  0.00    +0.000 C 
BRANCH  18  21
ATOM     21  N   UNL     1       5.372   4.507  18.678  0.00  0.00    +0.000 N 
ATOM     22  H   UNL     1       4.451   4.939  18.584  0.00  0.00    +0.000 HD
BRANCH  21  23
ATOM     23  S   UNL     1       6.629   5.308  17.876  0.00  0.00    +0.000 S 
ATOM     24  O   UNL     1       7.858   4.714  18.364  0.00  0.00    +0.000 OA
ATOM     25  O   UNL     1       6.411   6.736  17.975  0.00  0.00    +0.000 OA
BRANCH  23  29
ATOM     26  C   UNL     1       6.105   3.957  13.550  0.00  0.00    +0.000 A 
ATOM     27  C   UNL     1       7.243   4.671  13.938  0.00  0.00    +0.000 A 
ATOM     28  C   UNL     1       7.404   5.084  15.259  0.00  0.00    +0.000 A 
ATOM     29  C   UNL     1       6.404   4.806  16.192  0.00  0.00    +0.000 A 
ATOM     30  C   UNL     1       5.263   4.088  15.818  0.00  0.00    +0.000 A 
ATOM     31  C   UNL     1       5.113   3.671  14.491  0.00  0.00    +0.000 A 
BRANCH  26  33
ATOM     32  C   UNL     1       4.825   3.106  11.751  0.00  0.00    +0.000 C 
ATOM     33  O   UNL     1       6.061   3.628  12.223  0.00  0.00    +0.000 OA
ENDBRANCH  26  33
ENDBRANCH  23  29
ENDBRANCH  21  23
ENDBRANCH  18  21
ENDBRANCH   1  19
TORSDOF 7
ENDMDL
MODEL 9
REMARK VINA RESULT:      -8.1      5.170      8.781
REMARK  Name = 
REMARK  9 active torsions:
REMARK  status: ('A' for Active; 'I' for Inactive)
REMARK    1  A    between atoms: C_1  and  O_2
REMARK    2  A    between atoms: O_2  and  C_3
REMARK    3  A    between atoms: C_6  and  S_7
REMARK    4  A    between atoms: S_7  and  N_10
REMARK    5  A    between atoms: N_10  and  N_11
REMARK    6  A    between atoms: C_12  and  C_13
REMARK    7  A    between atoms: C_12  and  C_14
REMARK    8  A    between atoms: C_18  and  N_19
REMARK    9  A    between atoms: C_20  and  C_22
REMARK                            x       y       z     vdW  Elec       q    Type
REMARK                         _______ _______ _______ _____ _____    ______ ____
ROOT
ATOM      1  C   UNL     1       0.467   9.652  19.249  0.00  0.00    +0.000 A 
ATOM      2  C   UNL     1       0.243   9.313  20.589  0.00  0.00    +0.000 A 
ATOM      3  C   UNL     1       0.967   8.278  21.174  0.00  0.00    +0.000 A 
ATOM      4  C   UNL     1       1.904   7.568  20.424  0.00  0.00    +0.000 A 
ATOM      5  C   UNL     1       2.151   7.899  19.090  0.00  0.00    +0.000 A 
ATOM      6  C   UNL     1       1.439   8.957  18.516  0.00  0.00    +0.000 A 
ENDROOT
BRANCH   5   7
ATOM      7  N   UNL     1       3.087   7.222  18.276  0.00  0.00    +0.000 N 
ATOM      8  C   UNL     1       3.831   6.121  18.645  0.00  0.00    +0.000 C 
ATOM      9  O   UNL     1       3.795   5.580  19.749  0.00  0.00    +0.000 OA
ATOM     10  H   UNL     1       3.286   7.638  17.371  0.00  0.00    +0.000 HD
BRANCH   8  11
ATOM     11  C   UNL     1       4.758   5.524  17.638  0.00  0.00    +0.000 A 
ATOM     12  C   UNL     1       5.957   6.238  17.438  0.00  0.00    +0.000 A 
ATOM     13  C   UNL     1       6.872   5.854  16.463  0.00  0.00    +0.000 A 
ATOM     14  C   UNL     1       6.607   4.742  15.672  0.00  0.00    +0.000 A 
ATOM     15  C   UNL     1       5.436   4.008  15.871  0.00  0.00    +0.000 A 
ATOM     16  C   UNL     1       4.508   4.394  16.850  0.00  0.00    +0.000 A 
ATOM     17 CL   UNL     1       3.076   3.433  16.975  0.00  0.00    +0.000 Cl
ENDBRANCH   8  11
ENDBRANCH   5   7
BRANCH   1  19
ATOM     18  N   UNL     1       0.003  12.065  18.770  0.00  0.00    +0.000 NA
ATOM     19  C   UNL     1      -0.264  10.800  18.633  0.00  0.00    +0.000 C 
ATOM     20  C   UNL     1      -1.482  10.463  17.795  0.00  0.00    +0.000 C 
BRANCH  18  21
ATOM     21  N   UNL     1       1.213  12.462  19.417  0.00  0.00    +0.000 N 
ATOM     22  H   UNL     1       2.101  11.971  19.297  0.00  0.00    +0.000 HD
BRANCH  21  23
ATOM     23  S   UNL     1       1.246  13.756  20.509  0.00  0.00    +0.000 S 
ATOM     24  O   UNL     1       1.192  14.961  19.704  0.00  0.00    +0.000 OA
ATOM     25  O   UNL     1       2.326  13.546  21.449  0.00  0.00    +0.000 OA
BRANCH  23  29
ATOM     26  C   UNL     1      -2.767  13.302  22.632  0.00  0.00    +0.000 A 
ATOM     27  C   UNL     1      -2.564  14.334  21.710  0.00  0.00    +0.000 A 
ATOM     28  C   UNL     1      -1.338  14.473  21.061  0.00  0.00    +0.000 A 
ATOM     29  C   UNL     1      -0.299  13.590  21.359  0.00  0.00    +0.000 A 
ATOM     30  C   UNL     1      -0.491  12.551  22.276  0.00  0.00    +0.000 A 
ATOM     31  C   UNL     1      -1.726  12.413  22.916  0.00  0.00    +0.000 A 
BRANCH  26  33
ATOM     32  C   UNL     1      -4.138  12.485  24.378  0.00  0.00    +0.000 C 
ATOM     33  O   UNL     1      -4.005  13.287  23.212  0.00  0.00    +0.000 OA
ENDBRANCH  26  33
ENDBRANCH  23  29
ENDBRANCH  21  23
ENDBRANCH  18  21
ENDBRANCH   1  19
TORSDOF 7
ENDMDL
