MODEL 1
REMARK VINA RESULT:      -7.5      0.000      0.000
REMARK  Name = 
REMARK  7 active torsions:
REMARK  status: ('A' for Active; 'I' for Inactive)
REMARK    1  A    between atoms: C_1  and  C_2
REMARK    2  A    between atoms: C_2  and  C_3
REMARK    3  A    between atoms: C_2  and  C_4
REMARK    4  A    between atoms: C_6  and  S_7
REMARK    5  A    between atoms: S_7  and  N_10
REMARK    6  A    between atoms: N_10  and  C_11
REMARK    7  A    between atoms: N_10  and  C_12
REMARK                            x       y       z     vdW  Elec       q    Type
REMARK                         _______ _______ _______ _____ _____    ______ ____
ROOT
ATOM      1  S   UNL     1       6.246   5.937  15.982  0.00  0.00    +0.000 S 
ATOM      2  O   UNL     1       7.594   6.450  16.143  0.00  0.00    +0.000 OA
ATOM      3  O   UNL     1       5.151   6.834  15.670  0.00  0.00    +0.000 OA
ENDROOT
BRANCH   1   6
ATOM      4  C   UNL     1       5.898   3.573  12.945  0.00  0.00    +0.000 A 
ATOM      5  N   UNL     1       5.413   4.056  14.077  0.00  0.00    +0.000 NA
ATOM      6  C   UNL     1       6.368   4.958  14.533  0.00  0.00    +0.000 A 
ATOM      7  C   UNL     1       7.434   5.004  13.654  0.00  0.00    +0.000 A 
ATOM      8  N   UNL     1       7.125   4.120  12.663  0.00  0.00    +0.000 N 
ATOM      9  H   UNL     1       7.690   3.916  11.848  0.00  0.00    +0.000 HD
BRANCH   4  11
ATOM     10  C   UNL     1       4.202   3.277  11.141  0.00  0.00    +0.000 C 
ATOM     11  C   UNL     1       5.246   2.590  12.016  0.00  0.00    +0.000 C 
ATOM     12  C   UNL     1       6.301   1.888  11.166  0.00  0.00    +0.000 C 
ENDBRANCH   4  11
ENDBRANCH   1   6
BRANCH   1  13
ATOM     13  N   UNL     1       5.823   5.028  17.333  0.00  0.00    +0.000 N 
ATOM     14  C   UNL     1       6.798   4.725  18.380  0.00  0.00    +0.000 C 
BRANCH  13  15
ATOM     15  C   UNL     1       4.470   4.635  17.525  0.00  0.00    +0.000 A 
ATOM     16  C   UNL     1       4.103   3.325  17.202  0.00  0.00    +0.000 A 
ATOM     17  C   UNL     1       2.794   2.892  17.426  0.00  0.00    +0.000 A 
ATOM     18  C   UNL     1       1.873   3.772  17.978  0.00  0.00    +0.000 A 
ATOM     19  F   UNL     1       0.617   3.354  18.200  0.00  0.00    +0.000 F 
ATOM     20  C   UNL     1       2.230   5.074  18.309  0.00  0.00    +0.000 A 
ATOM     21  C   UNL     1       3.539   5.515  18.084  0.00  0.00    +0.000 A 
ENDBRANCH  13  15
ENDBRANCH   1  13
TORSDOF 4
ENDMDL
MODEL 2
REMARK VINA RESULT:      -7.5      1.277      1.718
REMARK  Name = 
REMARK  7 active torsions:
REMARK  status: ('A' for Active; 'I' for Inactive)
REMARK    1  A    between atoms: C_1  and  C_2
REMARK    2  A    between atoms: C_2  and  C_3
REMARK    3  A    between atoms: C_2  and  C_4
REMARK    4  A    between atoms: C_6  and  S_7
REMARK    5  A    between atoms: S_7  and  N_10
REMARK    6  A    between atoms: N_10  and  C_11
REMARK    7  A    between atoms: N_10  and  C_12
REMARK                            x       y       z     vdW  Elec       q    Type
REMARK                         _______ _______ _______ _____ _____    ______ ____
ROOT
ATOM      1  S   UNL     1       6.840   5.360  16.461  0.00  0.00    +0.000 S 
ATOM      2  O   UNL     1       7.456   4.274  17.201  0.00  0.00    +0.000 OA
ATOM      3  O   UNL     1       7.539   6.617  16.282  0.00  0.00    +0.000 OA
ENDROOT
BRANCH   1   6
ATOM      4  C   UNL     1       6.173   3.574  13.099  0.00  0.00    +0.000 A 
ATOM      5  N   UNL     1       5.932   3.697  14.394  0.00  0.00    +0.000 NA
ATOM      6  C   UNL     1       6.760   4.727  14.828  0.00  0.00    +0.000 A 
ATOM      7  C   UNL     1       7.502   5.216  13.770  0.00  0.00    +0.000 A 
ATOM      8  N   UNL     1       7.126   4.475  12.689  0.00  0.00    +0.000 N 
ATOM      9  H   UNL     1       7.470   4.581  11.744  0.00  0.00    +0.000 HD
BRANCH   4  11
ATOM     10  C   UNL     1       4.410   3.343  11.350  0.00  0.00    +0.000 C 
ATOM     11  C   UNL     1       5.514   2.635  12.130  0.00  0.00    +0.000 C 
ATOM     12  C   UNL     1       6.554   2.033  11.189  0.00  0.00    +0.000 C 
ENDBRANCH   4  11
ENDBRANCH   1   6
BRANCH   1  13
ATOM     13  N   UNL     1       5.315   5.683  17.096  0.00  0.00    +0.000 N 
ATOM     14  C   UNL     1       4.696   6.999  16.951  0.00  0.00    +0.000 C 
BRANCH  13  15
ATOM     15  C   UNL     1       4.561   4.634  17.691  0.00  0.00    +0.000 A 
ATOM     16  C   UNL     1       4.664   4.437  19.071  0.00  0.00    +0.000 A 
ATOM     17  C   UNL     1       3.898   3.449  19.694  0.00  0.00    +0.000 A 
ATOM     18  C   UNL     1       3.033   2.678  18.929  0.00  0.00    +0.000 A 
ATOM     19  F   UNL     1       2.291   1.733  19.527  0.00  0.00    +0.000 F 
ATOM     20  C   UNL     1       2.918   2.871  17.556  0.00  0.00    +0.000 A 
ATOM     21  C   UNL     1       3.686   3.857  16.927  0.00  0.00    +0.000 A 
ENDBRANCH  13  15
ENDBRANCH   1  13
TORSDOF 4
ENDMDL
MODEL 3
REMARK VINA RESULT:      -7.4      1.850      2.442
REMARK  Name = 
REMARK  7 active torsions:
REMARK  status: ('A' for Active; 'I' for Inactive)
REMARK    1  A    between atoms: C_1  and  C_2
REMARK    2  A    between atoms: C_2  and  C_3
REMARK    3  A    between atoms: C_2  and  C_4
REMARK    4  A    between atoms: C_6  and  S_7
REMARK    5  A    between atoms: S_7  and  N_10
REMARK    6  A    between atoms: N_10  and  C_11
REMARK    7  A    between atoms: N_10  and  C_12
REMARK                            x       y       z     vdW  Elec       q    Type
REMARK                         _______ _______ _______ _____ _____    ______ ____
ROOT
ATOM      1  S   UNL     1       5.816   5.219  17.975  0.00  0.00    +0.000 S 
ATOM      2  O   UNL     1       5.838   3.883  18.539  0.00  0.00    +0.000 OA
ATOM      3  O   UNL     1       6.741   6.231  18.446  0.00  0.00    +0.000 OA
ENDROOT
BRANCH   1   6
ATOM      4  C   UNL     1       6.461   4.207  14.301  0.00  0.00    +0.000 A 
ATOM      5  N   UNL     1       5.789   4.044  15.429  0.00  0.00    +0.000 NA
ATOM      6  C   UNL     1       6.340   4.957  16.322  0.00  0.00    +0.000 A 
ATOM      7  C   UNL     1       7.353   5.668  15.708  0.00  0.00    +0.000 A 
ATOM      8  N   UNL     1       7.422   5.179  14.437  0.00  0.00    +0.000 N 
ATOM      9  H   UNL     1       8.054   5.490  13.712  0.00  0.00    +0.000 HD
BRANCH   4  11
ATOM     10  C   UNL     1       4.785   3.610  12.553  0.00  0.00    +0.000 C 
ATOM     11  C   UNL     1       6.241   3.500  12.995  0.00  0.00    +0.000 C 
ATOM     12  C   UNL     1       7.184   4.054  11.930  0.00  0.00    +0.000 C 
ENDBRANCH   4  11
ENDBRANCH   1   6
BRANCH   1  13
ATOM     13  N   UNL     1       4.255   5.842  18.059  0.00  0.00    +0.000 N 
ATOM     14  C   UNL     1       3.928   7.150  17.494  0.00  0.00    +0.000 C 
BRANCH  13  15
ATOM     15  C   UNL     1       3.204   5.044  18.590  0.00  0.00    +0.000 A 
ATOM     16  C   UNL     1       2.903   5.156  19.950  0.00  0.00    +0.000 A 
ATOM     17  C   UNL     1       1.844   4.425  20.493  0.00  0.00    +0.000 A 
ATOM     18  C   UNL     1       1.094   3.600  19.665  0.00  0.00    +0.000 A 
ATOM     19  F   UNL     1       0.072   2.902  20.183  0.00  0.00    +0.000 F 
ATOM     20  C   UNL     1       1.381   3.488  18.308  0.00  0.00    +0.000 A 
ATOM     21  C   UNL     1       2.444   4.215  17.761  0.00  0.00    +0.000 A 
ENDBRANCH  13  15
ENDBRANCH   1  13
TORSDOF 4
ENDMDL
MODEL 4
REMARK VINA RESULT:      -7.4      2.304      2.832
REMARK  Name = 
REMARK  7 active torsions:
REMARK  status: ('A' for Active; 'I' for Inactive)
REMARK    1  A    between atoms: C_1  and  C_2
REMARK    2  A    between atoms: C_2  and  C_3
REMARK    3  A    between atoms: C_2  and  C_4
REMARK    4  A    between atoms: C_6  and  S_7
REMARK    5  A    between atoms: S_7  and  N_10
REMARK    6  A    between atoms: N_10  and  C_11
REMARK    7  A    between atoms: N_10  and  C_12
REMARK                            x       y       z     vdW  Elec       q    Type
REMARK                         _______ _______ _______ _____ _____    ______ ____
ROOT
ATOM      1  S   UNL     1       4.269   5.356  17.240  0.00  0.00    +0.000 S 
ATOM      2  O   UNL     1       4.096   6.795  17.175  0.00  0.00    +0.000 OA
ATOM      3  O   UNL     1       3.188   4.468  16.859  0.00  0.00    +0.000 OA
ENDROOT
BRANCH   1   6
ATOM      4  C   UNL     1       6.429   4.375  14.189  0.00  0.00    +0.000 A 
ATOM      5  N   UNL     1       5.275   4.326  14.833  0.00  0.00    +0.000 NA
ATOM      6  C   UNL     1       5.475   5.048  16.005  0.00  0.00    +0.000 A 
ATOM      7  C   UNL     1       6.770   5.528  16.051  0.00  0.00    +0.000 A 
ATOM      8  N   UNL     1       7.360   5.090  14.903  0.00  0.00    +0.000 N 
ATOM      9  H   UNL     1       8.312   5.275  14.613  0.00  0.00    +0.000 HD
BRANCH   4  11
ATOM     10  C   UNL     1       5.497   3.237  12.175  0.00  0.00    +0.000 C 
ATOM     11  C   UNL     1       6.751   3.793  12.843  0.00  0.00    +0.000 C 
ATOM     12  C   UNL     1       7.425   4.843  11.963  0.00  0.00    +0.000 C 
ENDBRANCH   4  11
ENDBRANCH   1   6
BRANCH   1  13
ATOM     13  N   UNL     1       4.801   4.919  18.776  0.00  0.00    +0.000 N 
ATOM     14  C   UNL     1       6.141   5.271  19.243  0.00  0.00    +0.000 C 
BRANCH  13  15
ATOM     15  C   UNL     1       3.903   4.294  19.684  0.00  0.00    +0.000 A 
ATOM     16  C   UNL     1       2.859   5.053  20.220  0.00  0.00    +0.000 A 
ATOM     17  C   UNL     1       1.930   4.456  21.075  0.00  0.00    +0.000 A 
ATOM     18  C   UNL     1       2.053   3.105  21.374  0.00  0.00    +0.000 A 
ATOM     19  F   UNL     1       1.156   2.529  22.189  0.00  0.00    +0.000 F 
ATOM     20  C   UNL     1       3.083   2.340  20.840  0.00  0.00    +0.000 A 
ATOM     21  C   UNL     1       4.019   2.934  19.985  0.00  0.00    +0.000 A 
ENDBRANCH  13  15
ENDBRANCH   1  13
TORSDOF 4
ENDMDL
MODEL 5
REMARK VINA RESULT:      -7.3      1.774      2.718
REMARK  Name = 
REMARK  7 active torsions:
REMARK  status: ('A' for Active; 'I' for Inactive)
REMARK    1  A    between atoms: C_1  and  C_2
REMARK    2  A    between atoms: C_2  and  C_3
REMARK    3  A    between atoms: C_2  and  C_4
REMARK    4  A    between atoms: C_6  and  S_7
REMARK    5  A    between atoms: S_7  and  N_10
REMARK    6  A    between atoms: N_10  and  C_11
REMARK    7  A    between atoms: N_10  and  C_12
REMARK                            x       y       z     vdW  Elec       q    Type
REMARK                         _______ _______ _______ _____ _____    ______ ____
ROOT
ATOM      1  S   UNL     1       5.511   6.226  17.725  0.00  0.00    +0.000 S 
ATOM      2  O   UNL     1       6.027   5.549  18.900  0.00  0.00    +0.000 OA
ATOM      3  O   UNL     1       6.166   7.414  17.215  0.00  0.00    +0.000 OA
ENDROOT
BRANCH   1   6
ATOM      4  C   UNL     1       6.304   4.177  14.547  0.00  0.00    +0.000 A 
ATOM      5  N   UNL     1       6.204   5.348  15.154  0.00  0.00    +0.000 NA
ATOM      6  C   UNL     1       5.779   5.057  16.446  0.00  0.00    +0.000 A 
ATOM      7  C   UNL     1       5.624   3.693  16.599  0.00  0.00    +0.000 A 
ATOM      8  N   UNL     1       5.952   3.153  15.391  0.00  0.00    +0.000 N 
ATOM      9  H   UNL     1       5.958   2.168  15.159  0.00  0.00    +0.000 HD
BRANCH   4  11
ATOM     10  C   UNL     1       5.599   3.514  12.248  0.00  0.00    +0.000 C 
ATOM     11  C   UNL     1       6.768   3.912  13.143  0.00  0.00    +0.000 C 
ATOM     12  C   UNL     1       7.496   5.134  12.589  0.00  0.00    +0.000 C 
ENDBRANCH   4  11
ENDBRANCH   1   6
BRANCH   1  13
ATOM     13  N   UNL     1       3.878   6.570  17.945  0.00  0.00    +0.000 N 
ATOM     14  C   UNL     1       3.293   7.819  17.458  0.00  0.00    +0.000 C 
BRANCH  13  15
ATOM     15  C   UNL     1       3.019   5.589  18.514  0.00  0.00    +0.000 A 
ATOM     16  C   UNL     1       2.811   5.606  19.896  0.00  0.00    +0.000 A 
ATOM     17  C   UNL     1       1.935   4.689  20.480  0.00  0.00    +0.000 A 
ATOM     18  C   UNL     1       1.271   3.774  19.673  0.00  0.00    +0.000 A 
ATOM     19  F   UNL     1       0.423   2.898  20.232  0.00  0.00    +0.000 F 
ATOM     20  C   UNL     1       1.466   3.755  18.296  0.00  0.00    +0.000 A 
ATOM     21  C   UNL     1       2.346   4.669  17.706  0.00  0.00    +0.000 A 
ENDBRANCH  13  15
ENDBRANCH   1  13
TORSDOF 4
ENDMDL
MODEL 6
REMARK VINA RESULT:      -7.2      2.332      2.683
REMARK  Name = 
REMARK  7 active torsions:
REMARK  status: ('A' for Active; 'I' for Inactive)
REMARK    1  A    between atoms: C_1  and  C_2
REMARK    2  A    between atoms: C_2  and  C_3
REMARK    3  A    between atoms: C_2  and  C_4
REMARK    4  A    between atoms: C_6  and  S_7
REMARK    5  A    between atoms: S_7  and  N_10
REMARK    6  A    between atoms: N_10  and  C_11
REMARK    7  A    between atoms: N_10  and  C_12
REMARK                            x       y       z     vdW  Elec       q    Type
REMARK                         _______ _______ _______ _____ _____    ______ ____
ROOT
ATOM      1  S   UNL     1       4.258   5.342  17.205  0.00  0.00    +0.000 S 
ATOM      2  O   UNL     1       4.079   6.781  17.148  0.00  0.00    +0.000 OA
ATOM      3  O   UNL     1       3.199   4.452  16.775  0.00  0.00    +0.000 OA
ENDROOT
BRANCH   1   6
ATOM      4  C   UNL     1       6.532   4.425  14.217  0.00  0.00    +0.000 A 
ATOM      5  N   UNL     1       5.350   4.374  14.810  0.00  0.00    +0.000 NA
ATOM      6  C   UNL     1       5.512   5.054  16.013  0.00  0.00    +0.000 A 
ATOM      7  C   UNL     1       6.810   5.511  16.129  0.00  0.00    +0.000 A 
ATOM      8  N   UNL     1       7.442   5.100  14.992  0.00  0.00    +0.000 N 
ATOM      9  H   UNL     1       8.408   5.278  14.749  0.00  0.00    +0.000 HD
BRANCH   4  11
ATOM     10  C   UNL     1       5.702   3.217  12.199  0.00  0.00    +0.000 C 
ATOM     11  C   UNL     1       6.902   3.881  12.867  0.00  0.00    +0.000 C 
ATOM     12  C   UNL     1       7.475   4.992  11.991  0.00  0.00    +0.000 C 
ENDBRANCH   4  11
ENDBRANCH   1   6
BRANCH   1  13
ATOM     13  N   UNL     1       4.736   4.893  18.755  0.00  0.00    +0.000 N 
ATOM     14  C   UNL     1       6.069   5.218  19.262  0.00  0.00    +0.000 C 
BRANCH  13  15
ATOM     15  C   UNL     1       3.800   4.284  19.635  0.00  0.00    +0.000 A 
ATOM     16  C   UNL     1       3.983   2.942  19.980  0.00  0.00    +0.000 A 
ATOM     17  C   UNL     1       3.111   2.329  20.882  0.00  0.00    +0.000 A 
ATOM     18  C   UNL     1       2.073   3.068  21.433  0.00  0.00    +0.000 A 
ATOM     19  F   UNL     1       1.238   2.482  22.305  0.00  0.00    +0.000 F 
ATOM     20  C   UNL     1       1.887   4.406  21.101  0.00  0.00    +0.000 A 
ATOM     21  C   UNL     1       2.756   5.025  20.196  0.00  0.00    +0.000 A 
ENDBRANCH  13  15
ENDBRANCH   1  13
TORSDOF 4
ENDMDL
MODEL 7
REMARK VINA RESULT:      -7.2      1.833      2.649
REMARK  Name = 
REMARK  7 active torsions:
REMARK  status: ('A' for Active; 'I' for Inactive)
REMARK    1  A    between atoms: C_1  and  C_2
REMARK    2  A    between atoms: C_2  and  C_3
REMARK    3  A    between atoms: C_2  and  C_4
REMARK    4  A    between atoms: C_6  and  S_7
REMARK    5  A    between atoms: S_7  and  N_10
REMARK    6  A    between atoms: N_10  and  C_11
REMARK    7  A    between atoms: N_10  and  C_12
REMARK                            x       y       z     vdW  Elec       q    Type
REMARK                         _______ _______ _______ _____ _____    ______ ____
ROOT
ATOM      1  S   UNL     1       5.670   5.635  17.920  0.00  0.00    +0.000 S 
ATOM      2  O   UNL     1       5.872   4.509  18.812  0.00  0.00    +0.000 OA
ATOM      3  O   UNL     1       6.582   6.761  17.940  0.00  0.00    +0.000 OA
ENDROOT
BRANCH   1   6
ATOM      4  C   UNL     1       6.484   4.716  14.255  0.00  0.00    +0.000 A 
ATOM      5  N   UNL     1       6.366   5.631  15.203  0.00  0.00    +0.000 NA
ATOM      6  C   UNL     1       5.953   4.937  16.336  0.00  0.00    +0.000 A 
ATOM      7  C   UNL     1       5.824   3.592  16.048  0.00  0.00    +0.000 A 
ATOM      8  N   UNL     1       6.155   3.470  14.731  0.00  0.00    +0.000 N 
ATOM      9  H   UNL     1       6.177   2.610  14.198  0.00  0.00    +0.000 HD
BRANCH   4  11
ATOM     10  C   UNL     1       8.348   5.518  12.805  0.00  0.00    +0.000 C 
ATOM     11  C   UNL     1       6.945   4.918  12.841  0.00  0.00    +0.000 C 
ATOM     12  C   UNL     1       6.891   3.599  12.075  0.00  0.00    +0.000 C 
ENDBRANCH   4  11
ENDBRANCH   1   6
BRANCH   1  13
ATOM     13  N   UNL     1       4.100   6.216  18.091  0.00  0.00    +0.000 N 
ATOM     14  C   UNL     1       3.728   7.548  17.616  0.00  0.00    +0.000 C 
BRANCH  13  15
ATOM     15  C   UNL     1       3.083   5.365  18.605  0.00  0.00    +0.000 A 
ATOM     16  C   UNL     1       2.484   4.443  17.741  0.00  0.00    +0.000 A 
ATOM     17  C   UNL     1       1.519   3.558  18.227  0.00  0.00    +0.000 A 
ATOM     18  C   UNL     1       1.173   3.601  19.571  0.00  0.00    +0.000 A 
ATOM     19  F   UNL     1       0.251   2.747  20.039  0.00  0.00    +0.000 F 
ATOM     20  C   UNL     1       1.769   4.509  20.439  0.00  0.00    +0.000 A 
ATOM     21  C   UNL     1       2.734   5.401  19.958  0.00  0.00    +0.000 A 
ENDBRANCH  13  15
ENDBRANCH   1  13
TORSDOF 4
ENDMDL
MODEL 8
REMARK VINA RESULT:      -7.2      4.011      5.474
REMARK  Name = 
REMARK  7 active torsions:
REMARK  status: ('A' for Active; 'I' for Inactive)
REMARK    1  A    between atoms: C_1  and  C_2
REMARK    2  A    between atoms: C_2  and  C_3
REMARK    3  A    between atoms: C_2  and  C_4
REMARK    4  A    between atoms: C_6  and  S_7
REMARK    5  A    between atoms: S_7  and  N_10
REMARK    6  A    between atoms: N_10  and  C_11
REMARK    7  A    between atoms: N_10  and  C_12
REMARK                            x       y       z     vdW  Elec       q    Type
REMARK                         _______ _______ _______ _____ _____    ______ ____
ROOT
ATOM      1  S   UNL     1       3.565   2.553  18.959  0.00  0.00    +0.000 S 
ATOM      2  O   UNL     1       3.501   1.397  18.084  0.00  0.00    +0.000 OA
ATOM      3  O   UNL     1       4.044   2.419  20.320  0.00  0.00    +0.000 OA
ENDROOT
BRANCH   1   6
ATOM      4  C   UNL     1       6.494   4.857  17.936  0.00  0.00    +0.000 A 
ATOM      5  N   UNL     1       5.753   4.306  18.883  0.00  0.00    +0.000 NA
ATOM      6  C   UNL     1       4.801   3.546  18.210  0.00  0.00    +0.000 A 
ATOM      7  C   UNL     1       4.986   3.654  16.845  0.00  0.00    +0.000 A 
ATOM      8  N   UNL     1       6.052   4.490  16.689  0.00  0.00    +0.000 N 
ATOM      9  H   UNL     1       6.463   4.775  15.809  0.00  0.00    +0.000 HD
BRANCH   4  11
ATOM     10  C   UNL     1       7.432   7.136  17.553  0.00  0.00    +0.000 C 
ATOM     11  C   UNL     1       7.694   5.742  18.114  0.00  0.00    +0.000 C 
ATOM     12  C   UNL     1       8.089   5.805  19.587  0.00  0.00    +0.000 C 
ENDBRANCH   4  11
ENDBRANCH   1   6
BRANCH   1  13
ATOM     13  N   UNL     1       2.066   3.318  18.993  0.00  0.00    +0.000 N 
ATOM     14  C   UNL     1       0.822   2.551  18.939  0.00  0.00    +0.000 C 
BRANCH  13  15
ATOM     15  C   UNL     1       1.995   4.724  19.189  0.00  0.00    +0.000 A 
ATOM     16  C   UNL     1       1.728   5.208  20.473  0.00  0.00    +0.000 A 
ATOM     17  C   UNL     1       1.701   6.584  20.709  0.00  0.00    +0.000 A 
ATOM     18  C   UNL     1       1.952   7.457  19.659  0.00  0.00    +0.000 A 
ATOM     19  F   UNL     1       1.934   8.780  19.886  0.00  0.00    +0.000 F 
ATOM     20  C   UNL     1       2.226   6.987  18.379  0.00  0.00    +0.000 A 
ATOM     21  C   UNL     1       2.250   5.609  18.137  0.00  0.00    +0.000 A 
ENDBRANCH  13  15
ENDBRANCH   1  13
TORSDOF 4
ENDMDL
MODEL 9
REMARK VINA RESULT:      -7.2      4.067      5.472
REMARK  Name = 
REMARK  7 active torsions:
REMARK  status: ('A' for Active; 'I' for Inactive)
REMARK    1  A    between atoms: C_1  and  C_2
REMARK    2  A    between atoms: C_2  and  C_3
REMARK    3  A    between atoms: C_2  and  C_4
REMARK    4  A    between atoms: C_6  and  S_7
REMARK    5  A    between atoms: S_7  and  N_10
REMARK    6  A    between atoms: N_10  and  C_11
REMARK    7  A    between atoms: N_10  and  C_12
REMARK                            x       y       z     vdW  Elec       q    Type
REMARK                         _______ _______ _______ _____ _____    ______ ____
ROOT
ATOM      1  S   UNL     1       3.538   2.562  19.077  0.00  0.00    +0.000 S 
ATOM      2  O   UNL     1       3.406   1.397  18.222  0.00  0.00    +0.000 OA
ATOM      3  O   UNL     1       4.031   2.426  20.433  0.00  0.00    +0.000 OA
ENDROOT
BRANCH   1   6
ATOM      4  C   UNL     1       6.505   4.778  17.974  0.00  0.00    +0.000 A 
ATOM      5  N   UNL     1       5.716   4.322  18.932  0.00  0.00    +0.000 NA
ATOM      6  C   UNL     1       4.808   3.484  18.294  0.00  0.00    +0.000 A 
ATOM      7  C   UNL     1       5.066   3.448  16.938  0.00  0.00    +0.000 A 
ATOM      8  N   UNL     1       6.135   4.275  16.751  0.00  0.00    +0.000 N 
ATOM      9  H   UNL     1       6.592   4.469  15.869  0.00  0.00    +0.000 HD
BRANCH   4  11
ATOM     10  C   UNL     1       7.404   7.057  17.506  0.00  0.00    +0.000 C 
ATOM     11  C   UNL     1       7.689   5.690  18.120  0.00  0.00    +0.000 C 
ATOM     12  C   UNL     1       8.077   5.817  19.591  0.00  0.00    +0.000 C 
ENDBRANCH   4  11
ENDBRANCH   1   6
BRANCH   1  13
ATOM     13  N   UNL     1       2.077   3.397  19.121  0.00  0.00    +0.000 N 
ATOM     14  C   UNL     1       0.797   2.689  19.099  0.00  0.00    +0.000 C 
BRANCH  13  15
ATOM     15  C   UNL     1       2.075   4.809  19.293  0.00  0.00    +0.000 A 
ATOM     16  C   UNL     1       2.313   5.618  18.179  0.00  0.00    +0.000 A 
ATOM     17  C   UNL     1       2.268   7.008  18.304  0.00  0.00    +0.000 A 
ATOM     18  C   UNL     1       1.975   7.569  19.539  0.00  0.00    +0.000 A 
ATOM     19  F   UNL     1       1.924   8.905  19.659  0.00  0.00    +0.000 F 
ATOM     20  C   UNL     1       1.729   6.773  20.652  0.00  0.00    +0.000 A 
ATOM     21  C   UNL     1       1.777   5.380  20.534  0.00  0.00    +0.000 A 
ENDBRANCH  13  15
ENDBRANCH   1  13
TORSDOF 4
ENDMDL
