MODEL 1
REMARK VINA RESULT:      -7.0      0.000      0.000
REMARK  Name = 
REMARK  9 active torsions:
REMARK  status: ('A' for Active; 'I' for Inactive)
REMARK    1  A    between atoms: C_1  and  O_2
REMARK    2  A    between atoms: O_2  and  C_3
REMARK    3  A    between atoms: C_6  and  C_7
REMARK    4  A    between atoms: N_9  and  C_10
REMARK    5  A    between atoms: C_18  and  C_19
REMARK    6  A    between atoms: C_19  and  N_20
REMARK    7  A    between atoms: N_20  and  C_21
REMARK    8  A    between atoms: N_20  and  C_22
REMARK    9  A    between atoms: C_22  and  C_23
REMARK                            x       y       z     vdW  Elec       q    Type
REMARK                         _______ _______ _______ _____ _____    ______ ____
ROOT
ATOM      1  C   UNL     1       2.793   7.027  18.535  0.00  0.00    +0.000 A 
ATOM      2  N   UNL     1       2.183   8.155  18.125  0.00  0.00    +0.000 NA
ATOM      3  N   UNL     1       1.588   8.667  19.229  0.00  0.00    +0.000 N 
ATOM      4  C   UNL     1       1.727   7.836  20.305  0.00  0.00    +0.000 A 
ATOM      5  C   UNL     1       2.454   6.738  19.894  0.00  0.00    +0.000 A 
ENDROOT
BRANCH   3   6
ATOM      6  C   UNL     1       0.851   9.874  19.196  0.00  0.00    +0.000 A 
ATOM      7  C   UNL     1      -0.419   9.930  19.785  0.00  0.00    +0.000 A 
ATOM      8  C   UNL     1      -1.099  11.151  19.844  0.00  0.00    +0.000 A 
ATOM      9  C   UNL     1      -0.541  12.300  19.277  0.00  0.00    +0.000 A 
ATOM     10  C   UNL     1       0.702  12.231  18.653  0.00  0.00    +0.000 A 
ATOM     11  C   UNL     1       1.398  11.027  18.627  0.00  0.00    +0.000 A 
ATOM     12  F   UNL     1       2.578  11.003  17.989  0.00  0.00    +0.000 F 
ENDBRANCH   3   6
BRANCH   1  16
ATOM     13  C   UNL     1       5.507   4.839  16.016  0.00  0.00    +0.000 A 
ATOM     14  C   UNL     1       5.655   6.215  16.196  0.00  0.00    +0.000 A 
ATOM     15  C   UNL     1       4.761   6.929  17.007  0.00  0.00    +0.000 A 
ATOM     16  C   UNL     1       3.688   6.280  17.635  0.00  0.00    +0.000 A 
ATOM     17  C   UNL     1       3.533   4.906  17.416  0.00  0.00    +0.000 A 
ATOM     18  C   UNL     1       4.440   4.186  16.626  0.00  0.00    +0.000 A 
BRANCH  13  20
ATOM     19  C   UNL     1       6.009   3.966  13.871  0.00  0.00    +0.000 C 
ATOM     20  O   UNL     1       6.434   4.250  15.199  0.00  0.00    +0.000 OA
ENDBRANCH  13  20
ENDBRANCH   1  16
BRANCH   5  21
ATOM     21  C   UNL     1       2.766   5.570  20.766  0.00  0.00    +0.000 C 
BRANCH  21  22
ATOM     22  N   UNL     1       1.594   4.729  21.018  0.00  0.00    +0.000 NA
ATOM     23  C   UNL     1       0.653   4.725  19.896  0.00  0.00    +0.000 C 
BRANCH  22  24
ATOM     24  C   UNL     1       1.999   3.354  21.397  0.00  0.00    +0.000 C 
BRANCH  24  25
ATOM     25  C   UNL     1       2.843   2.618  20.374  0.00  0.00    +0.000 A 
ATOM     26  N   UNL     1       4.143   2.433  20.470  0.00  0.00    +0.000 NA
ATOM     27  C   UNL     1       4.582   1.617  19.450  0.00  0.00    +0.000 A 
ATOM     28  C   UNL     1       3.618   1.227  18.549  0.00  0.00    +0.000 A 
ATOM     29  S   UNL     1       2.103   1.890  18.996  0.00  0.00    +0.000 S 
ENDBRANCH  24  25
ENDBRANCH  22  24
ENDBRANCH  21  22
ENDBRANCH   5  21
TORSDOF 7
ENDMDL
MODEL 2
REMARK VINA RESULT:      -7.0      4.480      6.991
REMARK  Name = 
REMARK  9 active torsions:
REMARK  status: ('A' for Active; 'I' for Inactive)
REMARK    1  A    between atoms: C_1  and  O_2
REMARK    2  A    between atoms: O_2  and  C_3
REMARK    3  A    between atoms: C_6  and  C_7
REMARK    4  A    between atoms: N_9  and  C_10
REMARK    5  A    between atoms: C_18  and  C_19
REMARK    6  A    between atoms: C_19  and  N_20
REMARK    7  A    between atoms: N_20  and  C_21
REMARK    8  A    between atoms: N_20  and  C_22
REMARK    9  A    between atoms: C_22  and  C_23
REMARK                            x       y       z     vdW  Elec       q    Type
REMARK                         _______ _______ _______ _____ _____    ______ ____
ROOT
ATOM      1  C   UNL     1       5.107   5.054  16.607  0.00  0.00    +0.000 A 
ATOM      2  N   UNL     1       4.376   4.176  17.320  0.00  0.00    +0.000 NA
ATOM      3  N   UNL     1       3.931   4.864  18.398  0.00  0.00    +0.000 N 
ATOM      4  C   UNL     1       4.445   6.131  18.431  0.00  0.00    +0.000 A 
ATOM      5  C   UNL     1       5.252   6.284  17.323  0.00  0.00    +0.000 A 
ENDROOT
BRANCH   3   6
ATOM      6  C   UNL     1       3.108   4.271  19.383  0.00  0.00    +0.000 A 
ATOM      7  C   UNL     1       1.801   4.739  19.572  0.00  0.00    +0.000 A 
ATOM      8  C   UNL     1       0.955   4.082  20.472  0.00  0.00    +0.000 A 
ATOM      9  C   UNL     1       1.422   2.996  21.216  0.00  0.00    +0.000 A 
ATOM     10  C   UNL     1       2.736   2.560  21.060  0.00  0.00    +0.000 A 
ATOM     11  C   UNL     1       3.567   3.188  20.136  0.00  0.00    +0.000 A 
ATOM     12  F   UNL     1       4.833   2.752  20.042  0.00  0.00    +0.000 F 
ENDBRANCH   3   6
BRANCH   1  16
ATOM     13  C   UNL     1       6.672   3.915  12.766  0.00  0.00    +0.000 A 
ATOM     14  C   UNL     1       7.459   4.625  13.674  0.00  0.00    +0.000 A 
ATOM     15  C   UNL     1       6.943   5.008  14.920  0.00  0.00    +0.000 A 
ATOM     16  C   UNL     1       5.619   4.705  15.271  0.00  0.00    +0.000 A 
ATOM     17  C   UNL     1       4.832   4.023  14.336  0.00  0.00    +0.000 A 
ATOM     18  C   UNL     1       5.354   3.618  13.100  0.00  0.00    +0.000 A 
BRANCH  13  20
ATOM     19  C   UNL     1       7.254   2.228  11.207  0.00  0.00    +0.000 C 
ATOM     20  O   UNL     1       7.279   3.602  11.581  0.00  0.00    +0.000 OA
ENDBRANCH  13  20
ENDBRANCH   1  16
BRANCH   5  21
ATOM     21  C   UNL     1       6.046   7.512  17.032  0.00  0.00    +0.000 C 
BRANCH  21  22
ATOM     22  N   UNL     1       7.160   7.692  17.965  0.00  0.00    +0.000 NA
ATOM     23  C   UNL     1       7.766   6.423  18.372  0.00  0.00    +0.000 C 
BRANCH  22  24
ATOM     24  C   UNL     1       8.169   8.626  17.411  0.00  0.00    +0.000 C 
BRANCH  24  25
ATOM     25  C   UNL     1       8.615   9.734  18.346  0.00  0.00    +0.000 A 
ATOM     26  N   UNL     1       9.046   9.547  19.576  0.00  0.00    +0.000 NA
ATOM     27  C   UNL     1       9.495  10.737  20.107  0.00  0.00    +0.000 A 
ATOM     28  C   UNL     1       9.353  11.838  19.293  0.00  0.00    +0.000 A 
ATOM     29  S   UNL     1       8.646  11.372  17.804  0.00  0.00    +0.000 S 
ENDBRANCH  24  25
ENDBRANCH  22  24
ENDBRANCH  21  22
ENDBRANCH   5  21
TORSDOF 7
ENDMDL
MODEL 3
REMARK VINA RESULT:      -7.0      4.543      7.937
REMARK  Name = 
REMARK  9 active torsions:
REMARK  status: ('A' for Active; 'I' for Inactive)
REMARK    1  A    between atoms: C_1  and  O_2
REMARK    2  A    between atoms: O_2  and  C_3
REMARK    3  A    between atoms: C_6  and  C_7
REMARK    4  A    between atoms: N_9  and  C_10
REMARK    5  A    between atoms: C_18  and  C_19
REMARK    6  A    between atoms: C_19  and  N_20
REMARK    7  A    between atoms: N_20  and  C_21
REMARK    8  A    between atoms: N_20  and  C_22
REMARK    9  A    between atoms: C_22  and  C_23
REMARK                            x       y       z     vdW  Elec       q    Type
REMARK                         _______ _______ _______ _____ _____    ______ ____
ROOT
ATOM      1  C   UNL     1       0.390  10.695  18.782  0.00  0.00    +0.000 A 
ATOM      2  N   UNL     1       0.859  11.871  19.242  0.00  0.00    +0.000 NA
ATOM      3  N   UNL     1      -0.110  12.777  18.973  0.00  0.00    +0.000 N 
ATOM      4  C   UNL     1      -1.138  12.219  18.267  0.00  0.00    +0.000 A 
ATOM      5  C   UNL     1      -0.837  10.887  18.073  0.00  0.00    +0.000 A 
ENDROOT
BRANCH   3   6
ATOM      6  C   UNL     1       0.016  14.141  19.327  0.00  0.00    +0.000 A 
ATOM      7  C   UNL     1       1.115  14.880  18.868  0.00  0.00    +0.000 A 
ATOM      8  C   UNL     1       1.182  16.253  19.130  0.00  0.00    +0.000 A 
ATOM      9  C   UNL     1       0.187  16.877  19.886  0.00  0.00    +0.000 A 
ATOM     10  C   UNL     1      -0.882  16.132  20.378  0.00  0.00    +0.000 A 
ATOM     11  C   UNL     1      -0.970  14.774  20.086  0.00  0.00    +0.000 A 
ATOM     12  F   UNL     1      -2.002  14.092  20.607  0.00  0.00    +0.000 F 
ENDBRANCH   3   6
BRANCH   1  16
ATOM     13  C   UNL     1       2.357   6.946  19.546  0.00  0.00    +0.000 A 
ATOM     14  C   UNL     1       1.660   7.605  20.560  0.00  0.00    +0.000 A 
ATOM     15  C   UNL     1       1.031   8.834  20.313  0.00  0.00    +0.000 A 
ATOM     16  C   UNL     1       1.108   9.437  19.049  0.00  0.00    +0.000 A 
ATOM     17  C   UNL     1       1.839   8.781  18.052  0.00  0.00    +0.000 A 
ATOM     18  C   UNL     1       2.447   7.540  18.290  0.00  0.00    +0.000 A 
BRANCH  13  20
ATOM     19  C   UNL     1       2.200   4.957  20.824  0.00  0.00    +0.000 C 
ATOM     20  O   UNL     1       2.934   5.759  19.904  0.00  0.00    +0.000 OA
ENDBRANCH  13  20
ENDBRANCH   1  16
BRANCH   5  21
ATOM     21  C   UNL     1      -1.686   9.945  17.288  0.00  0.00    +0.000 C 
BRANCH  21  22
ATOM     22  N   UNL     1      -2.918  10.572  16.804  0.00  0.00    +0.000 NA
ATOM     23  C   UNL     1      -3.140  10.347  15.374  0.00  0.00    +0.000 C 
BRANCH  22  24
ATOM     24  C   UNL     1      -4.084  10.142  17.613  0.00  0.00    +0.000 C 
BRANCH  24  25
ATOM     25  C   UNL     1      -5.216  11.146  17.709  0.00  0.00    +0.000 A 
ATOM     26  N   UNL     1      -5.252  12.296  17.069  0.00  0.00    +0.000 NA
ATOM     27  C   UNL     1      -6.470  12.910  17.267  0.00  0.00    +0.000 A 
ATOM     28  C   UNL     1      -7.338  12.246  18.104  0.00  0.00    +0.000 A 
ATOM     29  S   UNL     1      -6.615  10.794  18.655  0.00  0.00    +0.000 S 
ENDBRANCH  24  25
ENDBRANCH  22  24
ENDBRANCH  21  22
ENDBRANCH   5  21
TORSDOF 7
ENDMDL
MODEL 4
REMARK VINA RESULT:      -7.0      4.387      7.687
REMARK  Name = 
REMARK  9 active torsions:
REMARK  status: ('A' for Active; 'I' for Inactive)
REMARK    1  A    between atoms: C_1  and  O_2
REMARK    2  A    between atoms: O_2  and  C_3
REMARK    3  A    between atoms: C_6  and  C_7
REMARK    4  A    between atoms: N_9  and  C_10
REMARK    5  A    between atoms: C_18  and  C_19
REMARK    6  A    between atoms: C_19  and  N_20
REMARK    7  A    between atoms: N_20  and  C_21
REMARK    8  A    between atoms: N_20  and  C_22
REMARK    9  A    between atoms: C_22  and  C_23
REMARK                            x       y       z     vdW  Elec       q    Type
REMARK                         _______ _______ _______ _____ _____    ______ ____
ROOT
ATOM      1  C   UNL     1       0.306  10.265  19.680  0.00  0.00    +0.000 A 
ATOM      2  N   UNL     1       0.587  11.120  20.682  0.00  0.00    +0.000 NA
ATOM      3  N   UNL     1      -0.494  11.929  20.781  0.00  0.00    +0.000 N 
ATOM      4  C   UNL     1      -1.410  11.666  19.801  0.00  0.00    +0.000 A 
ATOM      5  C   UNL     1      -0.915  10.633  19.033  0.00  0.00    +0.000 A 
ENDROOT
BRANCH   3   6
ATOM      6  C   UNL     1      -0.576  12.962  21.745  0.00  0.00    +0.000 A 
ATOM      7  C   UNL     1       0.162  14.139  21.568  0.00  0.00    +0.000 A 
ATOM      8  C   UNL     1      -0.002  15.199  22.466  0.00  0.00    +0.000 A 
ATOM      9  C   UNL     1      -0.860  15.070  23.561  0.00  0.00    +0.000 A 
ATOM     10  C   UNL     1      -1.560  13.883  23.760  0.00  0.00    +0.000 A 
ATOM     11  C   UNL     1      -1.427  12.841  22.846  0.00  0.00    +0.000 A 
ATOM     12  F   UNL     1      -2.098  11.706  23.095  0.00  0.00    +0.000 F 
ENDBRANCH   3   6
BRANCH   1  16
ATOM     13  C   UNL     1       2.764   6.843  18.813  0.00  0.00    +0.000 A 
ATOM     14  C   UNL     1       2.220   7.026  20.085  0.00  0.00    +0.000 A 
ATOM     15  C   UNL     1       1.431   8.149  20.370  0.00  0.00    +0.000 A 
ATOM     16  C   UNL     1       1.189   9.122  19.390  0.00  0.00    +0.000 A 
ATOM     17  C   UNL     1       1.771   8.943  18.129  0.00  0.00    +0.000 A 
ATOM     18  C   UNL     1       2.540   7.809  17.835  0.00  0.00    +0.000 A 
BRANCH  13  20
ATOM     19  C   UNL     1       4.731   5.871  17.917  0.00  0.00    +0.000 C 
ATOM     20  O   UNL     1       3.522   5.715  18.653  0.00  0.00    +0.000 OA
ENDBRANCH  13  20
ENDBRANCH   1  16
BRANCH   5  21
ATOM     21  C   UNL     1      -1.596  10.094  17.820  0.00  0.00    +0.000 C 
BRANCH  21  22
ATOM     22  N   UNL     1      -2.767  10.885  17.437  0.00  0.00    +0.000 NA
ATOM     23  C   UNL     1      -2.772  11.232  16.015  0.00  0.00    +0.000 C 
BRANCH  22  24
ATOM     24  C   UNL     1      -4.021  10.203  17.838  0.00  0.00    +0.000 C 
BRANCH  24  25
ATOM     25  C   UNL     1      -5.100  11.103  18.407  0.00  0.00    +0.000 A 
ATOM     26  N   UNL     1      -4.957  12.393  18.629  0.00  0.00    +0.000 NA
ATOM     27  C   UNL     1      -6.158  12.942  19.023  0.00  0.00    +0.000 A 
ATOM     28  C   UNL     1      -7.201  12.053  19.149  0.00  0.00    +0.000 A 
ATOM     29  S   UNL     1      -6.669  10.474  18.749  0.00  0.00    +0.000 S 
ENDBRANCH  24  25
ENDBRANCH  22  24
ENDBRANCH  21  22
ENDBRANCH   5  21
TORSDOF 7
ENDMDL
MODEL 5
REMARK VINA RESULT:      -6.9      4.548      7.960
REMARK  Name = 
REMARK  9 active torsions:
REMARK  status: ('A' for Active; 'I' for Inactive)
REMARK    1  A    between atoms: C_1  and  O_2
REMARK    2  A    between atoms: O_2  and  C_3
REMARK    3  A    between atoms: C_6  and  C_7
REMARK    4  A    between atoms: N_9  and  C_10
REMARK    5  A    between atoms: C_18  and  C_19
REMARK    6  A    between atoms: C_19  and  N_20
REMARK    7  A    between atoms: N_20  and  C_21
REMARK    8  A    between atoms: N_20  and  C_22
REMARK    9  A    between atoms: C_22  and  C_23
REMARK                            x       y       z     vdW  Elec       q    Type
REMARK                         _______ _______ _______ _____ _____    ______ ____
ROOT
ATOM      1  C   UNL     1       0.636  10.778  18.760  0.00  0.00    +0.000 A 
ATOM      2  N   UNL     1       1.419  11.872  18.834  0.00  0.00    +0.000 NA
ATOM      3  N   UNL     1       0.584  12.926  18.676  0.00  0.00    +0.000 N 
ATOM      4  C   UNL     1      -0.693  12.521  18.407  0.00  0.00    +0.000 A 
ATOM      5  C   UNL     1      -0.700  11.141  18.399  0.00  0.00    +0.000 A 
ENDROOT
BRANCH   3   6
ATOM      6  C   UNL     1       1.046  14.263  18.708  0.00  0.00    +0.000 A 
ATOM      7  C   UNL     1       2.339  14.564  18.261  0.00  0.00    +0.000 A 
ATOM      8  C   UNL     1       2.754  15.898  18.195  0.00  0.00    +0.000 A 
ATOM      9  C   UNL     1       1.905  16.924  18.617  0.00  0.00    +0.000 A 
ATOM     10  C   UNL     1       0.636  16.619  19.104  0.00  0.00    +0.000 A 
ATOM     11  C   UNL     1       0.207  15.296  19.134  0.00  0.00    +0.000 A 
ATOM     12  F   UNL     1      -1.012  15.049  19.638  0.00  0.00    +0.000 F 
ENDBRANCH   3   6
BRANCH   1  16
ATOM     13  C   UNL     1       2.346   6.930  19.634  0.00  0.00    +0.000 A 
ATOM     14  C   UNL     1       2.430   7.472  18.350  0.00  0.00    +0.000 A 
ATOM     15  C   UNL     1       1.860   8.720  18.063  0.00  0.00    +0.000 A 
ATOM     16  C   UNL     1       1.175   9.440  19.054  0.00  0.00    +0.000 A 
ATOM     17  C   UNL     1       1.068   8.867  20.327  0.00  0.00    +0.000 A 
ATOM     18  C   UNL     1       1.659   7.630  20.622  0.00  0.00    +0.000 A 
BRANCH  13  20
ATOM     19  C   UNL     1       4.225   5.548  19.218  0.00  0.00    +0.000 C 
ATOM     20  O   UNL     1       2.933   5.704  19.794  0.00  0.00    +0.000 OA
ENDBRANCH  13  20
ENDBRANCH   1  16
BRANCH   5  21
ATOM     21  C   UNL     1      -1.899  10.314  18.081  0.00  0.00    +0.000 C 
BRANCH  21  22
ATOM     22  N   UNL     1      -2.888  11.045  17.284  0.00  0.00    +0.000 NA
ATOM     23  C   UNL     1      -2.708  10.848  15.845  0.00  0.00    +0.000 C 
BRANCH  22  24
ATOM     24  C   UNL     1      -4.267  10.710  17.714  0.00  0.00    +0.000 C 
BRANCH  24  25
ATOM     25  C   UNL     1      -5.049  11.848  18.340  0.00  0.00    +0.000 A 
ATOM     26  N   UNL     1      -4.790  12.375  19.518  0.00  0.00    +0.000 NA
ATOM     27  C   UNL     1      -5.596  13.472  19.735  0.00  0.00    +0.000 A 
ATOM     28  C   UNL     1      -6.506  13.743  18.738  0.00  0.00    +0.000 A 
ATOM     29  S   UNL     1      -6.341  12.596  17.475  0.00  0.00    +0.000 S 
ENDBRANCH  24  25
ENDBRANCH  22  24
ENDBRANCH  21  22
ENDBRANCH   5  21
TORSDOF 7
ENDMDL
MODEL 6
REMARK VINA RESULT:      -6.9      4.533      7.945
REMARK  Name = 
REMARK  9 active torsions:
REMARK  status: ('A' for Active; 'I' for Inactive)
REMARK    1  A    between atoms: C_1  and  O_2
REMARK    2  A    between atoms: O_2  and  C_3
REMARK    3  A    between atoms: C_6  and  C_7
REMARK    4  A    between atoms: N_9  and  C_10
REMARK    5  A    between atoms: C_18  and  C_19
REMARK    6  A    between atoms: C_19  and  N_20
REMARK    7  A    between atoms: N_20  and  C_21
REMARK    8  A    between atoms: N_20  and  C_22
REMARK    9  A    between atoms: C_22  and  C_23
REMARK                            x       y       z     vdW  Elec       q    Type
REMARK                         _______ _______ _______ _____ _____    ______ ____
ROOT
ATOM      1  C   UNL     1       0.560  10.966  18.751  0.00  0.00    +0.000 A 
ATOM      2  N   UNL     1       1.218  12.123  18.955  0.00  0.00    +0.000 NA
ATOM      3  N   UNL     1       0.301  13.101  18.765  0.00  0.00    +0.000 N 
ATOM      4  C   UNL     1      -0.898  12.591  18.351  0.00  0.00    +0.000 A 
ATOM      5  C   UNL     1      -0.765  11.220  18.277  0.00  0.00    +0.000 A 
ENDROOT
BRANCH   3   6
ATOM      6  C   UNL     1       0.621  14.471  18.907  0.00  0.00    +0.000 A 
ATOM      7  C   UNL     1      -0.333  15.360  19.418  0.00  0.00    +0.000 A 
ATOM      8  C   UNL     1       0.020  16.692  19.657  0.00  0.00    +0.000 A 
ATOM      9  C   UNL     1       1.302  17.150  19.343  0.00  0.00    +0.000 A 
ATOM     10  C   UNL     1       2.236  16.275  18.793  0.00  0.00    +0.000 A 
ATOM     11  C   UNL     1       1.899  14.940  18.591  0.00  0.00    +0.000 A 
ATOM     12  F   UNL     1       2.822  14.143  18.032  0.00  0.00    +0.000 F 
ENDBRANCH   3   6
BRANCH   1  16
ATOM     13  C   UNL     1       2.296   7.115  19.563  0.00  0.00    +0.000 A 
ATOM     14  C   UNL     1       1.645   7.830  20.570  0.00  0.00    +0.000 A 
ATOM     15  C   UNL     1       1.092   9.091  20.307  0.00  0.00    +0.000 A 
ATOM     16  C   UNL     1       1.200   9.670  19.034  0.00  0.00    +0.000 A 
ATOM     17  C   UNL     1       1.886   8.956  18.044  0.00  0.00    +0.000 A 
ATOM     18  C   UNL     1       2.418   7.685  18.298  0.00  0.00    +0.000 A 
BRANCH  13  20
ATOM     19  C   UNL     1       4.011   5.501  19.300  0.00  0.00    +0.000 C 
ATOM     20  O   UNL     1       2.801   5.899  19.936  0.00  0.00    +0.000 OA
ENDBRANCH  13  20
ENDBRANCH   1  16
BRANCH   5  21
ATOM     21  C   UNL     1      -1.840  10.302  17.801  0.00  0.00    +0.000 C 
BRANCH  21  22
ATOM     22  N   UNL     1      -2.943  11.018  17.157  0.00  0.00    +0.000 NA
ATOM     23  C   UNL     1      -2.962  10.835  15.704  0.00  0.00    +0.000 C 
BRANCH  22  24
ATOM     24  C   UNL     1      -4.242  10.653  17.771  0.00  0.00    +0.000 C 
BRANCH  24  25
ATOM     25  C   UNL     1      -5.051  11.811  18.322  0.00  0.00    +0.000 A 
ATOM     26  N   UNL     1      -4.913  12.312  19.532  0.00  0.00    +0.000 NA
ATOM     27  C   UNL     1      -5.700  13.434  19.673  0.00  0.00    +0.000 A 
ATOM     28  C   UNL     1      -6.476  13.753  18.582  0.00  0.00    +0.000 A 
ATOM     29  S   UNL     1      -6.206  12.619  17.326  0.00  0.00    +0.000 S 
ENDBRANCH  24  25
ENDBRANCH  22  24
ENDBRANCH  21  22
ENDBRANCH   5  21
TORSDOF 7
ENDMDL
MODEL 7
REMARK VINA RESULT:      -6.9      4.576      7.467
REMARK  Name = 
REMARK  9 active torsions:
REMARK  status: ('A' for Active; 'I' for Inactive)
REMARK    1  A    between atoms: C_1  and  O_2
REMARK    2  A    between atoms: O_2  and  C_3
REMARK    3  A    between atoms: C_6  and  C_7
REMARK    4  A    between atoms: N_9  and  C_10
REMARK    5  A    between atoms: C_18  and  C_19
REMARK    6  A    between atoms: C_19  and  N_20
REMARK    7  A    between atoms: N_20  and  C_21
REMARK    8  A    between atoms: N_20  and  C_22
REMARK    9  A    between atoms: C_22  and  C_23
REMARK                            x       y       z     vdW  Elec       q    Type
REMARK                         _______ _______ _______ _____ _____    ______ ____
ROOT
ATOM      1  C   UNL     1      -0.451  10.748  18.952  0.00  0.00    +0.000 A 
ATOM      2  N   UNL     1      -1.775  10.519  18.855  0.00  0.00    +0.000 NA
ATOM      3  N   UNL     1      -2.338  11.731  18.639  0.00  0.00    +0.000 N 
ATOM      4  C   UNL     1      -1.409  12.733  18.693  0.00  0.00    +0.000 A 
ATOM      5  C   UNL     1      -0.183  12.152  18.945  0.00  0.00    +0.000 A 
ENDROOT
BRANCH   3   6
ATOM      6  C   UNL     1      -3.733  11.894  18.469  0.00  0.00    +0.000 A 
ATOM      7  C   UNL     1      -4.522  12.303  19.552  0.00  0.00    +0.000 A 
ATOM      8  C   UNL     1      -5.882  12.566  19.355  0.00  0.00    +0.000 A 
ATOM      9  C   UNL     1      -6.464  12.376  18.099  0.00  0.00    +0.000 A 
ATOM     10  C   UNL     1      -5.686  11.927  17.035  0.00  0.00    +0.000 A 
ATOM     11  C   UNL     1      -4.325  11.702  17.219  0.00  0.00    +0.000 A 
ATOM     12  F   UNL     1      -3.623  11.242  16.172  0.00  0.00    +0.000 F 
ENDBRANCH   3   6
BRANCH   1  16
ATOM     13  C   UNL     1       2.459   7.588  19.165  0.00  0.00    +0.000 A 
ATOM     14  C   UNL     1       2.165   8.204  17.948  0.00  0.00    +0.000 A 
ATOM     15  C   UNL     1       1.206   9.225  17.878  0.00  0.00    +0.000 A 
ATOM     16  C   UNL     1       0.507   9.632  19.024  0.00  0.00    +0.000 A 
ATOM     17  C   UNL     1       0.788   8.979  20.230  0.00  0.00    +0.000 A 
ATOM     18  C   UNL     1       1.764   7.976  20.307  0.00  0.00    +0.000 A 
BRANCH  13  20
ATOM     19  C   UNL     1       3.071   5.375  19.752  0.00  0.00    +0.000 C 
ATOM     20  O   UNL     1       3.407   6.602  19.112  0.00  0.00    +0.000 OA
ENDBRANCH  13  20
ENDBRANCH   1  16
BRANCH   5  21
ATOM     21  C   UNL     1       1.080  12.921  19.138  0.00  0.00    +0.000 C 
BRANCH  21  22
ATOM     22  N   UNL     1       1.517  12.936  20.536  0.00  0.00    +0.000 NA
ATOM     23  C   UNL     1       2.865  13.485  20.699  0.00  0.00    +0.000 C 
BRANCH  22  24
ATOM     24  C   UNL     1       0.533  13.642  21.391  0.00  0.00    +0.000 C 
BRANCH  24  25
ATOM     25  C   UNL     1      -0.489  12.755  22.077  0.00  0.00    +0.000 A 
ATOM     26  N   UNL     1      -0.243  11.543  22.529  0.00  0.00    +0.000 NA
ATOM     27  C   UNL     1      -1.339  11.062  23.212  0.00  0.00    +0.000 A 
ATOM     28  C   UNL     1      -2.437  11.893  23.230  0.00  0.00    +0.000 A 
ATOM     29  S   UNL     1      -2.086  13.335  22.375  0.00  0.00    +0.000 S 
ENDBRANCH  24  25
ENDBRANCH  22  24
ENDBRANCH  21  22
ENDBRANCH   5  21
TORSDOF 7
ENDMDL
MODEL 8
REMARK VINA RESULT:      -6.9      4.619      9.040
REMARK  Name = 
REMARK  9 active torsions:
REMARK  status: ('A' for Active; 'I' for Inactive)
REMARK    1  A    between atoms: C_1  and  O_2
REMARK    2  A    between atoms: O_2  and  C_3
REMARK    3  A    between atoms: C_6  and  C_7
REMARK    4  A    between atoms: N_9  and  C_10
REMARK    5  A    between atoms: C_18  and  C_19
REMARK    6  A    between atoms: C_19  and  N_20
REMARK    7  A    between atoms: N_20  and  C_21
REMARK    8  A    between atoms: N_20  and  C_22
REMARK    9  A    between atoms: C_22  and  C_23
REMARK                            x       y       z     vdW  Elec       q    Type
REMARK                         _______ _______ _______ _____ _____    ______ ____
ROOT
ATOM      1  C   UNL     1      -0.294  10.491  18.358  0.00  0.00    +0.000 A 
ATOM      2  N   UNL     1       0.193   9.262  18.101  0.00  0.00    +0.000 NA
ATOM      3  N   UNL     1       1.421   9.233  18.671  0.00  0.00    +0.000 N 
ATOM      4  C   UNL     1       1.759  10.448  19.198  0.00  0.00    +0.000 A 
ATOM      5  C   UNL     1       0.704  11.308  18.975  0.00  0.00    +0.000 A 
ENDROOT
BRANCH   3   6
ATOM      6  C   UNL     1       2.247   8.085  18.622  0.00  0.00    +0.000 A 
ATOM      7  C   UNL     1       3.132   7.910  17.551  0.00  0.00    +0.000 A 
ATOM      8  C   UNL     1       4.021   6.830  17.559  0.00  0.00    +0.000 A 
ATOM      9  C   UNL     1       3.996   5.902  18.603  0.00  0.00    +0.000 A 
ATOM     10  C   UNL     1       3.085   6.054  19.645  0.00  0.00    +0.000 A 
ATOM     11  C   UNL     1       2.226   7.149  19.658  0.00  0.00    +0.000 A 
ATOM     12  F   UNL     1       1.345   7.236  20.667  0.00  0.00    +0.000 F 
ENDBRANCH   3   6
BRANCH   1  16
ATOM     13  C   UNL     1      -4.407  11.363  17.449  0.00  0.00    +0.000 A 
ATOM     14  C   UNL     1      -3.617  10.641  16.553  0.00  0.00    +0.000 A 
ATOM     15  C   UNL     1      -2.273  10.369  16.845  0.00  0.00    +0.000 A 
ATOM     16  C   UNL     1      -1.688  10.836  18.032  0.00  0.00    +0.000 A 
ATOM     17  C   UNL     1      -2.484  11.589  18.903  0.00  0.00    +0.000 A 
ATOM     18  C   UNL     1      -3.835  11.840  18.625  0.00  0.00    +0.000 A 
BRANCH  13  20
ATOM     19  C   UNL     1      -6.208  12.889  17.243  0.00  0.00    +0.000 C 
ATOM     20  O   UNL     1      -5.701  11.572  17.056  0.00  0.00    +0.000 OA
ENDBRANCH  13  20
ENDBRANCH   1  16
BRANCH   5  21
ATOM     21  C   UNL     1       0.712  12.752  19.348  0.00  0.00    +0.000 C 
BRANCH  21  22
ATOM     22  N   UNL     1       1.633  13.041  20.449  0.00  0.00    +0.000 NA
ATOM     23  C   UNL     1       2.815  13.787  20.014  0.00  0.00    +0.000 C 
BRANCH  22  24
ATOM     24  C   UNL     1       0.931  13.729  21.560  0.00  0.00    +0.000 C 
BRANCH  24  25
ATOM     25  C   UNL     1      -0.353  13.072  22.026  0.00  0.00    +0.000 A 
ATOM     26  N   UNL     1      -0.425  11.881  22.581  0.00  0.00    +0.000 NA
ATOM     27  C   UNL     1      -1.713  11.634  23.007  0.00  0.00    +0.000 A 
ATOM     28  C   UNL     1      -2.629  12.622  22.725  0.00  0.00    +0.000 A 
ATOM     29  S   UNL     1      -1.855  13.914  21.909  0.00  0.00    +0.000 S 
ENDBRANCH  24  25
ENDBRANCH  22  24
ENDBRANCH  21  22
ENDBRANCH   5  21
TORSDOF 7
ENDMDL
MODEL 9
REMARK VINA RESULT:      -6.9      0.737      1.212
REMARK  Name = 
REMARK  9 active torsions:
REMARK  status: ('A' for Active; 'I' for Inactive)
REMARK    1  A    between atoms: C_1  and  O_2
REMARK    2  A    between atoms: O_2  and  C_3
REMARK    3  A    between atoms: C_6  and  C_7
REMARK    4  A    between atoms: N_9  and  C_10
REMARK    5  A    between atoms: C_18  and  C_19
REMARK    6  A    between atoms: C_19  and  N_20
REMARK    7  A    between atoms: N_20  and  C_21
REMARK    8  A    between atoms: N_20  and  C_22
REMARK    9  A    between atoms: C_22  and  C_23
REMARK                            x       y       z     vdW  Elec       q    Type
REMARK                         _______ _______ _______ _____ _____    ______ ____
ROOT
ATOM      1  C   UNL     1       2.909   7.012  18.382  0.00  0.00    +0.000 A 
ATOM      2  N   UNL     1       2.275   8.118  17.945  0.00  0.00    +0.000 NA
ATOM      3  N   UNL     1       1.668   8.642  19.036  0.00  0.00    +0.000 N 
ATOM      4  C   UNL     1       1.824   7.840  20.132  0.00  0.00    +0.000 A 
ATOM      5  C   UNL     1       2.575   6.749  19.747  0.00  0.00    +0.000 A 
ENDROOT
BRANCH   3   6
ATOM      6  C   UNL     1       0.906   9.832  18.974  0.00  0.00    +0.000 A 
ATOM      7  C   UNL     1      -0.426   9.829  19.409  0.00  0.00    +0.000 A 
ATOM      8  C   UNL     1      -1.143  11.029  19.447  0.00  0.00    +0.000 A 
ATOM      9  C   UNL     1      -0.556  12.218  19.007  0.00  0.00    +0.000 A 
ATOM     10  C   UNL     1       0.754  12.210  18.532  0.00  0.00    +0.000 A 
ATOM     11  C   UNL     1       1.482  11.025  18.531  0.00  0.00    +0.000 A 
ATOM     12  F   UNL     1       2.729  11.061  18.037  0.00  0.00    +0.000 F 
ENDBRANCH   3   6
BRANCH   1  16
ATOM     13  C   UNL     1       5.463   4.822  15.702  0.00  0.00    +0.000 A 
ATOM     14  C   UNL     1       4.509   4.161  16.477  0.00  0.00    +0.000 A 
ATOM     15  C   UNL     1       3.686   4.874  17.360  0.00  0.00    +0.000 A 
ATOM     16  C   UNL     1       3.820   6.264  17.500  0.00  0.00    +0.000 A 
ATOM     17  C   UNL     1       4.806   6.908  16.742  0.00  0.00    +0.000 A 
ATOM     18  C   UNL     1       5.612   6.200  15.840  0.00  0.00    +0.000 A 
BRANCH  13  20
ATOM     19  C   UNL     1       5.769   3.920  13.532  0.00  0.00    +0.000 C 
ATOM     20  O   UNL     1       6.212   4.023  14.881  0.00  0.00    +0.000 OA
ENDBRANCH  13  20
ENDBRANCH   1  16
BRANCH   5  21
ATOM     21  C   UNL     1       2.911   5.608  20.647  0.00  0.00    +0.000 C 
BRANCH  21  22
ATOM     22  N   UNL     1       1.731   4.829  21.028  0.00  0.00    +0.000 NA
ATOM     23  C   UNL     1       0.694   4.834  19.995  0.00  0.00    +0.000 C 
BRANCH  22  24
ATOM     24  C   UNL     1       2.111   3.449  21.416  0.00  0.00    +0.000 C 
BRANCH  24  25
ATOM     25  C   UNL     1       2.621   2.573  20.288  0.00  0.00    +0.000 A 
ATOM     26  N   UNL     1       1.871   2.083  19.324  0.00  0.00    +0.000 NA
ATOM     27  C   UNL     1       2.658   1.442  18.391  0.00  0.00    +0.000 A 
ATOM     28  C   UNL     1       4.004   1.402  18.680  0.00  0.00    +0.000 A 
ATOM     29  S   UNL     1       4.302   2.205  20.163  0.00  0.00    +0.000 S 
ENDBRANCH  24  25
ENDBRANCH  22  24
ENDBRANCH  21  22
ENDBRANCH   5  21
TORSDOF 7
ENDMDL
