MODEL 1
REMARK VINA RESULT:      -8.9      0.000      0.000
REMARK  Name = 
REMARK  5 active torsions:
REMARK  status: ('A' for Active; 'I' for Inactive)
REMARK    1  A    between atoms: C_2  and  C_26
REMARK    2  A    between atoms: C_7  and  C_8
REMARK    3  A    between atoms: N_12  and  C_13
REMARK    4  A    between atoms: C_16  and  O_17
REMARK    5  A    between atoms: O_17  and  C_18
REMARK                            x       y       z     vdW  Elec       q    Type
REMARK                         _______ _______ _______ _____ _____    ______ ____
ROOT
ATOM      1  C   UNL     1       0.044   9.383  20.491  0.00  0.00    +0.000 C 
ATOM      2  C   UNL     1       0.822   9.098  21.767  0.00  0.00    +0.000 C 
ATOM      3  C   UNL     1       0.099   9.907  22.814  0.00  0.00    +0.000 C 
ATOM      4  O   UNL     1       0.256   9.722  24.014  0.00  0.00    +0.000 OA
ATOM      5  N   UNL     1      -0.699  10.857  22.164  0.00  0.00    +0.000 N 
ATOM      6  C   UNL     1      -0.536  10.767  20.729  0.00  0.00    +0.000 C 
ENDROOT
BRANCH   1  13
ATOM      7  O   UNL     1       2.940   5.880  18.876  0.00  0.00    +0.000 OA
ATOM      8  C   UNL     1       3.664   6.488  18.099  0.00  0.00    +0.000 C 
ATOM      9  N   UNL     1       3.476   7.763  17.629  0.00  0.00    +0.000 N 
ATOM     10  C   UNL     1       2.463   8.564  18.066  0.00  0.00    +0.000 A 
ATOM     11  N   UNL     1       2.102   9.715  17.544  0.00  0.00    +0.000 NA
ATOM     12  N   UNL     1       1.084  10.204  18.334  0.00  0.00    +0.000 NA
ATOM     13  C   UNL     1       0.914   9.323  19.299  0.00  0.00    +0.000 A 
ATOM     14  O   UNL     1       1.747   8.246  19.185  0.00  0.00    +0.000 OA
ATOM     15  H   UNL     1       4.006   8.125  16.850  0.00  0.00    +0.000 HD
BRANCH   8  16
ATOM     16  C   UNL     1       4.843   5.784  17.535  0.00  0.00    +0.000 A 
ATOM     17  C   UNL     1       4.848   5.297  16.218  0.00  0.00    +0.000 A 
ATOM     18  C   UNL     1       5.985   4.661  15.716  0.00  0.00    +0.000 A 
ATOM     19  C   UNL     1       7.112   4.508  16.523  0.00  0.00    +0.000 A 
ATOM     20  C   UNL     1       7.100   5.001  17.824  0.00  0.00    +0.000 A 
ATOM     21  F   UNL     1       8.185   4.854  18.594  0.00  0.00    +0.000 F 
ATOM     22  C   UNL     1       5.979   5.642  18.338  0.00  0.00    +0.000 A 
ENDBRANCH   8  16
ENDBRANCH   1  13
BRANCH   5  23
ATOM     23  C   UNL     1      -1.386  11.937  22.780  0.00  0.00    +0.000 A 
ATOM     24  C   UNL     1      -2.673  11.786  23.305  0.00  0.00    +0.000 A 
ATOM     25  C   UNL     1      -3.314  12.844  23.962  0.00  0.00    +0.000 A 
ATOM     26  C   UNL     1      -2.691  14.084  24.099  0.00  0.00    +0.000 A 
ATOM     27  C   UNL     1      -1.440  14.269  23.523  0.00  0.00    +0.000 A 
ATOM     28  C   UNL     1      -0.784  13.198  22.897  0.00  0.00    +0.000 A 
BRANCH  26  29
ATOM     29  O   UNL     1      -3.425  15.029  24.742  0.00  0.00    +0.000 OA
BRANCH  29  30
ATOM     30  C   UNL     1      -4.441  15.730  24.037  0.00  0.00    +0.000 C 
ATOM     31  F   UNL     1      -4.187  15.920  22.726  0.00  0.00    +0.000 F 
ATOM     32  F   UNL     1      -5.606  15.057  24.156  0.00  0.00    +0.000 F 
ATOM     33  F   UNL     1      -4.600  16.947  24.607  0.00  0.00    +0.000 F 
ENDBRANCH  29  30
ENDBRANCH  26  29
ENDBRANCH   5  23
TORSDOF 5
ENDMDL
MODEL 2
REMARK VINA RESULT:      -8.8      0.845      1.357
REMARK  Name = 
REMARK  5 active torsions:
REMARK  status: ('A' for Active; 'I' for Inactive)
REMARK    1  A    between atoms: C_2  and  C_26
REMARK    2  A    between atoms: C_7  and  C_8
REMARK    3  A    between atoms: N_12  and  C_13
REMARK    4  A    between atoms: C_16  and  O_17
REMARK    5  A    between atoms: O_17  and  C_18
REMARK                            x       y       z     vdW  Elec       q    Type
REMARK                         _______ _______ _______ _____ _____    ______ ____
ROOT
ATOM      1  C   UNL     1      -0.019   9.433  20.479  0.00  0.00    +0.000 C 
ATOM      2  C   UNL     1       0.752   9.123  21.752  0.00  0.00    +0.000 C 
ATOM      3  C   UNL     1       0.039   9.930  22.807  0.00  0.00    +0.000 C 
ATOM      4  O   UNL     1       0.191   9.728  24.005  0.00  0.00    +0.000 OA
ATOM      5  N   UNL     1      -0.746  10.897  22.167  0.00  0.00    +0.000 N 
ATOM      6  C   UNL     1      -0.582  10.821  20.731  0.00  0.00    +0.000 C 
ENDROOT
BRANCH   1  13
ATOM      7  O   UNL     1       2.986   5.990  18.935  0.00  0.00    +0.000 OA
ATOM      8  C   UNL     1       3.690   6.604  18.144  0.00  0.00    +0.000 C 
ATOM      9  N   UNL     1       3.461   7.862  17.648  0.00  0.00    +0.000 N 
ATOM     10  C   UNL     1       2.424   8.639  18.069  0.00  0.00    +0.000 A 
ATOM     11  N   UNL     1       2.027   9.768  17.523  0.00  0.00    +0.000 NA
ATOM     12  N   UNL     1       0.994  10.240  18.304  0.00  0.00    +0.000 NA
ATOM     13  C   UNL     1       0.852   9.375  19.287  0.00  0.00    +0.000 A 
ATOM     14  O   UNL     1       1.719   8.323  19.195  0.00  0.00    +0.000 OA
ATOM     15  H   UNL     1       3.979   8.225  16.861  0.00  0.00    +0.000 HD
BRANCH   8  16
ATOM     16  C   UNL     1       4.891   5.926  17.595  0.00  0.00    +0.000 A 
ATOM     17  C   UNL     1       5.873   5.376  18.434  0.00  0.00    +0.000 A 
ATOM     18  C   UNL     1       6.977   4.724  17.880  0.00  0.00    +0.000 A 
ATOM     19  C   UNL     1       7.103   4.623  16.495  0.00  0.00    +0.000 A 
ATOM     20  C   UNL     1       6.121   5.165  15.672  0.00  0.00    +0.000 A 
ATOM     21  F   UNL     1       6.245   5.063  14.343  0.00  0.00    +0.000 F 
ATOM     22  C   UNL     1       5.013   5.811  16.207  0.00  0.00    +0.000 A 
ENDBRANCH   8  16
ENDBRANCH   1  13
BRANCH   5  23
ATOM     23  C   UNL     1      -1.421  11.978  22.794  0.00  0.00    +0.000 A 
ATOM     24  C   UNL     1      -2.710  11.838  23.317  0.00  0.00    +0.000 A 
ATOM     25  C   UNL     1      -3.338  12.896  23.984  0.00  0.00    +0.000 A 
ATOM     26  C   UNL     1      -2.701  14.127  24.135  0.00  0.00    +0.000 A 
ATOM     27  C   UNL     1      -1.447  14.303  23.562  0.00  0.00    +0.000 A 
ATOM     28  C   UNL     1      -0.803  13.230  22.925  0.00  0.00    +0.000 A 
BRANCH  26  29
ATOM     29  O   UNL     1      -3.423  15.074  24.788  0.00  0.00    +0.000 OA
BRANCH  29  30
ATOM     30  C   UNL     1      -4.412  15.812  24.084  0.00  0.00    +0.000 C 
ATOM     31  F   UNL     1      -4.609  17.066  24.541  0.00  0.00    +0.000 F 
ATOM     32  F   UNL     1      -4.068  15.879  22.779  0.00  0.00    +0.000 F 
ATOM     33  F   UNL     1      -5.589  15.151  24.173  0.00  0.00    +0.000 F 
ENDBRANCH  29  30
ENDBRANCH  26  29
ENDBRANCH   5  23
TORSDOF 5
ENDMDL
MODEL 3
REMARK VINA RESULT:      -8.8      2.691     12.009
REMARK  Name = 
REMARK  5 active torsions:
REMARK  status: ('A' for Active; 'I' for Inactive)
REMARK    1  A    between atoms: C_2  and  C_26
REMARK    2  A    between atoms: C_7  and  C_8
REMARK    3  A    between atoms: N_12  and  C_13
REMARK    4  A    between atoms: C_16  and  O_17
REMARK    5  A    between atoms: O_17  and  C_18
REMARK                            x       y       z     vdW  Elec       q    Type
REMARK                         _______ _______ _______ _____ _____    ______ ____
ROOT
ATOM      1  C   UNL     1       2.262   8.583  19.136  0.00  0.00    +0.000 C 
ATOM      2  C   UNL     1       1.955   7.355  19.979  0.00  0.00    +0.000 C 
ATOM      3  C   UNL     1       2.894   6.306  19.438  0.00  0.00    +0.000 C 
ATOM      4  O   UNL     1       3.141   5.270  20.040  0.00  0.00    +0.000 OA
ATOM      5  N   UNL     1       3.358   6.733  18.186  0.00  0.00    +0.000 N 
ATOM      6  C   UNL     1       2.759   8.000  17.824  0.00  0.00    +0.000 C 
ENDROOT
BRANCH   1  13
ATOM      7  O   UNL     1       0.209  11.753  22.136  0.00  0.00    +0.000 OA
ATOM      8  C   UNL     1      -0.905  11.881  21.647  0.00  0.00    +0.000 C 
ATOM      9  N   UNL     1      -1.314  11.442  20.413  0.00  0.00    +0.000 N 
ATOM     10  C   UNL     1      -0.513  10.702  19.595  0.00  0.00    +0.000 A 
ATOM     11  N   UNL     1      -0.754  10.400  18.337  0.00  0.00    +0.000 NA
ATOM     12  N   UNL     1       0.282   9.592  17.922  0.00  0.00    +0.000 NA
ATOM     13  C   UNL     1       1.070   9.439  18.967  0.00  0.00    +0.000 A 
ATOM     14  O   UNL     1       0.633  10.128  20.064  0.00  0.00    +0.000 OA
ATOM     15  H   UNL     1      -2.184  11.748  20.002  0.00  0.00    +0.000 HD
BRANCH   8  16
ATOM     16  C   UNL     1      -1.929  12.638  22.410  0.00  0.00    +0.000 A 
ATOM     17  C   UNL     1      -2.117  14.016  22.219  0.00  0.00    +0.000 A 
ATOM     18  C   UNL     1      -3.107  14.690  22.938  0.00  0.00    +0.000 A 
ATOM     19  C   UNL     1      -3.905  13.993  23.845  0.00  0.00    +0.000 A 
ATOM     20  C   UNL     1      -3.715  12.625  24.022  0.00  0.00    +0.000 A 
ATOM     21  F   UNL     1      -4.486  11.961  24.892  0.00  0.00    +0.000 F 
ATOM     22  C   UNL     1      -2.739  11.939  23.309  0.00  0.00    +0.000 A 
ENDBRANCH   8  16
ENDBRANCH   1  13
BRANCH   5  23
ATOM     23  C   UNL     1       4.104   5.957  17.260  0.00  0.00    +0.000 A 
ATOM     24  C   UNL     1       5.021   6.540  16.382  0.00  0.00    +0.000 A 
ATOM     25  C   UNL     1       5.791   5.755  15.515  0.00  0.00    +0.000 A 
ATOM     26  C   UNL     1       5.655   4.368  15.493  0.00  0.00    +0.000 A 
ATOM     27  C   UNL     1       4.698   3.780  16.312  0.00  0.00    +0.000 A 
ATOM     28  C   UNL     1       3.953   4.564  17.206  0.00  0.00    +0.000 A 
BRANCH  26  29
ATOM     29  O   UNL     1       6.448   3.725  14.598  0.00  0.00    +0.000 OA
BRANCH  29  30
ATOM     30  C   UNL     1       6.076   3.692  13.227  0.00  0.00    +0.000 C 
ATOM     31  F   UNL     1       6.161   2.475  12.650  0.00  0.00    +0.000 F 
ATOM     32  F   UNL     1       4.808   4.139  13.102  0.00  0.00    +0.000 F 
ATOM     33  F   UNL     1       6.885   4.531  12.540  0.00  0.00    +0.000 F 
ENDBRANCH  29  30
ENDBRANCH  26  29
ENDBRANCH   5  23
TORSDOF 5
ENDMDL
MODEL 4
REMARK VINA RESULT:      -8.8      2.794     12.033
REMARK  Name = 
REMARK  5 active torsions:
REMARK  status: ('A' for Active; 'I' for Inactive)
REMARK    1  A    between atoms: C_2  and  C_26
REMARK    2  A    between atoms: C_7  and  C_8
REMARK    3  A    between atoms: N_12  and  C_13
REMARK    4  A    between atoms: C_16  and  O_17
REMARK    5  A    between atoms: O_17  and  C_18
REMARK                            x       y       z     vdW  Elec       q    Type
REMARK                         _______ _______ _______ _____ _____    ______ ____
ROOT
ATOM      1  C   UNL     1       2.460   8.424  19.008  0.00  0.00    +0.000 C 
ATOM      2  C   UNL     1       2.156   7.182  19.830  0.00  0.00    +0.000 C 
ATOM      3  C   UNL     1       3.089   6.141  19.265  0.00  0.00    +0.000 C 
ATOM      4  O   UNL     1       3.338   5.094  19.846  0.00  0.00    +0.000 OA
ATOM      5  N   UNL     1       3.546   6.590  18.018  0.00  0.00    +0.000 N 
ATOM      6  C   UNL     1       2.948   7.864  17.682  0.00  0.00    +0.000 C 
ENDROOT
BRANCH   1  13
ATOM      7  O   UNL     1       0.538  11.678  22.005  0.00  0.00    +0.000 OA
ATOM      8  C   UNL     1      -0.592  11.804  21.553  0.00  0.00    +0.000 C 
ATOM      9  N   UNL     1      -1.048  11.340  20.344  0.00  0.00    +0.000 N 
ATOM     10  C   UNL     1      -0.282  10.575  19.516  0.00  0.00    +0.000 A 
ATOM     11  N   UNL     1      -0.569  10.247  18.275  0.00  0.00    +0.000 NA
ATOM     12  N   UNL     1       0.445   9.421  17.842  0.00  0.00    +0.000 NA
ATOM     13  C   UNL     1       1.269   9.286  18.862  0.00  0.00    +0.000 A 
ATOM     14  O   UNL     1       0.877  10.003  19.957  0.00  0.00    +0.000 OA
ATOM     15  H   UNL     1      -1.930  11.643  19.958  0.00  0.00    +0.000 HD
BRANCH   8  16
ATOM     16  C   UNL     1      -1.583  12.586  22.334  0.00  0.00    +0.000 A 
ATOM     17  C   UNL     1      -1.643  13.986  22.252  0.00  0.00    +0.000 A 
ATOM     18  C   UNL     1      -2.605  14.686  22.983  0.00  0.00    +0.000 A 
ATOM     19  C   UNL     1      -3.501  13.993  23.796  0.00  0.00    +0.000 A 
ATOM     20  C   UNL     1      -3.438  12.605  23.865  0.00  0.00    +0.000 A 
ATOM     21  F   UNL     1      -4.303  11.944  24.645  0.00  0.00    +0.000 F 
ATOM     22  C   UNL     1      -2.492  11.893  23.138  0.00  0.00    +0.000 A 
ENDBRANCH   8  16
ENDBRANCH   1  13
BRANCH   5  23
ATOM     23  C   UNL     1       4.285   5.829  17.074  0.00  0.00    +0.000 A 
ATOM     24  C   UNL     1       4.226   4.432  17.047  0.00  0.00    +0.000 A 
ATOM     25  C   UNL     1       4.914   3.699  16.073  0.00  0.00    +0.000 A 
ATOM     26  C   UNL     1       5.689   4.340  15.108  0.00  0.00    +0.000 A 
ATOM     27  C   UNL     1       5.812   5.724  15.163  0.00  0.00    +0.000 A 
ATOM     28  C   UNL     1       5.093   6.460  16.118  0.00  0.00    +0.000 A 
BRANCH  26  29
ATOM     29  O   UNL     1       6.317   3.515  14.230  0.00  0.00    +0.000 OA
BRANCH  29  30
ATOM     30  C   UNL     1       5.984   3.572  12.850  0.00  0.00    +0.000 C 
ATOM     31  F   UNL     1       6.718   4.446  12.130  0.00  0.00    +0.000 F 
ATOM     32  F   UNL     1       6.128   2.343  12.310  0.00  0.00    +0.000 F 
ATOM     33  F   UNL     1       4.685   3.932  12.734  0.00  0.00    +0.000 F 
ENDBRANCH  29  30
ENDBRANCH  26  29
ENDBRANCH   5  23
TORSDOF 5
ENDMDL
MODEL 5
REMARK VINA RESULT:      -8.7      2.425     11.868
REMARK  Name = 
REMARK  5 active torsions:
REMARK  status: ('A' for Active; 'I' for Inactive)
REMARK    1  A    between atoms: C_2  and  C_26
REMARK    2  A    between atoms: C_7  and  C_8
REMARK    3  A    between atoms: N_12  and  C_13
REMARK    4  A    between atoms: C_16  and  O_17
REMARK    5  A    between atoms: O_17  and  C_18
REMARK                            x       y       z     vdW  Elec       q    Type
REMARK                         _______ _______ _______ _____ _____    ______ ____
ROOT
ATOM      1  C   UNL     1       1.791   8.414  20.094  0.00  0.00    +0.000 C 
ATOM      2  C   UNL     1       1.177   7.158  20.693  0.00  0.00    +0.000 C 
ATOM      3  C   UNL     1       2.077   6.052  20.202  0.00  0.00    +0.000 C 
ATOM      4  O   UNL     1       2.072   4.932  20.696  0.00  0.00    +0.000 OA
ATOM      5  N   UNL     1       2.831   6.541  19.128  0.00  0.00    +0.000 N 
ATOM      6  C   UNL     1       2.472   7.911  18.832  0.00  0.00    +0.000 C 
ENDROOT
BRANCH   1  13
ATOM      7  O   UNL     1      -0.359  11.576  23.034  0.00  0.00    +0.000 OA
ATOM      8  C   UNL     1      -1.340  11.904  22.380  0.00  0.00    +0.000 C 
ATOM      9  N   UNL     1      -1.569  11.636  21.054  0.00  0.00    +0.000 N 
ATOM     10  C   UNL     1      -0.732  10.862  20.307  0.00  0.00    +0.000 A 
ATOM     11  N   UNL     1      -0.775  10.707  19.002  0.00  0.00    +0.000 NA
ATOM     12  N   UNL     1       0.210   9.797  18.682  0.00  0.00    +0.000 NA
ATOM     13  C   UNL     1       0.768   9.444  19.821  0.00  0.00    +0.000 A 
ATOM     14  O   UNL     1       0.229  10.091  20.898  0.00  0.00    +0.000 OA
ATOM     15  H   UNL     1      -2.303  12.098  20.538  0.00  0.00    +0.000 HD
BRANCH   8  16
ATOM     16  C   UNL     1      -2.383  12.732  23.037  0.00  0.00    +0.000 A 
ATOM     17  C   UNL     1      -2.390  14.131  22.923  0.00  0.00    +0.000 A 
ATOM     18  C   UNL     1      -3.401  14.874  23.536  0.00  0.00    +0.000 A 
ATOM     19  C   UNL     1      -4.400  14.226  24.262  0.00  0.00    +0.000 A 
ATOM     20  C   UNL     1      -4.388  12.838  24.363  0.00  0.00    +0.000 A 
ATOM     21  F   UNL     1      -5.350  12.220  25.058  0.00  0.00    +0.000 F 
ATOM     22  C   UNL     1      -3.393  12.083  23.754  0.00  0.00    +0.000 A 
ENDBRANCH   8  16
ENDBRANCH   1  13
BRANCH   5  23
ATOM     23  C   UNL     1       3.653   5.771  18.262  0.00  0.00    +0.000 A 
ATOM     24  C   UNL     1       3.188   4.601  17.655  0.00  0.00    +0.000 A 
ATOM     25  C   UNL     1       3.990   3.884  16.759  0.00  0.00    +0.000 A 
ATOM     26  C   UNL     1       5.282   4.311  16.455  0.00  0.00    +0.000 A 
ATOM     27  C   UNL     1       5.782   5.434  17.103  0.00  0.00    +0.000 A 
ATOM     28  C   UNL     1       4.965   6.171  17.973  0.00  0.00    +0.000 A 
BRANCH  26  29
ATOM     29  O   UNL     1       5.960   3.520  15.584  0.00  0.00    +0.000 OA
BRANCH  29  30
ATOM     30  C   UNL     1       6.166   3.960  14.249  0.00  0.00    +0.000 C 
ATOM     31  F   UNL     1       6.327   2.969  13.348  0.00  0.00    +0.000 F 
ATOM     32  F   UNL     1       5.117   4.721  13.868  0.00  0.00    +0.000 F 
ATOM     33  F   UNL     1       7.277   4.732  14.215  0.00  0.00    +0.000 F 
ENDBRANCH  29  30
ENDBRANCH  26  29
ENDBRANCH   5  23
TORSDOF 5
ENDMDL
MODEL 6
REMARK VINA RESULT:      -8.6      1.290      1.646
REMARK  Name = 
REMARK  5 active torsions:
REMARK  status: ('A' for Active; 'I' for Inactive)
REMARK    1  A    between atoms: C_2  and  C_26
REMARK    2  A    between atoms: C_7  and  C_8
REMARK    3  A    between atoms: N_12  and  C_13
REMARK    4  A    between atoms: C_16  and  O_17
REMARK    5  A    between atoms: O_17  and  C_18
REMARK                            x       y       z     vdW  Elec       q    Type
REMARK                         _______ _______ _______ _____ _____    ______ ____
ROOT
ATOM      1  C   UNL     1       0.161   9.248  20.357  0.00  0.00    +0.000 C 
ATOM      2  C   UNL     1       0.940   9.022  21.643  0.00  0.00    +0.000 C 
ATOM      3  C   UNL     1       0.238   9.903  22.645  0.00  0.00    +0.000 C 
ATOM      4  O   UNL     1       0.397   9.783  23.853  0.00  0.00    +0.000 OA
ATOM      5  N   UNL     1      -0.547  10.828  21.945  0.00  0.00    +0.000 N 
ATOM      6  C   UNL     1      -0.392  10.654  20.517  0.00  0.00    +0.000 C 
ENDROOT
BRANCH   1  13
ATOM      7  O   UNL     1       3.281   5.781  19.126  0.00  0.00    +0.000 OA
ATOM      8  C   UNL     1       3.955   6.338  18.269  0.00  0.00    +0.000 C 
ATOM      9  N   UNL     1       3.674   7.532  17.653  0.00  0.00    +0.000 N 
ATOM     10  C   UNL     1       2.612   8.309  18.008  0.00  0.00    +0.000 A 
ATOM     11  N   UNL     1       2.168   9.362  17.357  0.00  0.00    +0.000 NA
ATOM     12  N   UNL     1       1.125   9.871  18.100  0.00  0.00    +0.000 NA
ATOM     13  C   UNL     1       1.023   9.104  19.166  0.00  0.00    +0.000 A 
ATOM     14  O   UNL     1       1.929   8.080  19.168  0.00  0.00    +0.000 OA
ATOM     15  H   UNL     1       4.172   7.833  16.829  0.00  0.00    +0.000 HD
BRANCH   8  16
ATOM     16  C   UNL     1       5.176   5.653  17.775  0.00  0.00    +0.000 A 
ATOM     17  C   UNL     1       6.396   5.740  18.464  0.00  0.00    +0.000 A 
ATOM     18  C   UNL     1       7.517   5.061  17.980  0.00  0.00    +0.000 A 
ATOM     19  C   UNL     1       7.423   4.302  16.815  0.00  0.00    +0.000 A 
ATOM     20  C   UNL     1       6.207   4.217  16.143  0.00  0.00    +0.000 A 
ATOM     21  F   UNL     1       6.122   3.485  15.026  0.00  0.00    +0.000 F 
ATOM     22  C   UNL     1       5.080   4.881  16.614  0.00  0.00    +0.000 A 
ENDBRANCH   8  16
ENDBRANCH   1  13
BRANCH   5  23
ATOM     23  C   UNL     1      -1.211  11.954  22.501  0.00  0.00    +0.000 A 
ATOM     24  C   UNL     1      -2.424  11.828  23.184  0.00  0.00    +0.000 A 
ATOM     25  C   UNL     1      -3.038  12.939  23.777  0.00  0.00    +0.000 A 
ATOM     26  C   UNL     1      -2.462  14.205  23.692  0.00  0.00    +0.000 A 
ATOM     27  C   UNL     1      -1.291  14.357  22.958  0.00  0.00    +0.000 A 
ATOM     28  C   UNL     1      -0.659  13.238  22.396  0.00  0.00    +0.000 A 
BRANCH  26  29
ATOM     29  O   UNL     1      -3.163  15.199  24.296  0.00  0.00    +0.000 OA
BRANCH  29  30
ATOM     30  C   UNL     1      -2.550  15.970  25.321  0.00  0.00    +0.000 C 
ATOM     31  F   UNL     1      -1.476  16.683  24.922  0.00  0.00    +0.000 F 
ATOM     32  F   UNL     1      -3.463  16.821  25.839  0.00  0.00    +0.000 F 
ATOM     33  F   UNL     1      -2.148  15.136  26.307  0.00  0.00    +0.000 F 
ENDBRANCH  29  30
ENDBRANCH  26  29
ENDBRANCH   5  23
TORSDOF 5
ENDMDL
MODEL 7
REMARK VINA RESULT:      -8.6      2.695     12.036
REMARK  Name = 
REMARK  5 active torsions:
REMARK  status: ('A' for Active; 'I' for Inactive)
REMARK    1  A    between atoms: C_2  and  C_26
REMARK    2  A    between atoms: C_7  and  C_8
REMARK    3  A    between atoms: N_12  and  C_13
REMARK    4  A    between atoms: C_16  and  O_17
REMARK    5  A    between atoms: O_17  and  C_18
REMARK                            x       y       z     vdW  Elec       q    Type
REMARK                         _______ _______ _______ _____ _____    ______ ____
ROOT
ATOM      1  C   UNL     1       2.360   8.482  19.074  0.00  0.00    +0.000 C 
ATOM      2  C   UNL     1       2.050   7.248  19.908  0.00  0.00    +0.000 C 
ATOM      3  C   UNL     1       2.995   6.205  19.367  0.00  0.00    +0.000 C 
ATOM      4  O   UNL     1       3.240   5.165  19.965  0.00  0.00    +0.000 OA
ATOM      5  N   UNL     1       3.465   6.640  18.121  0.00  0.00    +0.000 N 
ATOM      6  C   UNL     1       2.867   7.907  17.762  0.00  0.00    +0.000 C 
ENDROOT
BRANCH   1  13
ATOM      7  O   UNL     1       0.291  11.642  22.074  0.00  0.00    +0.000 OA
ATOM      8  C   UNL     1      -0.822  11.769  21.581  0.00  0.00    +0.000 C 
ATOM      9  N   UNL     1      -1.225  11.333  20.344  0.00  0.00    +0.000 N 
ATOM     10  C   UNL     1      -0.420  10.596  19.528  0.00  0.00    +0.000 A 
ATOM     11  N   UNL     1      -0.655  10.297  18.269  0.00  0.00    +0.000 NA
ATOM     12  N   UNL     1       0.384   9.491  17.856  0.00  0.00    +0.000 NA
ATOM     13  C   UNL     1       1.167   9.337  18.903  0.00  0.00    +0.000 A 
ATOM     14  O   UNL     1       0.726  10.023  20.000  0.00  0.00    +0.000 OA
ATOM     15  H   UNL     1      -2.094  11.639  19.931  0.00  0.00    +0.000 HD
BRANCH   8  16
ATOM     16  C   UNL     1      -1.850  12.523  22.342  0.00  0.00    +0.000 A 
ATOM     17  C   UNL     1      -2.677  11.891  23.284  0.00  0.00    +0.000 A 
ATOM     18  C   UNL     1      -3.616  12.638  23.998  0.00  0.00    +0.000 A 
ATOM     19  C   UNL     1      -3.732  14.009  23.772  0.00  0.00    +0.000 A 
ATOM     20  C   UNL     1      -2.903  14.627  22.841  0.00  0.00    +0.000 A 
ATOM     21  F   UNL     1      -3.018  15.944  22.630  0.00  0.00    +0.000 F 
ATOM     22  C   UNL     1      -1.959  13.900  22.127  0.00  0.00    +0.000 A 
ENDBRANCH   8  16
ENDBRANCH   1  13
BRANCH   5  23
ATOM     23  C   UNL     1       4.218   5.870  17.195  0.00  0.00    +0.000 A 
ATOM     24  C   UNL     1       4.102   4.479  17.129  0.00  0.00    +0.000 A 
ATOM     25  C   UNL     1       4.807   3.739  16.171  0.00  0.00    +0.000 A 
ATOM     26  C   UNL     1       5.658   4.370  15.264  0.00  0.00    +0.000 A 
ATOM     27  C   UNL     1       5.836   5.745  15.363  0.00  0.00    +0.000 A 
ATOM     28  C   UNL     1       5.101   6.488  16.299  0.00  0.00    +0.000 A 
BRANCH  26  29
ATOM     29  O   UNL     1       6.294   3.539  14.398  0.00  0.00    +0.000 OA
BRANCH  29  30
ATOM     30  C   UNL     1       5.979   3.592  13.013  0.00  0.00    +0.000 C 
ATOM     31  F   UNL     1       6.030   2.403  12.379  0.00  0.00    +0.000 F 
ATOM     32  F   UNL     1       4.739   4.107  12.862  0.00  0.00    +0.000 F 
ATOM     33  F   UNL     1       6.854   4.423  12.403  0.00  0.00    +0.000 F 
ENDBRANCH  29  30
ENDBRANCH  26  29
ENDBRANCH   5  23
TORSDOF 5
ENDMDL
MODEL 8
REMARK VINA RESULT:      -8.5      2.561     12.027
REMARK  Name = 
REMARK  5 active torsions:
REMARK  status: ('A' for Active; 'I' for Inactive)
REMARK    1  A    between atoms: C_2  and  C_26
REMARK    2  A    between atoms: C_7  and  C_8
REMARK    3  A    between atoms: N_12  and  C_13
REMARK    4  A    between atoms: C_16  and  O_17
REMARK    5  A    between atoms: O_17  and  C_18
REMARK                            x       y       z     vdW  Elec       q    Type
REMARK                         _______ _______ _______ _____ _____    ______ ____
ROOT
ATOM      1  C   UNL     1       2.074   8.667  19.293  0.00  0.00    +0.000 C 
ATOM      2  C   UNL     1       1.698   7.448  20.121  0.00  0.00    +0.000 C 
ATOM      3  C   UNL     1       2.629   6.374  19.618  0.00  0.00    +0.000 C 
ATOM      4  O   UNL     1       2.822   5.331  20.229  0.00  0.00    +0.000 OA
ATOM      5  N   UNL     1       3.156   6.788  18.388  0.00  0.00    +0.000 N 
ATOM      6  C   UNL     1       2.609   8.070  18.002  0.00  0.00    +0.000 C 
ENDROOT
BRANCH   1  13
ATOM      7  O   UNL     1      -0.182  11.694  22.295  0.00  0.00    +0.000 OA
ATOM      8  C   UNL     1      -1.247  11.874  21.721  0.00  0.00    +0.000 C 
ATOM      9  N   UNL     1      -1.555  11.519  20.432  0.00  0.00    +0.000 N 
ATOM     10  C   UNL     1      -0.697  10.812  19.642  0.00  0.00    +0.000 A 
ATOM     11  N   UNL     1      -0.833  10.591  18.352  0.00  0.00    +0.000 NA
ATOM     12  N   UNL     1       0.223   9.788  17.979  0.00  0.00    +0.000 NA
ATOM     13  C   UNL     1       0.914   9.556  19.076  0.00  0.00    +0.000 A 
ATOM     14  O   UNL     1       0.395  10.188  20.171  0.00  0.00    +0.000 OA
ATOM     15  H   UNL     1      -2.381  11.866  19.968  0.00  0.00    +0.000 HD
BRANCH   8  16
ATOM     16  C   UNL     1      -2.322  12.605  22.439  0.00  0.00    +0.000 A 
ATOM     17  C   UNL     1      -2.924  12.079  23.593  0.00  0.00    +0.000 A 
ATOM     18  C   UNL     1      -3.915  12.808  24.254  0.00  0.00    +0.000 A 
ATOM     19  C   UNL     1      -4.306  14.054  23.767  0.00  0.00    +0.000 A 
ATOM     20  C   UNL     1      -3.697  14.570  22.626  0.00  0.00    +0.000 A 
ATOM     21  F   UNL     1      -4.074  15.768  22.164  0.00  0.00    +0.000 F 
ATOM     22  C   UNL     1      -2.705  13.861  21.960  0.00  0.00    +0.000 A 
ENDBRANCH   8  16
ENDBRANCH   1  13
BRANCH   5  23
ATOM     23  C   UNL     1       3.918   5.991  17.492  0.00  0.00    +0.000 A 
ATOM     24  C   UNL     1       4.943   6.535  16.713  0.00  0.00    +0.000 A 
ATOM     25  C   UNL     1       5.723   5.725  15.878  0.00  0.00    +0.000 A 
ATOM     26  C   UNL     1       5.491   4.353  15.791  0.00  0.00    +0.000 A 
ATOM     27  C   UNL     1       4.432   3.809  16.507  0.00  0.00    +0.000 A 
ATOM     28  C   UNL     1       3.674   4.615  17.371  0.00  0.00    +0.000 A 
BRANCH  26  29
ATOM     29  O   UNL     1       6.307   3.684  14.935  0.00  0.00    +0.000 OA
BRANCH  29  30
ATOM     30  C   UNL     1       6.134   3.840  13.533  0.00  0.00    +0.000 C 
ATOM     31  F   UNL     1       4.868   4.102  13.148  0.00  0.00    +0.000 F 
ATOM     32  F   UNL     1       6.931   4.840  13.098  0.00  0.00    +0.000 F 
ATOM     33  F   UNL     1       6.523   2.698  12.921  0.00  0.00    +0.000 F 
ENDBRANCH  29  30
ENDBRANCH  26  29
ENDBRANCH   5  23
TORSDOF 5
ENDMDL
MODEL 9
REMARK VINA RESULT:      -8.5      0.937      1.369
REMARK  Name = 
REMARK  5 active torsions:
REMARK  status: ('A' for Active; 'I' for Inactive)
REMARK    1  A    between atoms: C_2  and  C_26
REMARK    2  A    between atoms: C_7  and  C_8
REMARK    3  A    between atoms: N_12  and  C_13
REMARK    4  A    between atoms: C_16  and  O_17
REMARK    5  A    between atoms: O_17  and  C_18
REMARK                            x       y       z     vdW  Elec       q    Type
REMARK                         _______ _______ _______ _____ _____    ______ ____
ROOT
ATOM      1  C   UNL     1       0.001   9.426  20.316  0.00  0.00    +0.000 C 
ATOM      2  C   UNL     1       0.752   9.182  21.616  0.00  0.00    +0.000 C 
ATOM      3  C   UNL     1       0.048  10.073  22.608  0.00  0.00    +0.000 C 
ATOM      4  O   UNL     1       0.183   9.947  23.818  0.00  0.00    +0.000 OA
ATOM      5  N   UNL     1      -0.708  11.014  21.897  0.00  0.00    +0.000 N 
ATOM      6  C   UNL     1      -0.531  10.841  20.471  0.00  0.00    +0.000 C 
ENDROOT
BRANCH   1  13
ATOM      7  O   UNL     1       2.988   5.850  19.069  0.00  0.00    +0.000 OA
ATOM      8  C   UNL     1       3.706   6.396  18.241  0.00  0.00    +0.000 C 
ATOM      9  N   UNL     1       3.493   7.614  17.647  0.00  0.00    +0.000 N 
ATOM     10  C   UNL     1       2.459   8.430  17.998  0.00  0.00    +0.000 A 
ATOM     11  N   UNL     1       2.077   9.517  17.364  0.00  0.00    +0.000 NA
ATOM     12  N   UNL     1       1.042  10.057  18.096  0.00  0.00    +0.000 NA
ATOM     13  C   UNL     1       0.882   9.270  19.140  0.00  0.00    +0.000 A 
ATOM     14  O   UNL     1       1.741   8.206  19.138  0.00  0.00    +0.000 OA
ATOM     15  H   UNL     1       4.021   7.911  16.841  0.00  0.00    +0.000 HD
BRANCH   8  16
ATOM     16  C   UNL     1       4.905   5.667  17.756  0.00  0.00    +0.000 A 
ATOM     17  C   UNL     1       4.900   4.975  16.534  0.00  0.00    +0.000 A 
ATOM     18  C   UNL     1       6.056   4.322  16.100  0.00  0.00    +0.000 A 
ATOM     19  C   UNL     1       7.210   4.357  16.881  0.00  0.00    +0.000 A 
ATOM     20  C   UNL     1       7.207   5.052  18.087  0.00  0.00    +0.000 A 
ATOM     21  F   UNL     1       8.319   5.084  18.831  0.00  0.00    +0.000 F 
ATOM     22  C   UNL     1       6.068   5.712  18.530  0.00  0.00    +0.000 A 
ENDBRANCH   8  16
ENDBRANCH   1  13
BRANCH   5  23
ATOM     23  C   UNL     1      -1.362  12.149  22.444  0.00  0.00    +0.000 A 
ATOM     24  C   UNL     1      -0.706  13.374  22.597  0.00  0.00    +0.000 A 
ATOM     25  C   UNL     1      -1.382  14.500  23.084  0.00  0.00    +0.000 A 
ATOM     26  C   UNL     1      -2.727  14.427  23.445  0.00  0.00    +0.000 A 
ATOM     27  C   UNL     1      -3.373  13.199  23.364  0.00  0.00    +0.000 A 
ATOM     28  C   UNL     1      -2.705  12.081  22.841  0.00  0.00    +0.000 A 
BRANCH  26  29
ATOM     29  O   UNL     1      -3.260  15.584  23.917  0.00  0.00    +0.000 OA
BRANCH  29  30
ATOM     30  C   UNL     1      -3.039  15.959  25.270  0.00  0.00    +0.000 C 
ATOM     31  F   UNL     1      -4.022  16.705  25.815  0.00  0.00    +0.000 F 
ATOM     32  F   UNL     1      -2.880  14.845  26.017  0.00  0.00    +0.000 F 
ATOM     33  F   UNL     1      -1.893  16.675  25.337  0.00  0.00    +0.000 F 
ENDBRANCH  29  30
ENDBRANCH  26  29
ENDBRANCH   5  23
TORSDOF 5
ENDMDL
