MODEL 1
REMARK VINA RESULT:      -8.9      0.000      0.000
REMARK  Name = 
REMARK  4 active torsions:
REMARK  status: ('A' for Active; 'I' for Inactive)
REMARK    1  A    between atoms: C_2  and  C_3
REMARK    2  A    between atoms: C_6  and  C_7
REMARK    3  A    between atoms: C_14  and  C_15
REMARK    4  A    between atoms: C_18  and  N_19
REMARK                            x       y       z     vdW  Elec       q    Type
REMARK                         _______ _______ _______ _____ _____    ______ ____
ROOT
ATOM      1  C   UNL     1       2.560   5.450  19.072  0.00  0.00    +0.000 C 
ATOM      2  C   UNL     1       1.431   4.506  18.559  0.00  0.00    +0.000 C 
ATOM      3  C   UNL     1       1.977   3.132  18.152  0.00  0.00    +0.000 C 
ATOM      4  C   UNL     1       2.642   2.480  19.367  0.00  0.00    +0.000 C 
ATOM      5  C   UNL     1       3.788   3.364  19.862  0.00  0.00    +0.000 C 
ATOM      6  C   UNL     1       3.250   4.743  20.272  0.00  0.00    +0.000 C 
ATOM      7  C   UNL     1       4.813   3.539  18.732  0.00  0.00    +0.000 C 
ATOM      8  C   UNL     1       4.179   4.213  17.478  0.00  0.00    +0.000 C 
ATOM      9  C   UNL     1       3.001   3.311  17.020  0.00  0.00    +0.000 C 
ATOM     10  C   UNL     1       3.604   5.592  17.928  0.00  0.00    +0.000 C 
ENDROOT
BRANCH   1  14
ATOM     11  C   UNL     1       1.022   9.357  20.304  0.00  0.00    +0.000 A 
ATOM     12  C   UNL     1       1.536   9.183  19.021  0.00  0.00    +0.000 A 
ATOM     13  C   UNL     1       2.038   7.939  18.626  0.00  0.00    +0.000 A 
ATOM     14  C   UNL     1       2.040   6.835  19.498  0.00  0.00    +0.000 A 
ATOM     15  C   UNL     1       1.532   7.040  20.795  0.00  0.00    +0.000 A 
ATOM     16  C   UNL     1       1.027   8.283  21.194  0.00  0.00    +0.000 A 
BRANCH  11  18
ATOM     17  N   UNL     1       0.046  11.651  21.017  0.00  0.00    +0.000 NA
ATOM     18  C   UNL     1       0.487  10.626  20.700  0.00  0.00    +0.000 C 
ENDBRANCH  11  18
ENDBRANCH   1  14
BRANCH   8  19
ATOM     19  C   UNL     1       5.180   4.426  16.326  0.00  0.00    +0.000 A 
ATOM     20  C   UNL     1       6.451   4.990  16.527  0.00  0.00    +0.000 A 
ATOM     21  C   UNL     1       7.326   5.221  15.458  0.00  0.00    +0.000 A 
ATOM     22  C   UNL     1       6.937   4.880  14.161  0.00  0.00    +0.000 A 
ATOM     23  C   UNL     1       5.685   4.306  13.929  0.00  0.00    +0.000 A 
ATOM     24  C   UNL     1       4.821   4.080  15.006  0.00  0.00    +0.000 A 
BRANCH  22  25
ATOM     25  N   UNL     1       7.847   5.129  13.038  0.00  0.00    +0.000 N 
ATOM     26  O   UNL     1       8.816   5.876  13.235  0.00  0.00    +0.000 OA
ATOM     27  O   UNL     1       7.594   4.578  11.957  0.00  0.00    +0.000 OA
ENDBRANCH  22  25
ENDBRANCH   8  19
TORSDOF 4
ENDMDL
MODEL 2
REMARK VINA RESULT:      -8.9      0.080      1.104
REMARK  Name = 
REMARK  4 active torsions:
REMARK  status: ('A' for Active; 'I' for Inactive)
REMARK    1  A    between atoms: C_2  and  C_3
REMARK    2  A    between atoms: C_6  and  C_7
REMARK    3  A    between atoms: C_14  and  C_15
REMARK    4  A    between atoms: C_18  and  N_19
REMARK                            x       y       z     vdW  Elec       q    Type
REMARK                         _______ _______ _______ _____ _____    ______ ____
ROOT
ATOM      1  C   UNL     1       2.544   5.374  19.073  0.00  0.00    +0.000 C 
ATOM      2  C   UNL     1       1.426   4.419  18.556  0.00  0.00    +0.000 C 
ATOM      3  C   UNL     1       1.988   3.052  18.147  0.00  0.00    +0.000 C 
ATOM      4  C   UNL     1       2.658   2.404  19.362  0.00  0.00    +0.000 C 
ATOM      5  C   UNL     1       3.793   3.300  19.861  0.00  0.00    +0.000 C 
ATOM      6  C   UNL     1       3.239   4.672  20.273  0.00  0.00    +0.000 C 
ATOM      7  C   UNL     1       4.818   3.489  18.734  0.00  0.00    +0.000 C 
ATOM      8  C   UNL     1       4.179   4.158  17.479  0.00  0.00    +0.000 C 
ATOM      9  C   UNL     1       3.012   3.245  17.017  0.00  0.00    +0.000 C 
ATOM     10  C   UNL     1       3.589   5.530  17.931  0.00  0.00    +0.000 C 
ENDROOT
BRANCH   1  14
ATOM     11  C   UNL     1       1.083   9.322  20.267  0.00  0.00    +0.000 A 
ATOM     12  C   UNL     1       1.032   8.259  21.167  0.00  0.00    +0.000 A 
ATOM     13  C   UNL     1       1.489   6.992  20.786  0.00  0.00    +0.000 A 
ATOM     14  C   UNL     1       2.008   6.753  19.501  0.00  0.00    +0.000 A 
ATOM     15  C   UNL     1       2.033   7.838  18.604  0.00  0.00    +0.000 A 
ATOM     16  C   UNL     1       1.579   9.108  18.982  0.00  0.00    +0.000 A 
BRANCH  11  18
ATOM     17  N   UNL     1       0.270  11.679  20.982  0.00  0.00    +0.000 NA
ATOM     18  C   UNL     1       0.636  10.624  20.666  0.00  0.00    +0.000 C 
ENDBRANCH  11  18
ENDBRANCH   1  14
BRANCH   8  19
ATOM     19  C   UNL     1       5.180   4.385  16.330  0.00  0.00    +0.000 A 
ATOM     20  C   UNL     1       6.459   4.930  16.540  0.00  0.00    +0.000 A 
ATOM     21  C   UNL     1       7.334   5.174  15.475  0.00  0.00    +0.000 A 
ATOM     22  C   UNL     1       6.938   4.866  14.171  0.00  0.00    +0.000 A 
ATOM     23  C   UNL     1       5.679   4.311  13.930  0.00  0.00    +0.000 A 
ATOM     24  C   UNL     1       4.815   4.072  15.004  0.00  0.00    +0.000 A 
BRANCH  22  25
ATOM     25  N   UNL     1       7.848   5.128  13.052  0.00  0.00    +0.000 N 
ATOM     26  O   UNL     1       7.608   4.573  11.969  0.00  0.00    +0.000 OA
ATOM     27  O   UNL     1       8.805   5.890  13.252  0.00  0.00    +0.000 OA
ENDBRANCH  22  25
ENDBRANCH   8  19
TORSDOF 4
ENDMDL
MODEL 3
REMARK VINA RESULT:      -8.1      0.560      1.542
REMARK  Name = 
REMARK  4 active torsions:
REMARK  status: ('A' for Active; 'I' for Inactive)
REMARK    1  A    between atoms: C_2  and  C_3
REMARK    2  A    between atoms: C_6  and  C_7
REMARK    3  A    between atoms: C_14  and  C_15
REMARK    4  A    between atoms: C_18  and  N_19
REMARK                            x       y       z     vdW  Elec       q    Type
REMARK                         _______ _______ _______ _____ _____    ______ ____
ROOT
ATOM      1  C   UNL     1       2.673   5.873  18.860  0.00  0.00    +0.000 C 
ATOM      2  C   UNL     1       1.584   4.805  18.539  0.00  0.00    +0.000 C 
ATOM      3  C   UNL     1       2.200   3.429  18.257  0.00  0.00    +0.000 C 
ATOM      4  C   UNL     1       2.982   2.970  19.491  0.00  0.00    +0.000 C 
ATOM      5  C   UNL     1       4.091   3.978  19.799  0.00  0.00    +0.000 C 
ATOM      6  C   UNL     1       3.483   5.360  20.084  0.00  0.00    +0.000 C 
ATOM      7  C   UNL     1       5.030   4.080  18.589  0.00  0.00    +0.000 C 
ATOM      8  C   UNL     1       4.275   4.557  17.312  0.00  0.00    +0.000 C 
ATOM      9  C   UNL     1       3.137   3.535  17.043  0.00  0.00    +0.000 C 
ATOM     10  C   UNL     1       3.633   5.942  17.638  0.00  0.00    +0.000 C 
ENDROOT
BRANCH   1  14
ATOM     11  C   UNL     1       1.057   9.857  19.678  0.00  0.00    +0.000 A 
ATOM     12  C   UNL     1       1.099   8.900  20.691  0.00  0.00    +0.000 A 
ATOM     13  C   UNL     1       1.605   7.621  20.431  0.00  0.00    +0.000 A 
ATOM     14  C   UNL     1       2.084   7.264  19.158  0.00  0.00    +0.000 A 
ATOM     15  C   UNL     1       2.015   8.242  18.147  0.00  0.00    +0.000 A 
ATOM     16  C   UNL     1       1.511   9.523  18.403  0.00  0.00    +0.000 A 
BRANCH  11  18
ATOM     17  N   UNL     1       0.152  12.234  20.180  0.00  0.00    +0.000 NA
ATOM     18  C   UNL     1       0.559  11.173  19.952  0.00  0.00    +0.000 C 
ENDBRANCH  11  18
ENDBRANCH   1  14
BRANCH   8  19
ATOM     19  C   UNL     1       5.186   4.694  16.077  0.00  0.00    +0.000 A 
ATOM     20  C   UNL     1       4.743   4.399  14.776  0.00  0.00    +0.000 A 
ATOM     21  C   UNL     1       5.603   4.482  13.674  0.00  0.00    +0.000 A 
ATOM     22  C   UNL     1       6.931   4.871  13.863  0.00  0.00    +0.000 A 
ATOM     23  C   UNL     1       7.400   5.182  15.141  0.00  0.00    +0.000 A 
ATOM     24  C   UNL     1       6.529   5.096  16.233  0.00  0.00    +0.000 A 
BRANCH  22  25
ATOM     25  N   UNL     1       7.837   4.950  12.712  0.00  0.00    +0.000 N 
ATOM     26  O   UNL     1       7.678   4.131  11.794  0.00  0.00    +0.000 OA
ATOM     27  O   UNL     1       8.711   5.829  12.723  0.00  0.00    +0.000 OA
ENDBRANCH  22  25
ENDBRANCH   8  19
TORSDOF 4
ENDMDL
MODEL 4
REMARK VINA RESULT:      -8.0      3.568      7.692
REMARK  Name = 
REMARK  4 active torsions:
REMARK  status: ('A' for Active; 'I' for Inactive)
REMARK    1  A    between atoms: C_2  and  C_3
REMARK    2  A    between atoms: C_6  and  C_7
REMARK    3  A    between atoms: C_14  and  C_15
REMARK    4  A    between atoms: C_18  and  N_19
REMARK                            x       y       z     vdW  Elec       q    Type
REMARK                         _______ _______ _______ _____ _____    ______ ____
ROOT
ATOM      1  C   UNL     1       4.033   4.310  17.730  0.00  0.00    +0.000 C 
ATOM      2  C   UNL     1       4.606   3.547  18.962  0.00  0.00    +0.000 C 
ATOM      3  C   UNL     1       3.534   3.299  20.030  0.00  0.00    +0.000 C 
ATOM      4  C   UNL     1       2.407   2.461  19.419  0.00  0.00    +0.000 C 
ATOM      5  C   UNL     1       1.793   3.211  18.235  0.00  0.00    +0.000 C 
ATOM      6  C   UNL     1       2.861   3.463  17.160  0.00  0.00    +0.000 C 
ATOM      7  C   UNL     1       1.241   4.558  18.724  0.00  0.00    +0.000 C 
ATOM      8  C   UNL     1       2.361   5.449  19.343  0.00  0.00    +0.000 C 
ATOM      9  C   UNL     1       2.986   4.649  20.518  0.00  0.00    +0.000 C 
ATOM     10  C   UNL     1       3.451   5.657  18.247  0.00  0.00    +0.000 C 
ENDROOT
BRANCH   1  14
ATOM     11  C   UNL     1       7.020   5.106  14.633  0.00  0.00    +0.000 A 
ATOM     12  C   UNL     1       5.910   4.314  14.344  0.00  0.00    +0.000 A 
ATOM     13  C   UNL     1       4.958   4.048  15.334  0.00  0.00    +0.000 A 
ATOM     14  C   UNL     1       5.085   4.566  16.636  0.00  0.00    +0.000 A 
ATOM     15  C   UNL     1       6.224   5.349  16.908  0.00  0.00    +0.000 A 
ATOM     16  C   UNL     1       7.178   5.619  15.920  0.00  0.00    +0.000 A 
BRANCH  11  18
ATOM     17  N   UNL     1       8.765   5.637  12.790  0.00  0.00    +0.000 NA
ATOM     18  C   UNL     1       7.983   5.396  13.611  0.00  0.00    +0.000 C 
ENDBRANCH  11  18
ENDBRANCH   1  14
BRANCH   8  19
ATOM     19  C   UNL     1       1.853   6.820  19.828  0.00  0.00    +0.000 A 
ATOM     20  C   UNL     1       1.270   7.004  21.093  0.00  0.00    +0.000 A 
ATOM     21  C   UNL     1       0.770   8.249  21.494  0.00  0.00    +0.000 A 
ATOM     22  C   UNL     1       0.854   9.339  20.625  0.00  0.00    +0.000 A 
ATOM     23  C   UNL     1       1.439   9.193  19.366  0.00  0.00    +0.000 A 
ATOM     24  C   UNL     1       1.936   7.944  18.979  0.00  0.00    +0.000 A 
BRANCH  22  25
ATOM     25  N   UNL     1       0.323  10.643  21.038  0.00  0.00    +0.000 N 
ATOM     26  O   UNL     1      -0.092  11.405  20.151  0.00  0.00    +0.000 OA
ATOM     27  O   UNL     1       0.319  10.908  22.248  0.00  0.00    +0.000 OA
ENDBRANCH  22  25
ENDBRANCH   8  19
TORSDOF 4
ENDMDL
MODEL 5
REMARK VINA RESULT:      -7.8      3.603      7.715
REMARK  Name = 
REMARK  4 active torsions:
REMARK  status: ('A' for Active; 'I' for Inactive)
REMARK    1  A    between atoms: C_2  and  C_3
REMARK    2  A    between atoms: C_6  and  C_7
REMARK    3  A    between atoms: C_14  and  C_15
REMARK    4  A    between atoms: C_18  and  N_19
REMARK                            x       y       z     vdW  Elec       q    Type
REMARK                         _______ _______ _______ _____ _____    ______ ____
ROOT
ATOM      1  C   UNL     1       4.009   4.294  17.800  0.00  0.00    +0.000 C 
ATOM      2  C   UNL     1       4.590   3.535  19.030  0.00  0.00    +0.000 C 
ATOM      3  C   UNL     1       3.521   3.278  20.100  0.00  0.00    +0.000 C 
ATOM      4  C   UNL     1       2.400   2.431  19.491  0.00  0.00    +0.000 C 
ATOM      5  C   UNL     1       1.778   3.177  18.308  0.00  0.00    +0.000 C 
ATOM      6  C   UNL     1       2.843   3.438  17.232  0.00  0.00    +0.000 C 
ATOM      7  C   UNL     1       1.217   4.519  18.798  0.00  0.00    +0.000 C 
ATOM      8  C   UNL     1       2.330   5.419  19.415  0.00  0.00    +0.000 C 
ATOM      9  C   UNL     1       2.964   4.624  20.589  0.00  0.00    +0.000 C 
ATOM     10  C   UNL     1       3.417   5.636  18.318  0.00  0.00    +0.000 C 
ENDROOT
BRANCH   1  14
ATOM     11  C   UNL     1       6.986   5.114  14.699  0.00  0.00    +0.000 A 
ATOM     12  C   UNL     1       5.870   4.332  14.405  0.00  0.00    +0.000 A 
ATOM     13  C   UNL     1       4.921   4.058  15.396  0.00  0.00    +0.000 A 
ATOM     14  C   UNL     1       5.058   4.558  16.704  0.00  0.00    +0.000 A 
ATOM     15  C   UNL     1       6.202   5.330  16.981  0.00  0.00    +0.000 A 
ATOM     16  C   UNL     1       7.154   5.608  15.993  0.00  0.00    +0.000 A 
BRANCH  11  18
ATOM     17  N   UNL     1       8.728   5.650  12.855  0.00  0.00    +0.000 NA
ATOM     18  C   UNL     1       7.946   5.412  13.677  0.00  0.00    +0.000 C 
ENDBRANCH  11  18
ENDBRANCH   1  14
BRANCH   8  19
ATOM     19  C   UNL     1       1.812   6.786  19.901  0.00  0.00    +0.000 A 
ATOM     20  C   UNL     1       1.929   7.955  19.129  0.00  0.00    +0.000 A 
ATOM     21  C   UNL     1       1.496   9.196  19.612  0.00  0.00    +0.000 A 
ATOM     22  C   UNL     1       0.929   9.282  20.885  0.00  0.00    +0.000 A 
ATOM     23  C   UNL     1       0.787   8.138  21.672  0.00  0.00    +0.000 A 
ATOM     24  C   UNL     1       1.223   6.904  21.178  0.00  0.00    +0.000 A 
BRANCH  22  25
ATOM     25  N   UNL     1       0.483  10.582  21.397  0.00  0.00    +0.000 N 
ATOM     26  O   UNL     1       0.269  10.681  22.615  0.00  0.00    +0.000 OA
ATOM     27  O   UNL     1       0.344  11.507  20.584  0.00  0.00    +0.000 OA
ENDBRANCH  22  25
ENDBRANCH   8  19
TORSDOF 4
ENDMDL
MODEL 6
REMARK VINA RESULT:      -7.7      0.957      1.184
REMARK  Name = 
REMARK  4 active torsions:
REMARK  status: ('A' for Active; 'I' for Inactive)
REMARK    1  A    between atoms: C_2  and  C_3
REMARK    2  A    between atoms: C_6  and  C_7
REMARK    3  A    between atoms: C_14  and  C_15
REMARK    4  A    between atoms: C_18  and  N_19
REMARK                            x       y       z     vdW  Elec       q    Type
REMARK                         _______ _______ _______ _____ _____    ______ ____
ROOT
ATOM      1  C   UNL     1       2.066   5.734  19.743  0.00  0.00    +0.000 C 
ATOM      2  C   UNL     1       0.834   4.882  19.313  0.00  0.00    +0.000 C 
ATOM      3  C   UNL     1       1.240   3.462  18.896  0.00  0.00    +0.000 C 
ATOM      4  C   UNL     1       1.921   2.771  20.081  0.00  0.00    +0.000 C 
ATOM      5  C   UNL     1       3.163   3.563  20.493  0.00  0.00    +0.000 C 
ATOM      6  C   UNL     1       2.765   4.986  20.912  0.00  0.00    +0.000 C 
ATOM      7  C   UNL     1       4.129   3.639  19.302  0.00  0.00    +0.000 C 
ATOM      8  C   UNL     1       3.478   4.349  18.076  0.00  0.00    +0.000 C 
ATOM      9  C   UNL     1       2.204   3.543  17.703  0.00  0.00    +0.000 C 
ATOM     10  C   UNL     1       3.047   5.776  18.537  0.00  0.00    +0.000 C 
ENDROOT
BRANCH   1  14
ATOM     11  C   UNL     1       0.929   9.770  20.998  0.00  0.00    +0.000 A 
ATOM     12  C   UNL     1       1.398   9.548  19.704  0.00  0.00    +0.000 A 
ATOM     13  C   UNL     1       1.773   8.261  19.302  0.00  0.00    +0.000 A 
ATOM     14  C   UNL     1       1.688   7.163  20.176  0.00  0.00    +0.000 A 
ATOM     15  C   UNL     1       1.227   7.415  21.483  0.00  0.00    +0.000 A 
ATOM     16  C   UNL     1       0.850   8.700  21.889  0.00  0.00    +0.000 A 
BRANCH  11  18
ATOM     17  N   UNL     1       0.201  12.146  21.736  0.00  0.00    +0.000 NA
ATOM     18  C   UNL     1       0.524  11.084  21.401  0.00  0.00    +0.000 C 
ENDBRANCH  11  18
ENDBRANCH   1  14
BRANCH   8  19
ATOM     19  C   UNL     1       4.422   4.466  16.864  0.00  0.00    +0.000 A 
ATOM     20  C   UNL     1       5.002   3.343  16.249  0.00  0.00    +0.000 A 
ATOM     21  C   UNL     1       5.897   3.475  15.180  0.00  0.00    +0.000 A 
ATOM     22  C   UNL     1       6.221   4.748  14.704  0.00  0.00    +0.000 A 
ATOM     23  C   UNL     1       5.653   5.883  15.285  0.00  0.00    +0.000 A 
ATOM     24  C   UNL     1       4.759   5.736  16.352  0.00  0.00    +0.000 A 
BRANCH  22  25
ATOM     25  N   UNL     1       7.165   4.890  13.591  0.00  0.00    +0.000 N 
ATOM     26  O   UNL     1       8.147   5.629  13.758  0.00  0.00    +0.000 OA
ATOM     27  O   UNL     1       6.928   4.265  12.548  0.00  0.00    +0.000 OA
ENDBRANCH  22  25
ENDBRANCH   8  19
TORSDOF 4
ENDMDL
MODEL 7
REMARK VINA RESULT:      -7.6      1.066      1.767
REMARK  Name = 
REMARK  4 active torsions:
REMARK  status: ('A' for Active; 'I' for Inactive)
REMARK    1  A    between atoms: C_2  and  C_3
REMARK    2  A    between atoms: C_6  and  C_7
REMARK    3  A    between atoms: C_14  and  C_15
REMARK    4  A    between atoms: C_18  and  N_19
REMARK                            x       y       z     vdW  Elec       q    Type
REMARK                         _______ _______ _______ _____ _____    ______ ____
ROOT
ATOM      1  C   UNL     1       1.886   5.673  19.995  0.00  0.00    +0.000 C 
ATOM      2  C   UNL     1       0.698   4.752  19.584  0.00  0.00    +0.000 C 
ATOM      3  C   UNL     1       1.172   3.341  19.211  0.00  0.00    +0.000 C 
ATOM      4  C   UNL     1       1.877   2.717  20.418  0.00  0.00    +0.000 C 
ATOM      5  C   UNL     1       3.079   3.578  20.813  0.00  0.00    +0.000 C 
ATOM      6  C   UNL     1       2.612   4.993  21.189  0.00  0.00    +0.000 C 
ATOM      7  C   UNL     1       4.048   3.665  19.625  0.00  0.00    +0.000 C 
ATOM      8  C   UNL     1       3.372   4.308  18.376  0.00  0.00    +0.000 C 
ATOM      9  C   UNL     1       2.140   3.433  18.020  0.00  0.00    +0.000 C 
ATOM     10  C   UNL     1       2.872   5.726  18.793  0.00  0.00    +0.000 C 
ENDROOT
BRANCH   1  14
ATOM     11  C   UNL     1       0.683   9.735  21.093  0.00  0.00    +0.000 A 
ATOM     12  C   UNL     1       0.371   8.665  21.930  0.00  0.00    +0.000 A 
ATOM     13  C   UNL     1       0.745   7.363  21.578  0.00  0.00    +0.000 A 
ATOM     14  C   UNL     1       1.439   7.094  20.385  0.00  0.00    +0.000 A 
ATOM     15  C   UNL     1       1.726   8.188  19.547  0.00  0.00    +0.000 A 
ATOM     16  C   UNL     1       1.356   9.493  19.896  0.00  0.00    +0.000 A 
BRANCH  11  18
ATOM     17  N   UNL     1       0.034  12.152  21.769  0.00  0.00    +0.000 NA
ATOM     18  C   UNL     1       0.319  11.070  21.466  0.00  0.00    +0.000 C 
ENDBRANCH  11  18
ENDBRANCH   1  14
BRANCH   8  19
ATOM     19  C   UNL     1       4.317   4.434  17.166  0.00  0.00    +0.000 A 
ATOM     20  C   UNL     1       4.873   3.315  16.524  0.00  0.00    +0.000 A 
ATOM     21  C   UNL     1       5.770   3.454  15.457  0.00  0.00    +0.000 A 
ATOM     22  C   UNL     1       6.120   4.731  15.011  0.00  0.00    +0.000 A 
ATOM     23  C   UNL     1       5.575   5.863  15.620  0.00  0.00    +0.000 A 
ATOM     24  C   UNL     1       4.680   5.709  16.684  0.00  0.00    +0.000 A 
BRANCH  22  25
ATOM     25  N   UNL     1       7.066   4.880  13.900  0.00  0.00    +0.000 N 
ATOM     26  O   UNL     1       6.851   4.229  12.867  0.00  0.00    +0.000 OA
ATOM     27  O   UNL     1       8.025   5.649  14.058  0.00  0.00    +0.000 OA
ENDBRANCH  22  25
ENDBRANCH   8  19
TORSDOF 4
ENDMDL
MODEL 8
REMARK VINA RESULT:      -7.4      3.729      7.774
REMARK  Name = 
REMARK  4 active torsions:
REMARK  status: ('A' for Active; 'I' for Inactive)
REMARK    1  A    between atoms: C_2  and  C_3
REMARK    2  A    between atoms: C_6  and  C_7
REMARK    3  A    between atoms: C_14  and  C_15
REMARK    4  A    between atoms: C_18  and  N_19
REMARK                            x       y       z     vdW  Elec       q    Type
REMARK                         _______ _______ _______ _____ _____    ______ ____
ROOT
ATOM      1  C   UNL     1       3.646   4.553  17.970  0.00  0.00    +0.000 C 
ATOM      2  C   UNL     1       4.305   3.853  19.196  0.00  0.00    +0.000 C 
ATOM      3  C   UNL     1       3.312   3.669  20.350  0.00  0.00    +0.000 C 
ATOM      4  C   UNL     1       2.142   2.807  19.868  0.00  0.00    +0.000 C 
ATOM      5  C   UNL     1       1.446   3.497  18.693  0.00  0.00    +0.000 C 
ATOM      6  C   UNL     1       2.434   3.685  17.532  0.00  0.00    +0.000 C 
ATOM      7  C   UNL     1       0.935   4.872  19.147  0.00  0.00    +0.000 C 
ATOM      8  C   UNL     1       2.098   5.787  19.635  0.00  0.00    +0.000 C 
ATOM      9  C   UNL     1       2.805   5.047  20.803  0.00  0.00    +0.000 C 
ATOM     10  C   UNL     1       3.107   5.930  18.454  0.00  0.00    +0.000 C 
ENDROOT
BRANCH   1  14
ATOM     11  C   UNL     1       6.458   5.055  14.653  0.00  0.00    +0.000 A 
ATOM     12  C   UNL     1       5.800   6.164  15.184  0.00  0.00    +0.000 A 
ATOM     13  C   UNL     1       4.892   6.007  16.237  0.00  0.00    +0.000 A 
ATOM     14  C   UNL     1       4.618   4.743  16.790  0.00  0.00    +0.000 A 
ATOM     15  C   UNL     1       5.282   3.636  16.226  0.00  0.00    +0.000 A 
ATOM     16  C   UNL     1       6.192   3.789  15.173  0.00  0.00    +0.000 A 
BRANCH  11  18
ATOM     17  N   UNL     1       8.173   5.361  12.733  0.00  0.00    +0.000 NA
ATOM     18  C   UNL     1       7.404   5.221  13.590  0.00  0.00    +0.000 C 
ENDBRANCH  11  18
ENDBRANCH   1  14
BRANCH   8  19
ATOM     19  C   UNL     1       1.630   7.185  20.081  0.00  0.00    +0.000 A 
ATOM     20  C   UNL     1       1.675   8.303  19.229  0.00  0.00    +0.000 A 
ATOM     21  C   UNL     1       1.291   9.575  19.672  0.00  0.00    +0.000 A 
ATOM     22  C   UNL     1       0.847   9.745  20.985  0.00  0.00    +0.000 A 
ATOM     23  C   UNL     1       0.779   8.653  21.852  0.00  0.00    +0.000 A 
ATOM     24  C   UNL     1       1.164   7.387  21.397  0.00  0.00    +0.000 A 
BRANCH  22  25
ATOM     25  N   UNL     1       0.453  11.078  21.454  0.00  0.00    +0.000 N 
ATOM     26  O   UNL     1       1.218  12.024  21.212  0.00  0.00    +0.000 OA
ATOM     27  O   UNL     1      -0.619  11.181  22.065  0.00  0.00    +0.000 OA
ENDBRANCH  22  25
ENDBRANCH   8  19
TORSDOF 4
ENDMDL
MODEL 9
REMARK VINA RESULT:      -7.1      6.057     10.444
REMARK  Name = 
REMARK  4 active torsions:
REMARK  status: ('A' for Active; 'I' for Inactive)
REMARK    1  A    between atoms: C_2  and  C_3
REMARK    2  A    between atoms: C_6  and  C_7
REMARK    3  A    between atoms: C_14  and  C_15
REMARK    4  A    between atoms: C_18  and  N_19
REMARK                            x       y       z     vdW  Elec       q    Type
REMARK                         _______ _______ _______ _____ _____    ______ ____
ROOT
ATOM      1  C   UNL     1       0.929  10.518  19.503  0.00  0.00    +0.000 C 
ATOM      2  C   UNL     1       1.602  11.505  18.504  0.00  0.00    +0.000 C 
ATOM      3  C   UNL     1       1.073  12.935  18.669  0.00  0.00    +0.000 C 
ATOM      4  C   UNL     1       1.363  13.412  20.095  0.00  0.00    +0.000 C 
ATOM      5  C   UNL     1       0.671  12.486  21.098  0.00  0.00    +0.000 C 
ATOM      6  C   UNL     1       1.197  11.051  20.938  0.00  0.00    +0.000 C 
ATOM      7  C   UNL     1      -0.841  12.501  20.836  0.00  0.00    +0.000 C 
ATOM      8  C   UNL     1      -1.182  12.009  19.396  0.00  0.00    +0.000 C 
ATOM      9  C   UNL     1      -0.441  12.946  18.404  0.00  0.00    +0.000 C 
ATOM     10  C   UNL     1      -0.604  10.568  19.246  0.00  0.00    +0.000 C 
ENDROOT
BRANCH   1  14
ATOM     11  C   UNL     1       2.447   6.426  19.173  0.00  0.00    +0.000 A 
ATOM     12  C   UNL     1       2.465   7.268  18.063  0.00  0.00    +0.000 A 
ATOM     13  C   UNL     1       1.971   8.574  18.161  0.00  0.00    +0.000 A 
ATOM     14  C   UNL     1       1.448   9.074  19.367  0.00  0.00    +0.000 A 
ATOM     15  C   UNL     1       1.425   8.199  20.470  0.00  0.00    +0.000 A 
ATOM     16  C   UNL     1       1.919   6.893  20.377  0.00  0.00    +0.000 A 
BRANCH  11  18
ATOM     17  N   UNL     1       3.408   4.025  19.001  0.00  0.00    +0.000 NA
ATOM     18  C   UNL     1       2.974   5.097  19.077  0.00  0.00    +0.000 C 
ENDBRANCH  11  18
ENDBRANCH   1  14
BRANCH   8  19
ATOM     19  C   UNL     1      -2.694  11.989  19.099  0.00  0.00    +0.000 A 
ATOM     20  C   UNL     1      -3.222  11.446  17.915  0.00  0.00    +0.000 A 
ATOM     21  C   UNL     1      -4.596  11.483  17.643  0.00  0.00    +0.000 A 
ATOM     22  C   UNL     1      -5.467  12.065  18.567  0.00  0.00    +0.000 A 
ATOM     23  C   UNL     1      -4.975  12.601  19.758  0.00  0.00    +0.000 A 
ATOM     24  C   UNL     1      -3.601  12.557  20.018  0.00  0.00    +0.000 A 
BRANCH  22  25
ATOM     25  N   UNL     1      -6.905  12.113  18.281  0.00  0.00    +0.000 N 
ATOM     26  O   UNL     1      -7.262  12.606  17.200  0.00  0.00    +0.000 OA
ATOM     27  O   UNL     1      -7.680  11.660  19.135  0.00  0.00    +0.000 OA
ENDBRANCH  22  25
ENDBRANCH   8  19
TORSDOF 4
ENDMDL
