MODEL 1
REMARK VINA RESULT:      -6.1      0.000      0.000
REMARK  Name = 
REMARK  18 active torsions:
REMARK  status: ('A' for Active; 'I' for Inactive)
REMARK    1  A    between atoms: C_1  and  C_2
REMARK    2  A    between atoms: C_2  and  C_3
REMARK    3  A    between atoms: C_3  and  C_4
REMARK    4  A    between atoms: C_4  and  C_5
REMARK    5  A    between atoms: C_5  and  C_6
REMARK    6  A    between atoms: C_6  and  C_7
REMARK    7  A    between atoms: C_7  and  C_8
REMARK    8  A    between atoms: C_8  and  C_9
REMARK    9  A    between atoms: C_9  and  C_10
REMARK   10  A    between atoms: C_10  and  C_11
REMARK   11  A    between atoms: C_11  and  C_12
REMARK   12  A    between atoms: C_12  and  C_14
REMARK   13  A    between atoms: C_17  and  C_18
REMARK   14  A    between atoms: C_18  and  O_19
REMARK   15  A    between atoms: C_18  and  C_20
REMARK   16  A    between atoms: C_20  and  N_21
REMARK   17  A    between atoms: C_20  and  C_22
REMARK   18  A    between atoms: C_22  and  O_23
REMARK                            x       y       z     vdW  Elec       q    Type
REMARK                         _______ _______ _______ _____ _____    ______ ____
ROOT
ATOM      1  C   UNK     1       4.931   3.621  18.445  0.00  0.00    +0.000 A 
ATOM      2  C   UNK     1       5.619   4.682  19.006  0.00  0.00    +0.000 A 
ATOM      3  S   UNK     1       6.012   5.894  17.868  0.00  0.00    +0.000 S 
ATOM      4  C   UNK     1       5.293   5.019  16.585  0.00  0.00    +0.000 A 
ATOM      5  C   UNK     1       4.778   3.819  17.030  0.00  0.00    +0.000 A 
ENDROOT
BRANCH   1   6
ATOM      6  C   UNK     1       4.414   2.458  19.180  0.00  0.00    +0.000 C 
ATOM      7  O   UNK     1       4.701   2.294  20.362  0.00  0.00    +0.000 OA
BRANCH   6   8
ATOM      8  C   UNK     1       3.536   1.459  18.441  0.00  0.00    +0.000 C 
BRANCH   8   9
ATOM      9  C   UNK     1       2.173   2.069  18.133  0.00  0.00    +0.000 C 
BRANCH   9  10
ATOM     10  C   UNK     1       1.256   2.061  19.348  0.00  0.00    +0.000 C 
BRANCH  10  11
ATOM     11  C   UNK     1       0.802   3.483  19.661  0.00  0.00    +0.000 C 
BRANCH  11  12
ATOM     12  C   UNK     1       1.379   3.968  20.987  0.00  0.00    +0.000 C 
BRANCH  12  13
ATOM     13  C   UNK     1       2.459   5.015  20.749  0.00  0.00    +0.000 C 
BRANCH  13  14
ATOM     14  C   UNK     1       1.864   6.258  20.097  0.00  0.00    +0.000 C 
BRANCH  14  15
ATOM     15  C   UNK     1       2.278   6.363  18.631  0.00  0.00    +0.000 C 
BRANCH  15  16
ATOM     16  C   UNK     1       2.829   7.753  18.327  0.00  0.00    +0.000 C 
BRANCH  16  18
ATOM     17  C   UNK     1       1.517   9.888  18.398  0.00  0.00    +0.000 C 
ATOM     18  C   UNK     1       1.788   8.614  17.619  0.00  0.00    +0.000 C 
ENDBRANCH  16  18
ENDBRANCH  15  16
ENDBRANCH  14  15
ENDBRANCH  13  14
ENDBRANCH  12  13
ENDBRANCH  11  12
ENDBRANCH  10  11
ENDBRANCH   9  10
ENDBRANCH   8   9
ENDBRANCH   6   8
ENDBRANCH   1   6
BRANCH   4  19
ATOM     19  C   UNK     1       5.241   5.568  15.185  0.00  0.00    +0.000 C 
BRANCH  19  20
ATOM     20  O   UNK     1       5.277   6.980  15.284  0.00  0.00    +0.000 OA
ATOM     21  H   UNK     1       5.815   7.206  16.064  0.00  0.00    +0.000 HD
ENDBRANCH  19  20
BRANCH  19  22
ATOM     22  C   UNK     1       6.400   5.126  14.273  0.00  0.00    +0.000 C 
BRANCH  22  23
ATOM     23  N   UNK     1       7.712   5.216  14.916  0.00  0.00    +0.000 NA
ATOM     24  H   UNK     1       7.611   5.535  15.880  0.00  0.00    +0.000 HD
ATOM     25  H   UNK     1       8.294   5.909  14.445  0.00  0.00    +0.000 HD
ENDBRANCH  22  23
BRANCH  22  26
ATOM     26  C   UNK     1       6.153   3.687  13.756  0.00  0.00    +0.000 C 
BRANCH  26  27
ATOM     27  O   UNK     1       5.278   3.679  12.642  0.00  0.00    +0.000 OA
ATOM     28  H   UNK     1       4.380   3.499  12.974  0.00  0.00    +0.000 HD
ENDBRANCH  26  27
ENDBRANCH  22  26
ENDBRANCH  19  22
ENDBRANCH   4  19
TORSDOF 17
ENDMDL
MODEL 2
REMARK VINA RESULT:      -5.8      1.831      2.833
REMARK  Name = 
REMARK  18 active torsions:
REMARK  status: ('A' for Active; 'I' for Inactive)
REMARK    1  A    between atoms: C_1  and  C_2
REMARK    2  A    between atoms: C_2  and  C_3
REMARK    3  A    between atoms: C_3  and  C_4
REMARK    4  A    between atoms: C_4  and  C_5
REMARK    5  A    between atoms: C_5  and  C_6
REMARK    6  A    between atoms: C_6  and  C_7
REMARK    7  A    between atoms: C_7  and  C_8
REMARK    8  A    between atoms: C_8  and  C_9
REMARK    9  A    between atoms: C_9  and  C_10
REMARK   10  A    between atoms: C_10  and  C_11
REMARK   11  A    between atoms: C_11  and  C_12
REMARK   12  A    between atoms: C_12  and  C_14
REMARK   13  A    between atoms: C_17  and  C_18
REMARK   14  A    between atoms: C_18  and  O_19
REMARK   15  A    between atoms: C_18  and  C_20
REMARK   16  A    between atoms: C_20  and  N_21
REMARK   17  A    between atoms: C_20  and  C_22
REMARK   18  A    between atoms: C_22  and  O_23
REMARK                            x       y       z     vdW  Elec       q    Type
REMARK                         _______ _______ _______ _____ _____    ______ ____
ROOT
ATOM      1  C   UNK     1       4.390   3.554  18.389  0.00  0.00    +0.000 A 
ATOM      2  C   UNK     1       5.226   4.183  19.294  0.00  0.00    +0.000 A 
ATOM      3  S   UNK     1       6.359   5.218  18.542  0.00  0.00    +0.000 S 
ATOM      4  C   UNK     1       5.778   4.831  16.980  0.00  0.00    +0.000 A 
ATOM      5  C   UNK     1       4.747   3.917  17.046  0.00  0.00    +0.000 A 
ENDROOT
BRANCH   1   6
ATOM      6  C   UNK     1       3.286   2.649  18.738  0.00  0.00    +0.000 C 
ATOM      7  O   UNK     1       3.176   1.561  18.183  0.00  0.00    +0.000 OA
BRANCH   6   8
ATOM      8  C   UNK     1       2.278   3.099  19.787  0.00  0.00    +0.000 C 
BRANCH   8   9
ATOM      9  C   UNK     1       1.665   4.439  19.399  0.00  0.00    +0.000 C 
BRANCH   9  10
ATOM     10  C   UNK     1       1.743   5.452  20.533  0.00  0.00    +0.000 C 
BRANCH  10  11
ATOM     11  C   UNK     1       2.243   6.790  19.996  0.00  0.00    +0.000 C 
BRANCH  11  12
ATOM     12  C   UNK     1       2.548   6.707  18.504  0.00  0.00    +0.000 C 
BRANCH  12  13
ATOM     13  C   UNK     1       2.105   7.981  17.796  0.00  0.00    +0.000 C 
BRANCH  13  14
ATOM     14  C   UNK     1       1.704   9.045  18.811  0.00  0.00    +0.000 C 
BRANCH  14  15
ATOM     15  C   UNK     1       0.626   9.966  18.247  0.00  0.00    +0.000 C 
BRANCH  15  16
ATOM     16  C   UNK     1      -0.556  10.060  19.207  0.00  0.00    +0.000 C 
BRANCH  16  18
ATOM     17  C   UNK     1      -1.807   9.977  17.035  0.00  0.00    +0.000 C 
ATOM     18  C   UNK     1      -1.830  10.465  18.472  0.00  0.00    +0.000 C 
ENDBRANCH  16  18
ENDBRANCH  15  16
ENDBRANCH  14  15
ENDBRANCH  13  14
ENDBRANCH  12  13
ENDBRANCH  11  12
ENDBRANCH  10  11
ENDBRANCH   9  10
ENDBRANCH   8   9
ENDBRANCH   6   8
ENDBRANCH   1   6
BRANCH   4  19
ATOM     19  C   UNK     1       6.350   5.470  15.743  0.00  0.00    +0.000 C 
BRANCH  19  20
ATOM     20  O   UNK     1       7.354   6.377  16.163  0.00  0.00    +0.000 OA
ATOM     21  H   UNK     1       7.917   6.569  15.391  0.00  0.00    +0.000 HD
ENDBRANCH  19  20
BRANCH  19  22
ATOM     22  C   UNK     1       6.986   4.488  14.742  0.00  0.00    +0.000 C 
BRANCH  22  23
ATOM     23  N   UNK     1       6.111   3.367  14.392  0.00  0.00    +0.000 NA
ATOM     24  H   UNK     1       6.549   2.789  13.674  0.00  0.00    +0.000 HD
ATOM     25  H   UNK     1       5.236   3.707  13.992  0.00  0.00    +0.000 HD
ENDBRANCH  22  23
BRANCH  22  26
ATOM     26  C   UNK     1       7.429   5.242  13.465  0.00  0.00    +0.000 C 
BRANCH  26  27
ATOM     27  O   UNK     1       8.721   5.803  13.616  0.00  0.00    +0.000 OA
ATOM     28  H   UNK     1       8.695   6.704  13.247  0.00  0.00    +0.000 HD
ENDBRANCH  26  27
ENDBRANCH  22  26
ENDBRANCH  19  22
ENDBRANCH   4  19
TORSDOF 17
ENDMDL
MODEL 3
REMARK VINA RESULT:      -5.7      2.676      6.668
REMARK  Name = 
REMARK  18 active torsions:
REMARK  status: ('A' for Active; 'I' for Inactive)
REMARK    1  A    between atoms: C_1  and  C_2
REMARK    2  A    between atoms: C_2  and  C_3
REMARK    3  A    between atoms: C_3  and  C_4
REMARK    4  A    between atoms: C_4  and  C_5
REMARK    5  A    between atoms: C_5  and  C_6
REMARK    6  A    between atoms: C_6  and  C_7
REMARK    7  A    between atoms: C_7  and  C_8
REMARK    8  A    between atoms: C_8  and  C_9
REMARK    9  A    between atoms: C_9  and  C_10
REMARK   10  A    between atoms: C_10  and  C_11
REMARK   11  A    between atoms: C_11  and  C_12
REMARK   12  A    between atoms: C_12  and  C_14
REMARK   13  A    between atoms: C_17  and  C_18
REMARK   14  A    between atoms: C_18  and  O_19
REMARK   15  A    between atoms: C_18  and  C_20
REMARK   16  A    between atoms: C_20  and  N_21
REMARK   17  A    between atoms: C_20  and  C_22
REMARK   18  A    between atoms: C_22  and  O_23
REMARK                            x       y       z     vdW  Elec       q    Type
REMARK                         _______ _______ _______ _____ _____    ______ ____
ROOT
ATOM      1  C   UNK     1       2.486   6.075  18.882  0.00  0.00    +0.000 A 
ATOM      2  C   UNK     1       2.243   6.174  20.240  0.00  0.00    +0.000 A 
ATOM      3  S   UNK     1       2.022   4.653  20.988  0.00  0.00    +0.000 S 
ATOM      4  C   UNK     1       2.220   3.820  19.506  0.00  0.00    +0.000 A 
ATOM      5  C   UNK     1       2.438   4.701  18.467  0.00  0.00    +0.000 A 
ENDROOT
BRANCH   1   6
ATOM      6  C   UNK     1       2.766   7.204  17.984  0.00  0.00    +0.000 C 
ATOM      7  O   UNK     1       1.894   8.030  17.735  0.00  0.00    +0.000 OA
BRANCH   6   8
ATOM      8  C   UNK     1       4.150   7.313  17.359  0.00  0.00    +0.000 C 
BRANCH   8   9
ATOM      9  C   UNK     1       5.102   6.302  17.987  0.00  0.00    +0.000 C 
BRANCH   9  10
ATOM     10  C   UNK     1       6.216   5.897  17.032  0.00  0.00    +0.000 C 
BRANCH  10  11
ATOM     11  C   UNK     1       6.237   4.379  16.878  0.00  0.00    +0.000 C 
BRANCH  11  12
ATOM     12  C   UNK     1       5.500   3.941  15.617  0.00  0.00    +0.000 C 
BRANCH  12  13
ATOM     13  C   UNK     1       5.750   4.925  14.482  0.00  0.00    +0.000 C 
BRANCH  13  14
ATOM     14  C   UNK     1       6.616   4.286  13.402  0.00  0.00    +0.000 C 
BRANCH  14  15
ATOM     15  C   UNK     1       5.876   3.147  12.704  0.00  0.00    +0.000 C 
BRANCH  15  16
ATOM     16  C   UNK     1       5.301   3.617  11.372  0.00  0.00    +0.000 C 
BRANCH  16  18
ATOM     17  C   UNK     1       3.185   4.008  10.085  0.00  0.00    +0.000 C 
ATOM     18  C   UNK     1       3.812   3.303  11.274  0.00  0.00    +0.000 C 
ENDBRANCH  16  18
ENDBRANCH  15  16
ENDBRANCH  14  15
ENDBRANCH  13  14
ENDBRANCH  12  13
ENDBRANCH  11  12
ENDBRANCH  10  11
ENDBRANCH   9  10
ENDBRANCH   8   9
ENDBRANCH   6   8
ENDBRANCH   1   6
BRANCH   4  19
ATOM     19  C   UNK     1       2.181   2.317  19.433  0.00  0.00    +0.000 C 
BRANCH  19  20
ATOM     20  O   UNK     1       1.378   1.970  18.318  0.00  0.00    +0.000 OA
ATOM     21  H   UNK     1       0.558   1.571  18.660  0.00  0.00    +0.000 HD
ENDBRANCH  19  20
BRANCH  19  22
ATOM     22  C   UNK     1       3.554   1.642  19.257  0.00  0.00    +0.000 C 
BRANCH  22  23
ATOM     23  N   UNK     1       3.967   1.521  17.858  0.00  0.00    +0.000 NA
ATOM     24  H   UNK     1       4.972   1.679  17.772  0.00  0.00    +0.000 HD
ATOM     25  H   UNK     1       3.515   2.237  17.288  0.00  0.00    +0.000 HD
ENDBRANCH  22  23
BRANCH  22  26
ATOM     26  C   UNK     1       4.629   2.403  20.071  0.00  0.00    +0.000 C 
BRANCH  26  27
ATOM     27  O   UNK     1       5.145   1.606  21.122  0.00  0.00    +0.000 OA
ATOM     28  H   UNK     1       4.413   1.062  21.465  0.00  0.00    +0.000 HD
ENDBRANCH  26  27
ENDBRANCH  22  26
ENDBRANCH  19  22
ENDBRANCH   4  19
TORSDOF 17
ENDMDL
MODEL 4
REMARK VINA RESULT:      -5.7      0.891      1.890
REMARK  Name = 
REMARK  18 active torsions:
REMARK  status: ('A' for Active; 'I' for Inactive)
REMARK    1  A    between atoms: C_1  and  C_2
REMARK    2  A    between atoms: C_2  and  C_3
REMARK    3  A    between atoms: C_3  and  C_4
REMARK    4  A    between atoms: C_4  and  C_5
REMARK    5  A    between atoms: C_5  and  C_6
REMARK    6  A    between atoms: C_6  and  C_7
REMARK    7  A    between atoms: C_7  and  C_8
REMARK    8  A    between atoms: C_8  and  C_9
REMARK    9  A    between atoms: C_9  and  C_10
REMARK   10  A    between atoms: C_10  and  C_11
REMARK   11  A    between atoms: C_11  and  C_12
REMARK   12  A    between atoms: C_12  and  C_14
REMARK   13  A    between atoms: C_17  and  C_18
REMARK   14  A    between atoms: C_18  and  O_19
REMARK   15  A    between atoms: C_18  and  C_20
REMARK   16  A    between atoms: C_20  and  N_21
REMARK   17  A    between atoms: C_20  and  C_22
REMARK   18  A    between atoms: C_22  and  O_23
REMARK                            x       y       z     vdW  Elec       q    Type
REMARK                         _______ _______ _______ _____ _____    ______ ____
ROOT
ATOM      1  C   UNK     1       4.632   3.779  18.692  0.00  0.00    +0.000 A 
ATOM      2  C   UNK     1       5.405   4.806  19.203  0.00  0.00    +0.000 A 
ATOM      3  S   UNK     1       5.999   5.855  17.991  0.00  0.00    +0.000 S 
ATOM      4  C   UNK     1       5.258   4.946  16.745  0.00  0.00    +0.000 A 
ATOM      5  C   UNK     1       4.584   3.857  17.258  0.00  0.00    +0.000 A 
ENDROOT
BRANCH   1   6
ATOM      6  C   UNK     1       3.945   2.754  19.490  0.00  0.00    +0.000 C 
ATOM      7  O   UNK     1       4.567   2.082  20.307  0.00  0.00    +0.000 OA
BRANCH   6   8
ATOM      8  C   UNK     1       2.455   2.536  19.269  0.00  0.00    +0.000 C 
BRANCH   8   9
ATOM      9  C   UNK     1       1.651   3.107  20.432  0.00  0.00    +0.000 C 
BRANCH   9  10
ATOM     10  C   UNK     1       2.231   4.421  20.936  0.00  0.00    +0.000 C 
BRANCH  10  11
ATOM     11  C   UNK     1       1.375   5.585  20.445  0.00  0.00    +0.000 C 
BRANCH  11  12
ATOM     12  C   UNK     1       2.241   6.756  19.991  0.00  0.00    +0.000 C 
BRANCH  12  13
ATOM     13  C   UNK     1       2.402   6.747  18.476  0.00  0.00    +0.000 C 
BRANCH  13  14
ATOM     14  C   UNK     1       2.684   8.154  17.961  0.00  0.00    +0.000 C 
BRANCH  14  15
ATOM     15  C   UNK     1       1.397   8.967  17.843  0.00  0.00    +0.000 C 
BRANCH  15  16
ATOM     16  C   UNK     1       1.260   9.929  19.018  0.00  0.00    +0.000 C 
BRANCH  16  18
ATOM     17  C   UNK     1      -0.073  12.041  18.782  0.00  0.00    +0.000 C 
ATOM     18  C   UNK     1      -0.132  10.549  19.060  0.00  0.00    +0.000 C 
ENDBRANCH  16  18
ENDBRANCH  15  16
ENDBRANCH  14  15
ENDBRANCH  13  14
ENDBRANCH  12  13
ENDBRANCH  11  12
ENDBRANCH  10  11
ENDBRANCH   9  10
ENDBRANCH   8   9
ENDBRANCH   6   8
ENDBRANCH   1   6
BRANCH   4  19
ATOM     19  C   UNK     1       5.349   5.362  15.302  0.00  0.00    +0.000 C 
BRANCH  19  20
ATOM     20  O   UNK     1       5.229   6.773  15.261  0.00  0.00    +0.000 OA
ATOM     21  H   UNK     1       5.841   7.100  14.577  0.00  0.00    +0.000 HD
ENDBRANCH  19  20
BRANCH  19  22
ATOM     22  C   UNK     1       6.664   4.977  14.599  0.00  0.00    +0.000 C 
BRANCH  22  23
ATOM     23  N   UNK     1       7.727   4.588  15.528  0.00  0.00    +0.000 NA
ATOM     24  H   UNK     1       8.157   5.417  15.940  0.00  0.00    +0.000 HD
ATOM     25  H   UNK     1       8.472   4.096  15.033  0.00  0.00    +0.000 HD
ENDBRANCH  22  23
BRANCH  22  26
ATOM     26  C   UNK     1       6.409   3.848  13.571  0.00  0.00    +0.000 C 
BRANCH  26  27
ATOM     27  O   UNK     1       5.039   3.766  13.220  0.00  0.00    +0.000 OA
ATOM     28  H   UNK     1       4.991   3.593  12.262  0.00  0.00    +0.000 HD
ENDBRANCH  26  27
ENDBRANCH  22  26
ENDBRANCH  19  22
ENDBRANCH   4  19
TORSDOF 17
ENDMDL
MODEL 5
REMARK VINA RESULT:      -5.7      5.859      8.179
REMARK  Name = 
REMARK  18 active torsions:
REMARK  status: ('A' for Active; 'I' for Inactive)
REMARK    1  A    between atoms: C_1  and  C_2
REMARK    2  A    between atoms: C_2  and  C_3
REMARK    3  A    between atoms: C_3  and  C_4
REMARK    4  A    between atoms: C_4  and  C_5
REMARK    5  A    between atoms: C_5  and  C_6
REMARK    6  A    between atoms: C_6  and  C_7
REMARK    7  A    between atoms: C_7  and  C_8
REMARK    8  A    between atoms: C_8  and  C_9
REMARK    9  A    between atoms: C_9  and  C_10
REMARK   10  A    between atoms: C_10  and  C_11
REMARK   11  A    between atoms: C_11  and  C_12
REMARK   12  A    between atoms: C_12  and  C_14
REMARK   13  A    between atoms: C_17  and  C_18
REMARK   14  A    between atoms: C_18  and  O_19
REMARK   15  A    between atoms: C_18  and  C_20
REMARK   16  A    between atoms: C_20  and  N_21
REMARK   17  A    between atoms: C_20  and  C_22
REMARK   18  A    between atoms: C_22  and  O_23
REMARK                            x       y       z     vdW  Elec       q    Type
REMARK                         _______ _______ _______ _____ _____    ______ ____
ROOT
ATOM      1  C   UNK     1       5.712   6.169  17.752  0.00  0.00    +0.000 A 
ATOM      2  C   UNK     1       4.558   6.598  17.121  0.00  0.00    +0.000 A 
ATOM      3  S   UNK     1       3.136   6.050  17.894  0.00  0.00    +0.000 S 
ATOM      4  C   UNK     1       4.027   5.199  19.082  0.00  0.00    +0.000 A 
ATOM      5  C   UNK     1       5.385   5.330  18.872  0.00  0.00    +0.000 A 
ENDROOT
BRANCH   1   6
ATOM      6  C   UNK     1       7.082   6.522  17.353  0.00  0.00    +0.000 C 
ATOM      7  O   UNK     1       7.518   6.175  16.260  0.00  0.00    +0.000 OA
BRANCH   6   8
ATOM      8  C   UNK     1       7.947   7.308  18.328  0.00  0.00    +0.000 C 
BRANCH   8   9
ATOM      9  C   UNK     1       8.131   8.741  17.845  0.00  0.00    +0.000 C 
BRANCH   9  10
ATOM     10  C   UNK     1       8.933   9.578  18.832  0.00  0.00    +0.000 C 
BRANCH  10  11
ATOM     11  C   UNK     1       9.482  10.817  18.131  0.00  0.00    +0.000 C 
BRANCH  11  12
ATOM     12  C   UNK     1      10.612  11.452  18.937  0.00  0.00    +0.000 C 
BRANCH  12  13
ATOM     13  C   UNK     1      10.348  12.937  19.149  0.00  0.00    +0.000 C 
BRANCH  13  14
ATOM     14  C   UNK     1      10.484  13.299  20.624  0.00  0.00    +0.000 C 
BRANCH  14  15
ATOM     15  C   UNK     1       9.706  12.324  21.504  0.00  0.00    +0.000 C 
BRANCH  15  16
ATOM     16  C   UNK     1       8.794  13.078  22.466  0.00  0.00    +0.000 C 
BRANCH  16  18
ATOM     17  C   UNK     1       7.970  15.447  22.447  0.00  0.00    +0.000 C 
ATOM     18  C   UNK     1       9.189  14.549  22.558  0.00  0.00    +0.000 C 
ENDBRANCH  16  18
ENDBRANCH  15  16
ENDBRANCH  14  15
ENDBRANCH  13  14
ENDBRANCH  12  13
ENDBRANCH  11  12
ENDBRANCH  10  11
ENDBRANCH   9  10
ENDBRANCH   8   9
ENDBRANCH   6   8
ENDBRANCH   1   6
BRANCH   4  19
ATOM     19  C   UNK     1       3.347   4.454  20.198  0.00  0.00    +0.000 C 
BRANCH  19  20
ATOM     20  O   UNK     1       2.635   5.406  20.968  0.00  0.00    +0.000 OA
ATOM     21  H   UNK     1       2.087   4.916  21.607  0.00  0.00    +0.000 HD
ENDBRANCH  19  20
BRANCH  19  22
ATOM     22  C   UNK     1       2.350   3.373  19.740  0.00  0.00    +0.000 C 
BRANCH  22  23
ATOM     23  N   UNK     1       2.953   2.352  18.881  0.00  0.00    +0.000 NA
ATOM     24  H   UNK     1       3.811   2.709  18.459  0.00  0.00    +0.000 HD
ATOM     25  H   UNK     1       2.329   2.122  18.108  0.00  0.00    +0.000 HD
ENDBRANCH  22  23
BRANCH  22  26
ATOM     26  C   UNK     1       1.680   2.713  20.970  0.00  0.00    +0.000 C 
BRANCH  26  27
ATOM     27  O   UNK     1       2.495   2.814  22.123  0.00  0.00    +0.000 OA
ATOM     28  H   UNK     1       3.034   3.621  22.033  0.00  0.00    +0.000 HD
ENDBRANCH  26  27
ENDBRANCH  22  26
ENDBRANCH  19  22
ENDBRANCH   4  19
TORSDOF 17
ENDMDL
MODEL 6
REMARK VINA RESULT:      -5.6      4.987      8.204
REMARK  Name = 
REMARK  18 active torsions:
REMARK  status: ('A' for Active; 'I' for Inactive)
REMARK    1  A    between atoms: C_1  and  C_2
REMARK    2  A    between atoms: C_2  and  C_3
REMARK    3  A    between atoms: C_3  and  C_4
REMARK    4  A    between atoms: C_4  and  C_5
REMARK    5  A    between atoms: C_5  and  C_6
REMARK    6  A    between atoms: C_6  and  C_7
REMARK    7  A    between atoms: C_7  and  C_8
REMARK    8  A    between atoms: C_8  and  C_9
REMARK    9  A    between atoms: C_9  and  C_10
REMARK   10  A    between atoms: C_10  and  C_11
REMARK   11  A    between atoms: C_11  and  C_12
REMARK   12  A    between atoms: C_12  and  C_14
REMARK   13  A    between atoms: C_17  and  C_18
REMARK   14  A    between atoms: C_18  and  O_19
REMARK   15  A    between atoms: C_18  and  C_20
REMARK   16  A    between atoms: C_20  and  N_21
REMARK   17  A    between atoms: C_20  and  C_22
REMARK   18  A    between atoms: C_22  and  O_23
REMARK                            x       y       z     vdW  Elec       q    Type
REMARK                         _______ _______ _______ _____ _____    ______ ____
ROOT
ATOM      1  C   UNK     1       0.908   9.738  19.209  0.00  0.00    +0.000 A 
ATOM      2  C   UNK     1       0.727   9.767  20.580  0.00  0.00    +0.000 A 
ATOM      3  S   UNK     1      -0.484  10.871  21.066  0.00  0.00    +0.000 S 
ATOM      4  C   UNK     1      -0.781  11.361  19.453  0.00  0.00    +0.000 A 
ATOM      5  C   UNK     1       0.046  10.694  18.572  0.00  0.00    +0.000 A 
ENDROOT
BRANCH   1   6
ATOM      6  C   UNK     1       1.839   8.854  18.493  0.00  0.00    +0.000 C 
ATOM      7  O   UNK     1       2.210   9.133  17.357  0.00  0.00    +0.000 OA
BRANCH   6   8
ATOM      8  C   UNK     1       2.314   7.583  19.183  0.00  0.00    +0.000 C 
BRANCH   8   9
ATOM      9  C   UNK     1       2.650   6.509  18.155  0.00  0.00    +0.000 C 
BRANCH   9  10
ATOM     10  C   UNK     1       4.140   6.202  18.115  0.00  0.00    +0.000 C 
BRANCH  10  11
ATOM     11  C   UNK     1       4.496   5.224  19.232  0.00  0.00    +0.000 C 
BRANCH  11  12
ATOM     12  C   UNK     1       5.234   4.006  18.686  0.00  0.00    +0.000 C 
BRANCH  12  13
ATOM     13  C   UNK     1       4.416   3.330  17.594  0.00  0.00    +0.000 C 
BRANCH  13  14
ATOM     14  C   UNK     1       3.319   2.466  18.205  0.00  0.00    +0.000 C 
BRANCH  14  15
ATOM     15  C   UNK     1       1.935   2.960  17.795  0.00  0.00    +0.000 C 
BRANCH  15  16
ATOM     16  C   UNK     1       0.882   2.507  18.801  0.00  0.00    +0.000 C 
BRANCH  16  18
ATOM     17  C   UNK     1       1.067   4.294  20.552  0.00  0.00    +0.000 C 
ATOM     18  C   UNK     1       1.311   2.831  20.229  0.00  0.00    +0.000 C 
ENDBRANCH  16  18
ENDBRANCH  15  16
ENDBRANCH  14  15
ENDBRANCH  13  14
ENDBRANCH  12  13
ENDBRANCH  11  12
ENDBRANCH  10  11
ENDBRANCH   9  10
ENDBRANCH   8   9
ENDBRANCH   6   8
ENDBRANCH   1   6
BRANCH   4  19
ATOM     19  C   UNK     1      -1.845  12.369  19.116  0.00  0.00    +0.000 C 
BRANCH  19  20
ATOM     20  O   UNK     1      -1.504  12.940  17.865  0.00  0.00    +0.000 OA
ATOM     21  H   UNK     1      -0.869  13.659  18.034  0.00  0.00    +0.000 HD
ENDBRANCH  19  20
BRANCH  19  22
ATOM     22  C   UNK     1      -3.269  11.794  19.003  0.00  0.00    +0.000 C 
BRANCH  22  23
ATOM     23  N   UNK     1      -4.316  12.770  19.311  0.00  0.00    +0.000 NA
ATOM     24  H   UNK     1      -5.235  12.381  19.096  0.00  0.00    +0.000 HD
ATOM     25  H   UNK     1      -4.214  13.601  18.729  0.00  0.00    +0.000 HD
ENDBRANCH  22  23
BRANCH  22  26
ATOM     26  C   UNK     1      -3.491  11.196  17.593  0.00  0.00    +0.000 C 
BRANCH  26  27
ATOM     27  O   UNK     1      -3.438   9.780  17.615  0.00  0.00    +0.000 OA
ATOM     28  H   UNK     1      -2.689   9.505  17.056  0.00  0.00    +0.000 HD
ENDBRANCH  26  27
ENDBRANCH  22  26
ENDBRANCH  19  22
ENDBRANCH   4  19
TORSDOF 17
ENDMDL
MODEL 7
REMARK VINA RESULT:      -5.6      1.051      1.698
REMARK  Name = 
REMARK  18 active torsions:
REMARK  status: ('A' for Active; 'I' for Inactive)
REMARK    1  A    between atoms: C_1  and  C_2
REMARK    2  A    between atoms: C_2  and  C_3
REMARK    3  A    between atoms: C_3  and  C_4
REMARK    4  A    between atoms: C_4  and  C_5
REMARK    5  A    between atoms: C_5  and  C_6
REMARK    6  A    between atoms: C_6  and  C_7
REMARK    7  A    between atoms: C_7  and  C_8
REMARK    8  A    between atoms: C_8  and  C_9
REMARK    9  A    between atoms: C_9  and  C_10
REMARK   10  A    between atoms: C_10  and  C_11
REMARK   11  A    between atoms: C_11  and  C_12
REMARK   12  A    between atoms: C_12  and  C_14
REMARK   13  A    between atoms: C_17  and  C_18
REMARK   14  A    between atoms: C_18  and  O_19
REMARK   15  A    between atoms: C_18  and  C_20
REMARK   16  A    between atoms: C_20  and  N_21
REMARK   17  A    between atoms: C_20  and  C_22
REMARK   18  A    between atoms: C_22  and  O_23
REMARK                            x       y       z     vdW  Elec       q    Type
REMARK                         _______ _______ _______ _____ _____    ______ ____
ROOT
ATOM      1  C   UNK     1       4.195   3.076  18.286  0.00  0.00    +0.000 A 
ATOM      2  C   UNK     1       5.096   3.664  19.154  0.00  0.00    +0.000 A 
ATOM      3  S   UNK     1       5.886   5.018  18.474  0.00  0.00    +0.000 S 
ATOM      4  C   UNK     1       5.061   4.837  16.985  0.00  0.00    +0.000 A 
ATOM      5  C   UNK     1       4.211   3.751  17.018  0.00  0.00    +0.000 A 
ENDROOT
BRANCH   1   6
ATOM      6  C   UNK     1       3.331   1.930  18.604  0.00  0.00    +0.000 C 
ATOM      7  O   UNK     1       3.787   0.791  18.611  0.00  0.00    +0.000 OA
BRANCH   6   8
ATOM      8  C   UNK     1       1.861   2.187  18.907  0.00  0.00    +0.000 C 
BRANCH   8   9
ATOM      9  C   UNK     1       1.532   3.667  18.747  0.00  0.00    +0.000 C 
BRANCH   9  10
ATOM     10  C   UNK     1       0.881   4.246  19.995  0.00  0.00    +0.000 C 
BRANCH  10  11
ATOM     11  C   UNK     1       1.957   4.716  20.968  0.00  0.00    +0.000 C 
BRANCH  11  12
ATOM     12  C   UNK     1       2.850   5.778  20.334  0.00  0.00    +0.000 C 
BRANCH  12  13
ATOM     13  C   UNK     1       2.007   6.880  19.706  0.00  0.00    +0.000 C 
BRANCH  13  14
ATOM     14  C   UNK     1       2.397   7.086  18.247  0.00  0.00    +0.000 C 
BRANCH  14  15
ATOM     15  C   UNK     1       2.562   8.568  17.924  0.00  0.00    +0.000 C 
BRANCH  15  16
ATOM     16  C   UNK     1       1.205   9.264  17.888  0.00  0.00    +0.000 C 
BRANCH  16  18
ATOM     17  C   UNK     1       0.600  10.252  20.113  0.00  0.00    +0.000 C 
ATOM     18  C   UNK     1       1.210  10.523  18.749  0.00  0.00    +0.000 C 
ENDBRANCH  16  18
ENDBRANCH  15  16
ENDBRANCH  14  15
ENDBRANCH  13  14
ENDBRANCH  12  13
ENDBRANCH  11  12
ENDBRANCH  10  11
ENDBRANCH   9  10
ENDBRANCH   8   9
ENDBRANCH   6   8
ENDBRANCH   1   6
BRANCH   4  19
ATOM     19  C   UNK     1       5.267   5.797  15.845  0.00  0.00    +0.000 C 
BRANCH  19  20
ATOM     20  O   UNK     1       5.806   6.989  16.390  0.00  0.00    +0.000 OA
ATOM     21  H   UNK     1       6.425   6.735  17.097  0.00  0.00    +0.000 HD
ENDBRANCH  19  20
BRANCH  19  22
ATOM     22  C   UNK     1       6.225   5.302  14.747  0.00  0.00    +0.000 C 
BRANCH  22  23
ATOM     23  N   UNK     1       7.483   4.766  15.271  0.00  0.00    +0.000 NA
ATOM     24  H   UNK     1       7.298   3.979  15.894  0.00  0.00    +0.000 HD
ATOM     25  H   UNK     1       7.965   5.469  15.832  0.00  0.00    +0.000 HD
ENDBRANCH  22  23
BRANCH  22  26
ATOM     26  C   UNK     1       5.519   4.247  13.861  0.00  0.00    +0.000 C 
BRANCH  26  27
ATOM     27  O   UNK     1       6.359   3.135  13.608  0.00  0.00    +0.000 OA
ATOM     28  H   UNK     1       6.413   2.614  14.430  0.00  0.00    +0.000 HD
ENDBRANCH  26  27
ENDBRANCH  22  26
ENDBRANCH  19  22
ENDBRANCH   4  19
TORSDOF 17
ENDMDL
MODEL 8
REMARK VINA RESULT:      -5.6      2.241      3.360
REMARK  Name = 
REMARK  18 active torsions:
REMARK  status: ('A' for Active; 'I' for Inactive)
REMARK    1  A    between atoms: C_1  and  C_2
REMARK    2  A    between atoms: C_2  and  C_3
REMARK    3  A    between atoms: C_3  and  C_4
REMARK    4  A    between atoms: C_4  and  C_5
REMARK    5  A    between atoms: C_5  and  C_6
REMARK    6  A    between atoms: C_6  and  C_7
REMARK    7  A    between atoms: C_7  and  C_8
REMARK    8  A    between atoms: C_8  and  C_9
REMARK    9  A    between atoms: C_9  and  C_10
REMARK   10  A    between atoms: C_10  and  C_11
REMARK   11  A    between atoms: C_11  and  C_12
REMARK   12  A    between atoms: C_12  and  C_14
REMARK   13  A    between atoms: C_17  and  C_18
REMARK   14  A    between atoms: C_18  and  O_19
REMARK   15  A    between atoms: C_18  and  C_20
REMARK   16  A    between atoms: C_20  and  N_21
REMARK   17  A    between atoms: C_20  and  C_22
REMARK   18  A    between atoms: C_22  and  O_23
REMARK                            x       y       z     vdW  Elec       q    Type
REMARK                         _______ _______ _______ _____ _____    ______ ____
ROOT
ATOM      1  C   UNK     1       3.787   3.776  17.794  0.00  0.00    +0.000 A 
ATOM      2  C   UNK     1       3.365   5.027  17.382  0.00  0.00    +0.000 A 
ATOM      3  S   UNK     1       4.662   6.076  17.010  0.00  0.00    +0.000 S 
ATOM      4  C   UNK     1       5.827   4.890  17.417  0.00  0.00    +0.000 A 
ATOM      5  C   UNK     1       5.222   3.724  17.839  0.00  0.00    +0.000 A 
ENDROOT
BRANCH   1   6
ATOM      6  C   UNK     1       2.906   2.648  18.130  0.00  0.00    +0.000 C 
ATOM      7  O   UNK     1       2.042   2.280  17.340  0.00  0.00    +0.000 OA
BRANCH   6   8
ATOM      8  C   UNK     1       3.078   1.965  19.479  0.00  0.00    +0.000 C 
BRANCH   8   9
ATOM      9  C   UNK     1       2.754   2.930  20.613  0.00  0.00    +0.000 C 
BRANCH   9  10
ATOM     10  C   UNK     1       1.258   3.184  20.739  0.00  0.00    +0.000 C 
BRANCH  10  11
ATOM     11  C   UNK     1       0.980   4.682  20.662  0.00  0.00    +0.000 C 
BRANCH  11  12
ATOM     12  C   UNK     1       2.274   5.488  20.729  0.00  0.00    +0.000 C 
BRANCH  12  13
ATOM     13  C   UNK     1       2.057   6.893  20.183  0.00  0.00    +0.000 C 
BRANCH  13  14
ATOM     14  C   UNK     1       1.175   7.703  21.127  0.00  0.00    +0.000 C 
BRANCH  14  15
ATOM     15  C   UNK     1       1.102   9.165  20.695  0.00  0.00    +0.000 C 
BRANCH  15  16
ATOM     16  C   UNK     1      -0.349   9.607  20.536  0.00  0.00    +0.000 C 
BRANCH  16  18
ATOM     17  C   UNK     1       0.721  10.375  18.403  0.00  0.00    +0.000 C 
ATOM     18  C   UNK     1      -0.557  10.351  19.221  0.00  0.00    +0.000 C 
ENDBRANCH  16  18
ENDBRANCH  15  16
ENDBRANCH  14  15
ENDBRANCH  13  14
ENDBRANCH  12  13
ENDBRANCH  11  12
ENDBRANCH  10  11
ENDBRANCH   9  10
ENDBRANCH   8   9
ENDBRANCH   6   8
ENDBRANCH   1   6
BRANCH   4  19
ATOM     19  C   UNK     1       7.302   5.150  17.276  0.00  0.00    +0.000 C 
BRANCH  19  20
ATOM     20  O   UNK     1       7.501   5.781  16.023  0.00  0.00    +0.000 OA
ATOM     21  H   UNK     1       7.565   5.082  15.349  0.00  0.00    +0.000 HD
ENDBRANCH  19  20
BRANCH  19  22
ATOM     22  C   UNK     1       7.907   6.056  18.365  0.00  0.00    +0.000 C 
BRANCH  22  23
ATOM     23  N   UNK     1       7.836   7.482  18.040  0.00  0.00    +0.000 NA
ATOM     24  H   UNK     1       7.715   7.609  17.034  0.00  0.00    +0.000 HD
ATOM     25  H   UNK     1       8.710   7.948  18.283  0.00  0.00    +0.000 HD
ENDBRANCH  22  23
BRANCH  22  26
ATOM     26  C   UNK     1       7.223   5.781  19.726  0.00  0.00    +0.000 C 
BRANCH  26  27
ATOM     27  O   UNK     1       8.166   5.405  20.714  0.00  0.00    +0.000 OA
ATOM     28  H   UNK     1       7.922   5.858  21.541  0.00  0.00    +0.000 HD
ENDBRANCH  26  27
ENDBRANCH  22  26
ENDBRANCH  19  22
ENDBRANCH   4  19
TORSDOF 17
ENDMDL
MODEL 9
REMARK VINA RESULT:      -5.6      5.574      7.609
REMARK  Name = 
REMARK  18 active torsions:
REMARK  status: ('A' for Active; 'I' for Inactive)
REMARK    1  A    between atoms: C_1  and  C_2
REMARK    2  A    between atoms: C_2  and  C_3
REMARK    3  A    between atoms: C_3  and  C_4
REMARK    4  A    between atoms: C_4  and  C_5
REMARK    5  A    between atoms: C_5  and  C_6
REMARK    6  A    between atoms: C_6  and  C_7
REMARK    7  A    between atoms: C_7  and  C_8
REMARK    8  A    between atoms: C_8  and  C_9
REMARK    9  A    between atoms: C_9  and  C_10
REMARK   10  A    between atoms: C_10  and  C_11
REMARK   11  A    between atoms: C_11  and  C_12
REMARK   12  A    between atoms: C_12  and  C_14
REMARK   13  A    between atoms: C_17  and  C_18
REMARK   14  A    between atoms: C_18  and  O_19
REMARK   15  A    between atoms: C_18  and  C_20
REMARK   16  A    between atoms: C_20  and  N_21
REMARK   17  A    between atoms: C_20  and  C_22
REMARK   18  A    between atoms: C_22  and  O_23
REMARK                            x       y       z     vdW  Elec       q    Type
REMARK                         _______ _______ _______ _____ _____    ______ ____
ROOT
ATOM      1  C   UNK     1       5.028   5.061  17.281  0.00  0.00    +0.000 A 
ATOM      2  C   UNK     1       4.468   6.282  17.611  0.00  0.00    +0.000 A 
ATOM      3  S   UNK     1       2.844   6.150  18.127  0.00  0.00    +0.000 S 
ATOM      4  C   UNK     1       2.837   4.454  17.896  0.00  0.00    +0.000 A 
ATOM      5  C   UNK     1       4.055   4.013  17.422  0.00  0.00    +0.000 A 
ENDROOT
BRANCH   1   6
ATOM      6  C   UNK     1       6.419   4.850  16.856  0.00  0.00    +0.000 C 
ATOM      7  O   UNK     1       6.674   4.554  15.693  0.00  0.00    +0.000 OA
BRANCH   6   8
ATOM      8  C   UNK     1       7.527   4.988  17.891  0.00  0.00    +0.000 C 
BRANCH   8   9
ATOM      9  C   UNK     1       7.595   6.418  18.413  0.00  0.00    +0.000 C 
BRANCH   9  10
ATOM     10  C   UNK     1       7.847   7.423  17.298  0.00  0.00    +0.000 C 
BRANCH  10  11
ATOM     11  C   UNK     1       7.656   8.841  17.828  0.00  0.00    +0.000 C 
BRANCH  11  12
ATOM     12  C   UNK     1       8.826   9.263  18.711  0.00  0.00    +0.000 C 
BRANCH  12  13
ATOM     13  C   UNK     1       9.401  10.592  18.238  0.00  0.00    +0.000 C 
BRANCH  13  14
ATOM     14  C   UNK     1      10.067  11.328  19.395  0.00  0.00    +0.000 C 
BRANCH  14  15
ATOM     15  C   UNK     1      10.788  12.582  18.908  0.00  0.00    +0.000 C 
BRANCH  15  16
ATOM     16  C   UNK     1      10.501  12.827  17.430  0.00  0.00    +0.000 C 
BRANCH  16  18
ATOM     17  C   UNK     1      11.403  15.167  17.452  0.00  0.00    +0.000 C 
ATOM     18  C   UNK     1      11.518  13.789  16.825  0.00  0.00    +0.000 C 
ENDBRANCH  16  18
ENDBRANCH  15  16
ENDBRANCH  14  15
ENDBRANCH  13  14
ENDBRANCH  12  13
ENDBRANCH  11  12
ENDBRANCH  10  11
ENDBRANCH   9  10
ENDBRANCH   8   9
ENDBRANCH   6   8
ENDBRANCH   1   6
BRANCH   4  19
ATOM     19  C   UNK     1       1.630   3.617  18.222  0.00  0.00    +0.000 C 
BRANCH  19  20
ATOM     20  O   UNK     1       1.910   2.293  17.805  0.00  0.00    +0.000 OA
ATOM     21  H   UNK     1       2.239   2.336  16.889  0.00  0.00    +0.000 HD
ENDBRANCH  19  20
BRANCH  19  22
ATOM     22  C   UNK     1       1.256   3.575  19.715  0.00  0.00    +0.000 C 
BRANCH  22  23
ATOM     23  N   UNK     1       0.180   2.629  20.018  0.00  0.00    +0.000 NA
ATOM     24  H   UNK     1       0.328   2.211  20.938  0.00  0.00    +0.000 HD
ATOM     25  H   UNK     1       0.184   1.858  19.350  0.00  0.00    +0.000 HD
ENDBRANCH  22  23
BRANCH  22  26
ATOM     26  C   UNK     1       2.507   3.258  20.569  0.00  0.00    +0.000 C 
BRANCH  26  27
ATOM     27  O   UNK     1       2.178   3.114  21.939  0.00  0.00    +0.000 OA
ATOM     28  H   UNK     1       2.220   3.998  22.346  0.00  0.00    +0.000 HD
ENDBRANCH  26  27
ENDBRANCH  22  26
ENDBRANCH  19  22
ENDBRANCH   4  19
TORSDOF 17
ENDMDL
