MODEL 1
REMARK VINA RESULT:      -7.3      0.000      0.000
REMARK  Name = 
REMARK  9 active torsions:
REMARK  status: ('A' for Active; 'I' for Inactive)
REMARK    1  A    between atoms: C_1  and  C_2
REMARK    2  A    between atoms: C_2  and  N_3
REMARK    3  A    between atoms: C_2  and  C_19
REMARK    4  A    between atoms: C_4  and  C_6
REMARK    5  A    between atoms: C_9  and  O_10
REMARK    6  A    between atoms: O_10  and  C_11
REMARK    7  A    between atoms: C_11  and  C_12
REMARK    8  A    between atoms: C_14  and  C_15
REMARK    9  A    between atoms: C_15  and  N_16
REMARK                            x       y       z     vdW  Elec       q    Type
REMARK                         _______ _______ _______ _____ _____    ______ ____
ROOT
ATOM      1  C   UNL     1       5.718   5.019  17.073  0.00  0.00    +0.000 A 
ATOM      2  C   UNL     1       6.165   5.167  18.393  0.00  0.00    +0.000 A 
ATOM      3  C   UNL     1       5.251   5.397  19.424  0.00  0.00    +0.000 A 
ATOM      4  C   UNL     1       3.890   5.518  19.147  0.00  0.00    +0.000 A 
ATOM      5  C   UNL     1       3.446   5.413  17.827  0.00  0.00    +0.000 A 
ATOM      6  C   UNL     1       4.356   5.169  16.790  0.00  0.00    +0.000 A 
ENDROOT
BRANCH   1   8
ATOM      7  N   UNL     1       6.295   4.770  14.714  0.00  0.00    +0.000 N 
ATOM      8  C   UNL     1       6.715   4.679  16.022  0.00  0.00    +0.000 C 
ATOM      9  O   UNL     1       7.836   4.287  16.345  0.00  0.00    +0.000 OA
ATOM     10  H   UNL     1       5.329   4.982  14.508  0.00  0.00    +0.000 HD
BRANCH   7  12
ATOM     11  C   UNL     1       7.789   5.577  12.931  0.00  0.00    +0.000 C 
ATOM     12  C   UNL     1       7.147   4.363  13.607  0.00  0.00    +0.000 C 
BRANCH  12  13
ATOM     13  C   UNL     1       6.360   3.532  12.607  0.00  0.00    +0.000 A 
ATOM     14  C   UNL     1       5.013   3.830  12.350  0.00  0.00    +0.000 A 
ATOM     15  C   UNL     1       4.268   3.049  11.464  0.00  0.00    +0.000 A 
ATOM     16  C   UNL     1       4.863   1.973  10.811  0.00  0.00    +0.000 A 
ATOM     17  C   UNL     1       6.205   1.676  11.040  0.00  0.00    +0.000 A 
ATOM     18  C   UNL     1       6.948   2.449  11.934  0.00  0.00    +0.000 A 
ENDBRANCH  12  13
ENDBRANCH   7  12
ENDBRANCH   1   8
BRANCH   4  19
ATOM     19  O   UNL     1       3.085   5.683  20.244  0.00  0.00    +0.000 OA
BRANCH  19  20
ATOM     20  C   UNL     1       1.821   5.027  20.162  0.00  0.00    +0.000 C 
BRANCH  20  21
ATOM     21  C   UNL     1       1.875   3.674  20.814  0.00  0.00    +0.000 C 
ATOM     22  F   UNL     1       2.216   3.576  22.121  0.00  0.00    +0.000 F 
ATOM     23  C   UNL     1       1.588   2.535  20.161  0.00  0.00    +0.000 C 
BRANCH  23  24
ATOM     24  C   UNL     1       1.231   2.456  18.713  0.00  0.00    +0.000 C 
BRANCH  24  25
ATOM     25  N   UNL     1       2.290   1.796  17.974  0.00  0.00    +0.000 NA
ATOM     26  H   UNL     1       1.883   1.139  17.310  0.00  0.00    +0.000 HD
ATOM     27  H   UNL     1       2.852   1.237  18.614  0.00  0.00    +0.000 HD
ENDBRANCH  24  25
ENDBRANCH  23  24
ENDBRANCH  20  21
ENDBRANCH  19  20
ENDBRANCH   4  19
TORSDOF 8
ENDMDL
MODEL 2
REMARK VINA RESULT:      -7.2      5.144      8.267
REMARK  Name = 
REMARK  9 active torsions:
REMARK  status: ('A' for Active; 'I' for Inactive)
REMARK    1  A    between atoms: C_1  and  C_2
REMARK    2  A    between atoms: C_2  and  N_3
REMARK    3  A    between atoms: C_2  and  C_19
REMARK    4  A    between atoms: C_4  and  C_6
REMARK    5  A    between atoms: C_9  and  O_10
REMARK    6  A    between atoms: O_10  and  C_11
REMARK    7  A    between atoms: C_11  and  C_12
REMARK    8  A    between atoms: C_14  and  C_15
REMARK    9  A    between atoms: C_15  and  N_16
REMARK                            x       y       z     vdW  Elec       q    Type
REMARK                         _______ _______ _______ _____ _____    ______ ____
ROOT
ATOM      1  C   UNL     1       2.408   8.159  18.525  0.00  0.00    +0.000 A 
ATOM      2  C   UNL     1       3.276   7.684  17.533  0.00  0.00    +0.000 A 
ATOM      3  C   UNL     1       3.769   6.378  17.596  0.00  0.00    +0.000 A 
ATOM      4  C   UNL     1       3.431   5.546  18.662  0.00  0.00    +0.000 A 
ATOM      5  C   UNL     1       2.598   6.032  19.674  0.00  0.00    +0.000 A 
ATOM      6  C   UNL     1       2.091   7.336  19.611  0.00  0.00    +0.000 A 
ENDROOT
BRANCH   1   8
ATOM      7  N   UNL     1       0.776   9.850  19.189  0.00  0.00    +0.000 N 
ATOM      8  C   UNL     1       1.832   9.523  18.367  0.00  0.00    +0.000 C 
ATOM      9  O   UNL     1       2.268  10.275  17.497  0.00  0.00    +0.000 OA
ATOM     10  H   UNL     1       0.380   9.153  19.803  0.00  0.00    +0.000 HD
BRANCH   7  12
ATOM     11  C   UNL     1      -0.050  11.826  20.404  0.00  0.00    +0.000 C 
ATOM     12  C   UNL     1       0.065  11.112  19.054  0.00  0.00    +0.000 C 
BRANCH  12  13
ATOM     13  C   UNL     1      -1.304  10.890  18.435  0.00  0.00    +0.000 A 
ATOM     14  C   UNL     1      -1.469   9.936  17.418  0.00  0.00    +0.000 A 
ATOM     15  C   UNL     1      -2.714   9.750  16.812  0.00  0.00    +0.000 A 
ATOM     16  C   UNL     1      -3.811  10.501  17.226  0.00  0.00    +0.000 A 
ATOM     17  C   UNL     1      -3.668  11.437  18.247  0.00  0.00    +0.000 A 
ATOM     18  C   UNL     1      -2.422  11.632  18.846  0.00  0.00    +0.000 A 
ENDBRANCH  12  13
ENDBRANCH   7  12
ENDBRANCH   1   8
BRANCH   4  19
ATOM     19  O   UNL     1       3.924   4.270  18.584  0.00  0.00    +0.000 OA
BRANCH  19  20
ATOM     20  C   UNL     1       3.257   3.428  17.645  0.00  0.00    +0.000 C 
BRANCH  20  21
ATOM     21  C   UNL     1       2.949   2.088  18.251  0.00  0.00    +0.000 C 
ATOM     22  F   UNL     1       3.831   1.071  18.108  0.00  0.00    +0.000 F 
ATOM     23  C   UNL     1       1.827   1.841  18.949  0.00  0.00    +0.000 C 
BRANCH  23  24
ATOM     24  C   UNL     1       0.733   2.834  19.172  0.00  0.00    +0.000 C 
BRANCH  24  25
ATOM     25  N   UNL     1       0.624   3.145  20.584  0.00  0.00    +0.000 NA
ATOM     26  H   UNL     1       0.822   4.134  20.731  0.00  0.00    +0.000 HD
ATOM     27  H   UNL     1       1.339   2.635  21.100  0.00  0.00    +0.000 HD
ENDBRANCH  24  25
ENDBRANCH  23  24
ENDBRANCH  20  21
ENDBRANCH  19  20
ENDBRANCH   4  19
TORSDOF 8
ENDMDL
MODEL 3
REMARK VINA RESULT:      -7.2      3.499      8.261
REMARK  Name = 
REMARK  9 active torsions:
REMARK  status: ('A' for Active; 'I' for Inactive)
REMARK    1  A    between atoms: C_1  and  C_2
REMARK    2  A    between atoms: C_2  and  N_3
REMARK    3  A    between atoms: C_2  and  C_19
REMARK    4  A    between atoms: C_4  and  C_6
REMARK    5  A    between atoms: C_9  and  O_10
REMARK    6  A    between atoms: O_10  and  C_11
REMARK    7  A    between atoms: C_11  and  C_12
REMARK    8  A    between atoms: C_14  and  C_15
REMARK    9  A    between atoms: C_15  and  N_16
REMARK                            x       y       z     vdW  Elec       q    Type
REMARK                         _______ _______ _______ _____ _____    ______ ____
ROOT
ATOM      1  C   UNL     1       5.015   5.205  17.375  0.00  0.00    +0.000 A 
ATOM      2  C   UNL     1       5.087   6.289  16.492  0.00  0.00    +0.000 A 
ATOM      3  C   UNL     1       5.505   6.097  15.172  0.00  0.00    +0.000 A 
ATOM      4  C   UNL     1       5.889   4.831  14.732  0.00  0.00    +0.000 A 
ATOM      5  C   UNL     1       5.857   3.755  15.622  0.00  0.00    +0.000 A 
ATOM      6  C   UNL     1       5.427   3.939  16.943  0.00  0.00    +0.000 A 
ENDROOT
BRANCH   1   8
ATOM      7  N   UNL     1       3.151   5.815  18.829  0.00  0.00    +0.000 N 
ATOM      8  C   UNL     1       4.473   5.439  18.741  0.00  0.00    +0.000 C 
ATOM      9  O   UNL     1       5.214   5.344  19.719  0.00  0.00    +0.000 OA
ATOM     10  H   UNL     1       2.621   5.994  17.988  0.00  0.00    +0.000 HD
BRANCH   7  12
ATOM     11  C   UNL     1       1.542   5.104  20.552  0.00  0.00    +0.000 C 
ATOM     12  C   UNL     1       2.540   6.173  20.100  0.00  0.00    +0.000 C 
BRANCH  12  13
ATOM     13  C   UNL     1       1.877   7.537  20.008  0.00  0.00    +0.000 A 
ATOM     14  C   UNL     1       1.949   8.275  18.816  0.00  0.00    +0.000 A 
ATOM     15  C   UNL     1       1.378   9.547  18.732  0.00  0.00    +0.000 A 
ATOM     16  C   UNL     1       0.715  10.089  19.828  0.00  0.00    +0.000 A 
ATOM     17  C   UNL     1       0.617   9.361  21.012  0.00  0.00    +0.000 A 
ATOM     18  C   UNL     1       1.196   8.094  21.102  0.00  0.00    +0.000 A 
ENDBRANCH  12  13
ENDBRANCH   7  12
ENDBRANCH   1   8
BRANCH   4  19
ATOM     19  O   UNL     1       6.221   4.753  13.404  0.00  0.00    +0.000 OA
BRANCH  19  20
ATOM     20  C   UNL     1       6.456   3.430  12.924  0.00  0.00    +0.000 C 
BRANCH  20  21
ATOM     21  C   UNL     1       5.347   2.985  12.013  0.00  0.00    +0.000 C 
ATOM     22  F   UNL     1       4.185   3.679  11.988  0.00  0.00    +0.000 F 
ATOM     23  C   UNL     1       5.451   1.920  11.199  0.00  0.00    +0.000 C 
BRANCH  23  24
ATOM     24  C   UNL     1       6.643   1.024  11.127  0.00  0.00    +0.000 C 
BRANCH  24  25
ATOM     25  N   UNL     1       6.238  -0.358  11.300  0.00  0.00    +0.000 NA
ATOM     26  H   UNL     1       6.524  -0.901  10.485  0.00  0.00    +0.000 HD
ATOM     27  H   UNL     1       5.221  -0.412  11.331  0.00  0.00    +0.000 HD
ENDBRANCH  24  25
ENDBRANCH  23  24
ENDBRANCH  20  21
ENDBRANCH  19  20
ENDBRANCH   4  19
TORSDOF 8
ENDMDL
MODEL 4
REMARK VINA RESULT:      -7.2      0.224      1.409
REMARK  Name = 
REMARK  9 active torsions:
REMARK  status: ('A' for Active; 'I' for Inactive)
REMARK    1  A    between atoms: C_1  and  C_2
REMARK    2  A    between atoms: C_2  and  N_3
REMARK    3  A    between atoms: C_2  and  C_19
REMARK    4  A    between atoms: C_4  and  C_6
REMARK    5  A    between atoms: C_9  and  O_10
REMARK    6  A    between atoms: O_10  and  C_11
REMARK    7  A    between atoms: C_11  and  C_12
REMARK    8  A    between atoms: C_14  and  C_15
REMARK    9  A    between atoms: C_15  and  N_16
REMARK                            x       y       z     vdW  Elec       q    Type
REMARK                         _______ _______ _______ _____ _____    ______ ____
ROOT
ATOM      1  C   UNL     1       5.783   4.820  17.208  0.00  0.00    +0.000 A 
ATOM      2  C   UNL     1       4.414   4.927  16.931  0.00  0.00    +0.000 A 
ATOM      3  C   UNL     1       3.511   5.236  17.952  0.00  0.00    +0.000 A 
ATOM      4  C   UNL     1       3.958   5.405  19.262  0.00  0.00    +0.000 A 
ATOM      5  C   UNL     1       5.318   5.258  19.548  0.00  0.00    +0.000 A 
ATOM      6  C   UNL     1       6.229   4.962  18.526  0.00  0.00    +0.000 A 
ENDROOT
BRANCH   1   8
ATOM      7  N   UNL     1       6.163   4.515  14.815  0.00  0.00    +0.000 N 
ATOM      8  C   UNL     1       6.718   4.586  16.073  0.00  0.00    +0.000 C 
ATOM      9  O   UNL     1       7.917   4.416  16.293  0.00  0.00    +0.000 OA
ATOM     10  H   UNL     1       5.160   4.542  14.705  0.00  0.00    +0.000 HD
BRANCH   7  12
ATOM     11  C   UNL     1       7.577   5.445  13.026  0.00  0.00    +0.000 C 
ATOM     12  C   UNL     1       6.962   4.186  13.645  0.00  0.00    +0.000 C 
BRANCH  12  13
ATOM     13  C   UNL     1       6.129   3.427  12.626  0.00  0.00    +0.000 A 
ATOM     14  C   UNL     1       6.646   2.276  12.011  0.00  0.00    +0.000 A 
ATOM     15  C   UNL     1       5.906   1.593  11.044  0.00  0.00    +0.000 A 
ATOM     16  C   UNL     1       4.635   2.039  10.692  0.00  0.00    +0.000 A 
ATOM     17  C   UNL     1       4.098   3.168  11.308  0.00  0.00    +0.000 A 
ATOM     18  C   UNL     1       4.842   3.859  12.267  0.00  0.00    +0.000 A 
ENDBRANCH  12  13
ENDBRANCH   7  12
ENDBRANCH   1   8
BRANCH   4  19
ATOM     19  O   UNL     1       2.991   5.764  20.165  0.00  0.00    +0.000 OA
BRANCH  19  20
ATOM     20  C   UNL     1       1.762   5.052  20.038  0.00  0.00    +0.000 C 
BRANCH  20  21
ATOM     21  C   UNL     1       1.817   3.749  20.785  0.00  0.00    +0.000 C 
ATOM     22  F   UNL     1       2.202   3.739  22.083  0.00  0.00    +0.000 F 
ATOM     23  C   UNL     1       1.489   2.571  20.227  0.00  0.00    +0.000 C 
BRANCH  23  24
ATOM     24  C   UNL     1       1.080   2.395  18.801  0.00  0.00    +0.000 C 
BRANCH  24  25
ATOM     25  N   UNL     1       2.172   1.824  18.037  0.00  0.00    +0.000 NA
ATOM     26  H   UNL     1       2.487   2.496  17.339  0.00  0.00    +0.000 HD
ATOM     27  H   UNL     1       1.835   1.015  17.517  0.00  0.00    +0.000 HD
ENDBRANCH  24  25
ENDBRANCH  23  24
ENDBRANCH  20  21
ENDBRANCH  19  20
ENDBRANCH   4  19
TORSDOF 8
ENDMDL
MODEL 5
REMARK VINA RESULT:      -7.2      1.361      1.764
REMARK  Name = 
REMARK  9 active torsions:
REMARK  status: ('A' for Active; 'I' for Inactive)
REMARK    1  A    between atoms: C_1  and  C_2
REMARK    2  A    between atoms: C_2  and  N_3
REMARK    3  A    between atoms: C_2  and  C_19
REMARK    4  A    between atoms: C_4  and  C_6
REMARK    5  A    between atoms: C_9  and  O_10
REMARK    6  A    between atoms: O_10  and  C_11
REMARK    7  A    between atoms: C_11  and  C_12
REMARK    8  A    between atoms: C_14  and  C_15
REMARK    9  A    between atoms: C_15  and  N_16
REMARK                            x       y       z     vdW  Elec       q    Type
REMARK                         _______ _______ _______ _____ _____    ______ ____
ROOT
ATOM      1  C   UNL     1       5.783   4.959  17.208  0.00  0.00    +0.000 A 
ATOM      2  C   UNL     1       5.759   4.091  18.306  0.00  0.00    +0.000 A 
ATOM      3  C   UNL     1       4.823   4.272  19.327  0.00  0.00    +0.000 A 
ATOM      4  C   UNL     1       3.926   5.339  19.281  0.00  0.00    +0.000 A 
ATOM      5  C   UNL     1       3.975   6.231  18.207  0.00  0.00    +0.000 A 
ATOM      6  C   UNL     1       4.904   6.047  17.174  0.00  0.00    +0.000 A 
ENDROOT
BRANCH   1   8
ATOM      7  N   UNL     1       6.201   4.590  14.830  0.00  0.00    +0.000 N 
ATOM      8  C   UNL     1       6.733   4.671  16.098  0.00  0.00    +0.000 C 
ATOM      9  O   UNL     1       7.921   4.467  16.346  0.00  0.00    +0.000 OA
ATOM     10  H   UNL     1       5.201   4.647  14.698  0.00  0.00    +0.000 HD
BRANCH   7  12
ATOM     11  C   UNL     1       7.684   5.434  13.055  0.00  0.00    +0.000 C 
ATOM     12  C   UNL     1       7.012   4.210  13.684  0.00  0.00    +0.000 C 
BRANCH  12  13
ATOM     13  C   UNL     1       6.174   3.461  12.662  0.00  0.00    +0.000 A 
ATOM     14  C   UNL     1       6.708   2.349  11.993  0.00  0.00    +0.000 A 
ATOM     15  C   UNL     1       5.961   1.676  11.023  0.00  0.00    +0.000 A 
ATOM     16  C   UNL     1       4.669   2.095  10.721  0.00  0.00    +0.000 A 
ATOM     17  C   UNL     1       4.116   3.185  11.391  0.00  0.00    +0.000 A 
ATOM     18  C   UNL     1       4.865   3.865  12.353  0.00  0.00    +0.000 A 
ENDBRANCH  12  13
ENDBRANCH   7  12
ENDBRANCH   1   8
BRANCH   4  19
ATOM     19  O   UNL     1       3.017   5.380  20.306  0.00  0.00    +0.000 OA
BRANCH  19  20
ATOM     20  C   UNL     1       1.652   5.302  19.897  0.00  0.00    +0.000 C 
BRANCH  20  21
ATOM     21  C   UNL     1       1.346   3.955  19.305  0.00  0.00    +0.000 C 
ATOM     22  F   UNL     1       1.174   3.837  17.967  0.00  0.00    +0.000 F 
ATOM     23  C   UNL     1       1.241   2.837  20.044  0.00  0.00    +0.000 C 
BRANCH  23  24
ATOM     24  C   UNL     1       1.365   2.792  21.532  0.00  0.00    +0.000 C 
BRANCH  24  25
ATOM     25  N   UNL     1       2.737   2.511  21.909  0.00  0.00    +0.000 NA
ATOM     26  H   UNL     1       2.999   1.585  21.574  0.00  0.00    +0.000 HD
ATOM     27  H   UNL     1       2.808   2.473  22.924  0.00  0.00    +0.000 HD
ENDBRANCH  24  25
ENDBRANCH  23  24
ENDBRANCH  20  21
ENDBRANCH  19  20
ENDBRANCH   4  19
TORSDOF 8
ENDMDL
MODEL 6
REMARK VINA RESULT:      -7.1      1.381      1.499
REMARK  Name = 
REMARK  9 active torsions:
REMARK  status: ('A' for Active; 'I' for Inactive)
REMARK    1  A    between atoms: C_1  and  C_2
REMARK    2  A    between atoms: C_2  and  N_3
REMARK    3  A    between atoms: C_2  and  C_19
REMARK    4  A    between atoms: C_4  and  C_6
REMARK    5  A    between atoms: C_9  and  O_10
REMARK    6  A    between atoms: O_10  and  C_11
REMARK    7  A    between atoms: C_11  and  C_12
REMARK    8  A    between atoms: C_14  and  C_15
REMARK    9  A    between atoms: C_15  and  N_16
REMARK                            x       y       z     vdW  Elec       q    Type
REMARK                         _______ _______ _______ _____ _____    ______ ____
ROOT
ATOM      1  C   UNL     1       5.785   5.500  16.784  0.00  0.00    +0.000 A 
ATOM      2  C   UNL     1       5.619   4.777  17.973  0.00  0.00    +0.000 A 
ATOM      3  C   UNL     1       4.600   5.115  18.867  0.00  0.00    +0.000 A 
ATOM      4  C   UNL     1       3.760   6.196  18.603  0.00  0.00    +0.000 A 
ATOM      5  C   UNL     1       3.949   6.944  17.438  0.00  0.00    +0.000 A 
ATOM      6  C   UNL     1       4.962   6.602  16.532  0.00  0.00    +0.000 A 
ENDROOT
BRANCH   1   8
ATOM      7  N   UNL     1       6.511   5.149  14.480  0.00  0.00    +0.000 N 
ATOM      8  C   UNL     1       6.821   5.044  15.818  0.00  0.00    +0.000 C 
ATOM      9  O   UNL     1       7.871   4.554  16.231  0.00  0.00    +0.000 OA
ATOM     10  H   UNL     1       5.588   5.447  14.198  0.00  0.00    +0.000 HD
BRANCH   7  12
ATOM     11  C   UNL     1       8.017   5.784  12.638  0.00  0.00    +0.000 C 
ATOM     12  C   UNL     1       7.400   4.639  13.447  0.00  0.00    +0.000 C 
BRANCH  12  13
ATOM     13  C   UNL     1       6.664   3.665  12.543  0.00  0.00    +0.000 A 
ATOM     14  C   UNL     1       5.271   3.758  12.394  0.00  0.00    +0.000 A 
ATOM     15  C   UNL     1       4.578   2.844  11.598  0.00  0.00    +0.000 A 
ATOM     16  C   UNL     1       5.268   1.837  10.928  0.00  0.00    +0.000 A 
ATOM     17  C   UNL     1       6.653   1.743  11.049  0.00  0.00    +0.000 A 
ATOM     18  C   UNL     1       7.346   2.650  11.853  0.00  0.00    +0.000 A 
ENDBRANCH  12  13
ENDBRANCH   7  12
ENDBRANCH   1   8
BRANCH   4  19
ATOM     19  O   UNL     1       2.761   6.394  19.520  0.00  0.00    +0.000 OA
BRANCH  19  20
ATOM     20  C   UNL     1       2.488   5.272  20.358  0.00  0.00    +0.000 C 
BRANCH  20  21
ATOM     21  C   UNL     1       1.595   4.285  19.660  0.00  0.00    +0.000 C 
ATOM     22  F   UNL     1       1.233   4.506  18.374  0.00  0.00    +0.000 F 
ATOM     23  C   UNL     1       1.135   3.169  20.251  0.00  0.00    +0.000 C 
BRANCH  23  24
ATOM     24  C   UNL     1       1.405   2.791  21.671  0.00  0.00    +0.000 C 
BRANCH  24  25
ATOM     25  N   UNL     1       2.796   2.413  21.829  0.00  0.00    +0.000 NA
ATOM     26  H   UNL     1       2.967   2.139  22.796  0.00  0.00    +0.000 HD
ATOM     27  H   UNL     1       3.389   3.223  21.657  0.00  0.00    +0.000 HD
ENDBRANCH  24  25
ENDBRANCH  23  24
ENDBRANCH  20  21
ENDBRANCH  19  20
ENDBRANCH   4  19
TORSDOF 8
ENDMDL
MODEL 7
REMARK VINA RESULT:      -7.0      5.208      8.643
REMARK  Name = 
REMARK  9 active torsions:
REMARK  status: ('A' for Active; 'I' for Inactive)
REMARK    1  A    between atoms: C_1  and  C_2
REMARK    2  A    between atoms: C_2  and  N_3
REMARK    3  A    between atoms: C_2  and  C_19
REMARK    4  A    between atoms: C_4  and  C_6
REMARK    5  A    between atoms: C_9  and  O_10
REMARK    6  A    between atoms: O_10  and  C_11
REMARK    7  A    between atoms: C_11  and  C_12
REMARK    8  A    between atoms: C_14  and  C_15
REMARK    9  A    between atoms: C_15  and  N_16
REMARK                            x       y       z     vdW  Elec       q    Type
REMARK                         _______ _______ _______ _____ _____    ______ ____
ROOT
ATOM      1  C   UNL     1       2.255   8.263  18.517  0.00  0.00    +0.000 A 
ATOM      2  C   UNL     1       2.040   7.568  19.714  0.00  0.00    +0.000 A 
ATOM      3  C   UNL     1       2.634   6.320  19.921  0.00  0.00    +0.000 A 
ATOM      4  C   UNL     1       3.417   5.738  18.926  0.00  0.00    +0.000 A 
ATOM      5  C   UNL     1       3.599   6.409  17.715  0.00  0.00    +0.000 A 
ATOM      6  C   UNL     1       3.017   7.666  17.506  0.00  0.00    +0.000 A 
ENDROOT
BRANCH   1   8
ATOM      7  N   UNL     1       0.549   9.905  19.111  0.00  0.00    +0.000 N 
ATOM      8  C   UNL     1       1.683   9.630  18.379  0.00  0.00    +0.000 C 
ATOM      9  O   UNL     1       2.193  10.432  17.597  0.00  0.00    +0.000 OA
ATOM     10  H   UNL     1       0.103   9.173  19.644  0.00  0.00    +0.000 HD
BRANCH   7  12
ATOM     11  C   UNL     1      -0.328  11.852  20.337  0.00  0.00    +0.000 C 
ATOM     12  C   UNL     1      -0.159  11.169  18.977  0.00  0.00    +0.000 C 
BRANCH  12  13
ATOM     13  C   UNL     1      -1.501  10.959  18.298  0.00  0.00    +0.000 A 
ATOM     14  C   UNL     1      -2.616  11.716  18.694  0.00  0.00    +0.000 A 
ATOM     15  C   UNL     1      -3.865  11.504  18.106  0.00  0.00    +0.000 A 
ATOM     16  C   UNL     1      -4.013  10.548  17.106  0.00  0.00    +0.000 A 
ATOM     17  C   UNL     1      -2.912   9.802  16.687  0.00  0.00    +0.000 A 
ATOM     18  C   UNL     1      -1.665  10.005  17.281  0.00  0.00    +0.000 A 
ENDBRANCH  12  13
ENDBRANCH   7  12
ENDBRANCH   1   8
BRANCH   4  19
ATOM     19  O   UNL     1       3.996   4.542  19.265  0.00  0.00    +0.000 OA
BRANCH  19  20
ATOM     20  C   UNL     1       4.969   4.065  18.337  0.00  0.00    +0.000 C 
BRANCH  20  21
ATOM     21  C   UNL     1       6.277   4.782  18.515  0.00  0.00    +0.000 C 
ATOM     22  F   UNL     1       6.600   5.290  19.728  0.00  0.00    +0.000 F 
ATOM     23  C   UNL     1       7.165   4.941  17.519  0.00  0.00    +0.000 C 
BRANCH  23  24
ATOM     24  C   UNL     1       6.955   4.478  16.115  0.00  0.00    +0.000 C 
BRANCH  24  25
ATOM     25  N   UNL     1       7.594   5.392  15.188  0.00  0.00    +0.000 NA
ATOM     26  H   UNL     1       8.546   5.079  15.002  0.00  0.00    +0.000 HD
ATOM     27  H   UNL     1       7.679   6.310  15.622  0.00  0.00    +0.000 HD
ENDBRANCH  24  25
ENDBRANCH  23  24
ENDBRANCH  20  21
ENDBRANCH  19  20
ENDBRANCH   4  19
TORSDOF 8
ENDMDL
MODEL 8
REMARK VINA RESULT:      -7.0      5.283      8.750
REMARK  Name = 
REMARK  9 active torsions:
REMARK  status: ('A' for Active; 'I' for Inactive)
REMARK    1  A    between atoms: C_1  and  C_2
REMARK    2  A    between atoms: C_2  and  N_3
REMARK    3  A    between atoms: C_2  and  C_19
REMARK    4  A    between atoms: C_4  and  C_6
REMARK    5  A    between atoms: C_9  and  O_10
REMARK    6  A    between atoms: O_10  and  C_11
REMARK    7  A    between atoms: C_11  and  C_12
REMARK    8  A    between atoms: C_14  and  C_15
REMARK    9  A    between atoms: C_15  and  N_16
REMARK                            x       y       z     vdW  Elec       q    Type
REMARK                         _______ _______ _______ _____ _____    ______ ____
ROOT
ATOM      1  C   UNL     1       2.119   8.387  18.697  0.00  0.00    +0.000 A 
ATOM      2  C   UNL     1       1.907   7.573  19.817  0.00  0.00    +0.000 A 
ATOM      3  C   UNL     1       2.565   6.346  19.930  0.00  0.00    +0.000 A 
ATOM      4  C   UNL     1       3.411   5.902  18.915  0.00  0.00    +0.000 A 
ATOM      5  C   UNL     1       3.593   6.693  17.778  0.00  0.00    +0.000 A 
ATOM      6  C   UNL     1       2.946   7.931  17.664  0.00  0.00    +0.000 A 
ENDROOT
BRANCH   1   8
ATOM      7  N   UNL     1       0.225   9.830  19.235  0.00  0.00    +0.000 N 
ATOM      8  C   UNL     1       1.474   9.728  18.664  0.00  0.00    +0.000 C 
ATOM      9  O   UNL     1       2.036  10.665  18.098  0.00  0.00    +0.000 OA
ATOM     10  H   UNL     1      -0.241   9.004  19.579  0.00  0.00    +0.000 HD
BRANCH   7  12
ATOM     11  C   UNL     1      -0.998  11.504  20.565  0.00  0.00    +0.000 C 
ATOM     12  C   UNL     1      -0.547  11.062  19.169  0.00  0.00    +0.000 C 
BRANCH  12  13
ATOM     13  C   UNL     1      -1.735  10.898  18.237  0.00  0.00    +0.000 A 
ATOM     14  C   UNL     1      -1.663  10.004  17.157  0.00  0.00    +0.000 A 
ATOM     15  C   UNL     1      -2.734   9.874  16.269  0.00  0.00    +0.000 A 
ATOM     16  C   UNL     1      -3.893  10.621  16.458  0.00  0.00    +0.000 A 
ATOM     17  C   UNL     1      -3.988  11.498  17.536  0.00  0.00    +0.000 A 
ATOM     18  C   UNL     1      -2.915  11.638  18.419  0.00  0.00    +0.000 A 
ENDBRANCH  12  13
ENDBRANCH   7  12
ENDBRANCH   1   8
BRANCH   4  19
ATOM     19  O   UNL     1       4.046   4.713  19.164  0.00  0.00    +0.000 OA
BRANCH  19  20
ATOM     20  C   UNL     1       5.003   4.329  18.178  0.00  0.00    +0.000 C 
BRANCH  20  21
ATOM     21  C   UNL     1       6.359   4.891  18.498  0.00  0.00    +0.000 C 
ATOM     22  F   UNL     1       6.594   5.411  19.726  0.00  0.00    +0.000 F 
ATOM     23  C   UNL     1       7.375   4.897  17.618  0.00  0.00    +0.000 C 
BRANCH  23  24
ATOM     24  C   UNL     1       7.281   4.399  16.213  0.00  0.00    +0.000 C 
BRANCH  24  25
ATOM     25  N   UNL     1       7.426   5.502  15.283  0.00  0.00    +0.000 NA
ATOM     26  H   UNL     1       8.075   6.188  15.668  0.00  0.00    +0.000 HD
ATOM     27  H   UNL     1       6.533   5.983  15.186  0.00  0.00    +0.000 HD
ENDBRANCH  24  25
ENDBRANCH  23  24
ENDBRANCH  20  21
ENDBRANCH  19  20
ENDBRANCH   4  19
TORSDOF 8
ENDMDL
MODEL 9
REMARK VINA RESULT:      -7.0      4.762      8.808
REMARK  Name = 
REMARK  9 active torsions:
REMARK  status: ('A' for Active; 'I' for Inactive)
REMARK    1  A    between atoms: C_1  and  C_2
REMARK    2  A    between atoms: C_2  and  N_3
REMARK    3  A    between atoms: C_2  and  C_19
REMARK    4  A    between atoms: C_4  and  C_6
REMARK    5  A    between atoms: C_9  and  O_10
REMARK    6  A    between atoms: O_10  and  C_11
REMARK    7  A    between atoms: C_11  and  C_12
REMARK    8  A    between atoms: C_14  and  C_15
REMARK    9  A    between atoms: C_15  and  N_16
REMARK                            x       y       z     vdW  Elec       q    Type
REMARK                         _______ _______ _______ _____ _____    ______ ____
ROOT
ATOM      1  C   UNL     1       2.600   7.558  18.627  0.00  0.00    +0.000 A 
ATOM      2  C   UNL     1       3.545   7.224  17.648  0.00  0.00    +0.000 A 
ATOM      3  C   UNL     1       4.299   6.054  17.766  0.00  0.00    +0.000 A 
ATOM      4  C   UNL     1       4.144   5.224  18.875  0.00  0.00    +0.000 A 
ATOM      5  C   UNL     1       3.232   5.575  19.874  0.00  0.00    +0.000 A 
ATOM      6  C   UNL     1       2.465   6.741  19.755  0.00  0.00    +0.000 A 
ENDROOT
BRANCH   1   8
ATOM      7  N   UNL     1       1.395   9.478  19.532  0.00  0.00    +0.000 N 
ATOM      8  C   UNL     1       1.752   8.762  18.412  0.00  0.00    +0.000 C 
ATOM      9  O   UNL     1       1.365   9.044  17.278  0.00  0.00    +0.000 OA
ATOM     10  H   UNL     1       1.641   9.135  20.449  0.00  0.00    +0.000 HD
BRANCH   7  12
ATOM     11  C   UNL     1       1.226  11.888  19.055  0.00  0.00    +0.000 C 
ATOM     12  C   UNL     1       0.484  10.611  19.457  0.00  0.00    +0.000 C 
BRANCH  12  13
ATOM     13  C   UNL     1      -0.247  10.795  20.776  0.00  0.00    +0.000 A 
ATOM     14  C   UNL     1      -1.136  11.869  20.944  0.00  0.00    +0.000 A 
ATOM     15  C   UNL     1      -1.784  12.072  22.165  0.00  0.00    +0.000 A 
ATOM     16  C   UNL     1      -1.565  11.197  23.225  0.00  0.00    +0.000 A 
ATOM     17  C   UNL     1      -0.702  10.115  23.069  0.00  0.00    +0.000 A 
ATOM     18  C   UNL     1      -0.045   9.916  21.853  0.00  0.00    +0.000 A 
ENDBRANCH  12  13
ENDBRANCH   7  12
ENDBRANCH   1   8
BRANCH   4  19
ATOM     19  O   UNL     1       4.892   4.075  18.852  0.00  0.00    +0.000 OA
BRANCH  19  20
ATOM     20  C   UNL     1       4.328   2.981  19.572  0.00  0.00    +0.000 C 
BRANCH  20  21
ATOM     21  C   UNL     1       3.326   2.244  18.729  0.00  0.00    +0.000 C 
ATOM     22  F   UNL     1       3.692   1.774  17.514  0.00  0.00    +0.000 F 
ATOM     23  C   UNL     1       2.063   2.013  19.128  0.00  0.00    +0.000 C 
BRANCH  23  24
ATOM     24  C   UNL     1       1.482   2.491  20.419  0.00  0.00    +0.000 C 
BRANCH  24  25
ATOM     25  N   UNL     1       0.431   3.458  20.164  0.00  0.00    +0.000 NA
ATOM     26  H   UNL     1       0.127   3.870  21.045  0.00  0.00    +0.000 HD
ATOM     27  H   UNL     1      -0.382   2.980  19.780  0.00  0.00    +0.000 HD
ENDBRANCH  24  25
ENDBRANCH  23  24
ENDBRANCH  20  21
ENDBRANCH  19  20
ENDBRANCH   4  19
TORSDOF 8
ENDMDL
