MODEL 1
REMARK VINA RESULT:      -8.4      0.000      0.000
REMARK  Name = 
REMARK  8 active torsions:
REMARK  status: ('A' for Active; 'I' for Inactive)
REMARK    1  A    between atoms: C_1  and  C_2
REMARK    2  A    between atoms: C_2  and  C_3
REMARK    3  A    between atoms: C_2  and  N_17
REMARK    4  A    between atoms: C_3  and  C_4
REMARK    5  A    between atoms: C_4  and  N_5
REMARK    6  A    between atoms: N_5  and  C_6
REMARK    7  A    between atoms: C_6  and  C_7
REMARK    8  A    between atoms: N_17  and  C_18
REMARK                            x       y       z     vdW  Elec       q    Type
REMARK                         _______ _______ _______ _____ _____    ______ ____
ROOT
ATOM      1  C   UNL     1       1.813   5.265  18.263  0.00  0.00    +0.000 C 
ATOM      2  C   UNL     1       1.945   5.310  19.789  0.00  0.00    +0.000 C 
ENDROOT
BRANCH   2   3
ATOM      3  N   UNL     1       2.574   6.586  20.161  0.00  0.00    +0.000 N 
ATOM      4  H   UNL     1       3.585   6.519  20.175  0.00  0.00    +0.000 HD
BRANCH   3   5
ATOM      5  C   UNL     1       2.095   7.818  19.674  0.00  0.00    +0.000 A 
ATOM      6  C   UNL     1       2.220   8.158  18.324  0.00  0.00    +0.000 A 
ATOM      7  C   UNL     1       1.623   9.311  17.850  0.00  0.00    +0.000 A 
ATOM      8  N   UNL     1       0.861  10.123  18.600  0.00  0.00    +0.000 NA
ATOM      9  C   UNL     1       0.688   9.802  19.887  0.00  0.00    +0.000 A 
ATOM     10  C   UNL     1      -0.165  10.608  20.623  0.00  0.00    +0.000 A 
ATOM     11  C   UNL     1      -0.399  10.370  21.972  0.00  0.00    +0.000 A 
ATOM     12 CL   UNL     1      -1.512  11.357  22.838  0.00  0.00    +0.000 Cl
ATOM     13  C   UNL     1       0.256   9.337  22.622  0.00  0.00    +0.000 A 
ATOM     14  C   UNL     1       1.102   8.499  21.893  0.00  0.00    +0.000 A 
ATOM     15  C   UNL     1       1.308   8.682  20.501  0.00  0.00    +0.000 A 
ENDBRANCH   3   5
ENDBRANCH   2   3
BRANCH   2  16
ATOM     16  C   UNL     1       2.811   4.128  20.266  0.00  0.00    +0.000 C 
BRANCH  16  17
ATOM     17  C   UNL     1       2.806   2.909  19.333  0.00  0.00    +0.000 C 
BRANCH  17  18
ATOM     18  N   UNL     1       4.136   2.663  18.772  0.00  0.00    +0.000 NA
ATOM     19  H   UNL     1       4.072   2.642  17.757  0.00  0.00    +0.000 HD
BRANCH  18  20
ATOM     20  C   UNL     1       5.093   3.693  19.179  0.00  0.00    +0.000 C 
BRANCH  20  21
ATOM     21  C   UNL     1       5.596   4.546  17.987  0.00  0.00    +0.000 C 
ATOM     22  C   UNL     1       4.892   4.153  16.657  0.00  0.00    +0.000 C 
ATOM     23  C   UNL     1       5.368   5.045  15.502  0.00  0.00    +0.000 C 
ATOM     24  C   UNL     1       5.050   6.515  15.828  0.00  0.00    +0.000 C 
ATOM     25  C   UNL     1       5.770   6.931  17.120  0.00  0.00    +0.000 C 
ATOM     26  C   UNL     1       7.284   6.759  16.942  0.00  0.00    +0.000 C 
ATOM     27  C   UNL     1       7.613   5.290  16.627  0.00  0.00    +0.000 C 
ATOM     28  C   UNL     1       6.888   4.879  15.333  0.00  0.00    +0.000 C 
ATOM     29  C   UNL     1       7.129   4.398  17.786  0.00  0.00    +0.000 C 
ATOM     30  C   UNL     1       5.290   6.041  18.276  0.00  0.00    +0.000 C 
ENDBRANCH  20  21
ENDBRANCH  18  20
ENDBRANCH  17  18
ENDBRANCH  16  17
ENDBRANCH   2  16
TORSDOF 7
ENDMDL
MODEL 2
REMARK VINA RESULT:      -8.4      0.750      1.707
REMARK  Name = 
REMARK  8 active torsions:
REMARK  status: ('A' for Active; 'I' for Inactive)
REMARK    1  A    between atoms: C_1  and  C_2
REMARK    2  A    between atoms: C_2  and  C_3
REMARK    3  A    between atoms: C_2  and  N_17
REMARK    4  A    between atoms: C_3  and  C_4
REMARK    5  A    between atoms: C_4  and  N_5
REMARK    6  A    between atoms: N_5  and  C_6
REMARK    7  A    between atoms: C_6  and  C_7
REMARK    8  A    between atoms: N_17  and  C_18
REMARK                            x       y       z     vdW  Elec       q    Type
REMARK                         _______ _______ _______ _____ _____    ______ ____
ROOT
ATOM      1  C   UNL     1       1.266   4.936  19.110  0.00  0.00    +0.000 C 
ATOM      2  C   UNL     1       1.731   5.467  20.471  0.00  0.00    +0.000 C 
ENDROOT
BRANCH   2   3
ATOM      3  N   UNL     1       2.558   6.661  20.242  0.00  0.00    +0.000 N 
ATOM      4  H   UNL     1       3.454   6.427  19.831  0.00  0.00    +0.000 HD
BRANCH   3   5
ATOM      5  C   UNL     1       2.007   7.862  19.753  0.00  0.00    +0.000 A 
ATOM      6  C   UNL     1       2.049   8.173  18.391  0.00  0.00    +0.000 A 
ATOM      7  C   UNL     1       1.385   9.290  17.922  0.00  0.00    +0.000 A 
ATOM      8  N   UNL     1       0.631  10.092  18.693  0.00  0.00    +0.000 NA
ATOM      9  C   UNL     1       0.537   9.797  19.994  0.00  0.00    +0.000 A 
ATOM     10  C   UNL     1      -0.307  10.588  20.756  0.00  0.00    +0.000 A 
ATOM     11  C   UNL     1      -0.462  10.375  22.120  0.00  0.00    +0.000 A 
ATOM     12 CL   UNL     1      -1.566  11.341  23.021  0.00  0.00    +0.000 Cl
ATOM     13  C   UNL     1       0.265   9.384  22.758  0.00  0.00    +0.000 A 
ATOM     14  C   UNL     1       1.104   8.560  22.005  0.00  0.00    +0.000 A 
ATOM     15  C   UNL     1       1.231   8.716  20.600  0.00  0.00    +0.000 A 
ENDBRANCH   3   5
ENDBRANCH   2   3
BRANCH   2  16
ATOM     16  C   UNL     1       2.548   4.381  21.196  0.00  0.00    +0.000 C 
BRANCH  16  17
ATOM     17  C   UNL     1       2.904   3.162  20.335  0.00  0.00    +0.000 C 
BRANCH  17  18
ATOM     18  N   UNL     1       4.226   3.311  19.722  0.00  0.00    +0.000 NA
ATOM     19  H   UNL     1       4.863   2.632  20.131  0.00  0.00    +0.000 HD
BRANCH  18  20
ATOM     20  C   UNL     1       4.173   3.120  18.272  0.00  0.00    +0.000 C 
BRANCH  20  21
ATOM     21  C   UNL     1       4.990   4.187  17.499  0.00  0.00    +0.000 C 
ATOM     22  C   UNL     1       6.318   4.539  18.227  0.00  0.00    +0.000 C 
ATOM     23  C   UNL     1       7.132   5.557  17.418  0.00  0.00    +0.000 C 
ATOM     24  C   UNL     1       7.454   4.968  16.034  0.00  0.00    +0.000 C 
ATOM     25  C   UNL     1       6.152   4.651  15.284  0.00  0.00    +0.000 C 
ATOM     26  C   UNL     1       5.329   5.935  15.118  0.00  0.00    +0.000 C 
ATOM     27  C   UNL     1       4.992   6.526  16.498  0.00  0.00    +0.000 C 
ATOM     28  C   UNL     1       6.301   6.840  17.243  0.00  0.00    +0.000 C 
ATOM     29  C   UNL     1       4.179   5.498  17.308  0.00  0.00    +0.000 C 
ATOM     30  C   UNL     1       5.339   3.629  16.093  0.00  0.00    +0.000 C 
ENDBRANCH  20  21
ENDBRANCH  18  20
ENDBRANCH  17  18
ENDBRANCH  16  17
ENDBRANCH   2  16
TORSDOF 7
ENDMDL
MODEL 3
REMARK VINA RESULT:      -8.1      1.084      2.111
REMARK  Name = 
REMARK  8 active torsions:
REMARK  status: ('A' for Active; 'I' for Inactive)
REMARK    1  A    between atoms: C_1  and  C_2
REMARK    2  A    between atoms: C_2  and  C_3
REMARK    3  A    between atoms: C_2  and  N_17
REMARK    4  A    between atoms: C_3  and  C_4
REMARK    5  A    between atoms: C_4  and  N_5
REMARK    6  A    between atoms: N_5  and  C_6
REMARK    7  A    between atoms: C_6  and  C_7
REMARK    8  A    between atoms: N_17  and  C_18
REMARK                            x       y       z     vdW  Elec       q    Type
REMARK                         _______ _______ _______ _____ _____    ______ ____
ROOT
ATOM      1  C   UNL     1       2.282   3.705  21.653  0.00  0.00    +0.000 C 
ATOM      2  C   UNL     1       2.204   4.668  20.464  0.00  0.00    +0.000 C 
ENDROOT
BRANCH   2   3
ATOM      3  N   UNL     1       1.985   6.026  20.982  0.00  0.00    +0.000 N 
ATOM      4  H   UNL     1       2.455   6.174  21.867  0.00  0.00    +0.000 HD
BRANCH   3   5
ATOM      5  C   UNL     1       2.000   7.153  20.138  0.00  0.00    +0.000 A 
ATOM      6  C   UNL     1       2.613   7.106  18.882  0.00  0.00    +0.000 A 
ATOM      7  C   UNL     1       2.497   8.181  18.022  0.00  0.00    +0.000 A 
ATOM      8  N   UNL     1       1.769   9.277  18.287  0.00  0.00    +0.000 NA
ATOM      9  C   UNL     1       1.136   9.335  19.464  0.00  0.00    +0.000 A 
ATOM     10  C   UNL     1       0.327  10.439  19.686  0.00  0.00    +0.000 A 
ATOM     11  C   UNL     1      -0.360  10.602  20.883  0.00  0.00    +0.000 A 
ATOM     12 CL   UNL     1      -1.402  11.955  21.097  0.00  0.00    +0.000 Cl
ATOM     13  C   UNL     1      -0.215   9.676  21.903  0.00  0.00    +0.000 A 
ATOM     14  C   UNL     1       0.577   8.545  21.690  0.00  0.00    +0.000 A 
ATOM     15  C   UNL     1       1.239   8.323  20.455  0.00  0.00    +0.000 A 
ENDBRANCH   3   5
ENDBRANCH   2   3
BRANCH   2  16
ATOM     16  C   UNL     1       1.041   4.254  19.541  0.00  0.00    +0.000 C 
BRANCH  16  17
ATOM     17  C   UNL     1       1.470   3.591  18.225  0.00  0.00    +0.000 C 
BRANCH  17  18
ATOM     18  N   UNL     1       2.871   3.167  18.274  0.00  0.00    +0.000 NA
ATOM     19  H   UNL     1       2.916   2.200  18.584  0.00  0.00    +0.000 HD
BRANCH  18  20
ATOM     20  C   UNL     1       3.518   3.292  16.967  0.00  0.00    +0.000 C 
BRANCH  20  21
ATOM     21  C   UNL     1       4.784   4.187  17.011  0.00  0.00    +0.000 C 
ATOM     22  C   UNL     1       5.350   4.318  18.454  0.00  0.00    +0.000 C 
ATOM     23  C   UNL     1       6.630   5.164  18.464  0.00  0.00    +0.000 C 
ATOM     24  C   UNL     1       7.687   4.501  17.563  0.00  0.00    +0.000 C 
ATOM     25  C   UNL     1       7.159   4.399  16.124  0.00  0.00    +0.000 C 
ATOM     26  C   UNL     1       6.838   5.803  15.595  0.00  0.00    +0.000 C 
ATOM     27  C   UNL     1       5.773   6.470  16.483  0.00  0.00    +0.000 C 
ATOM     28  C   UNL     1       6.309   6.567  17.922  0.00  0.00    +0.000 C 
ATOM     29  C   UNL     1       4.492   5.614  16.473  0.00  0.00    +0.000 C 
ATOM     30  C   UNL     1       5.879   3.549  16.114  0.00  0.00    +0.000 C 
ENDBRANCH  20  21
ENDBRANCH  18  20
ENDBRANCH  17  18
ENDBRANCH  16  17
ENDBRANCH   2  16
TORSDOF 7
ENDMDL
MODEL 4
REMARK VINA RESULT:      -8.1      2.806      4.980
REMARK  Name = 
REMARK  8 active torsions:
REMARK  status: ('A' for Active; 'I' for Inactive)
REMARK    1  A    between atoms: C_1  and  C_2
REMARK    2  A    between atoms: C_2  and  C_3
REMARK    3  A    between atoms: C_2  and  N_17
REMARK    4  A    between atoms: C_3  and  C_4
REMARK    5  A    between atoms: C_4  and  N_5
REMARK    6  A    between atoms: N_5  and  C_6
REMARK    7  A    between atoms: C_6  and  C_7
REMARK    8  A    between atoms: N_17  and  C_18
REMARK                            x       y       z     vdW  Elec       q    Type
REMARK                         _______ _______ _______ _____ _____    ______ ____
ROOT
ATOM      1  C   UNL     1      -0.401   9.775  17.754  0.00  0.00    +0.000 C 
ATOM      2  C   UNL     1       0.841   9.545  18.622  0.00  0.00    +0.000 C 
ENDROOT
BRANCH   2   3
ATOM      3  N   UNL     1       0.878  10.588  19.658  0.00  0.00    +0.000 N 
ATOM      4  H   UNL     1       0.736  11.512  19.270  0.00  0.00    +0.000 HD
BRANCH   3   5
ATOM      5  C   UNL     1       0.274  10.402  20.918  0.00  0.00    +0.000 A 
ATOM      6  C   UNL     1       0.820   9.523  21.857  0.00  0.00    +0.000 A 
ATOM      7  C   UNL     1       0.285   9.460  23.129  0.00  0.00    +0.000 A 
ATOM      8  N   UNL     1      -0.714  10.247  23.561  0.00  0.00    +0.000 NA
ATOM      9  C   UNL     1      -1.229  11.130  22.698  0.00  0.00    +0.000 A 
ATOM     10  C   UNL     1      -2.204  11.986  23.186  0.00  0.00    +0.000 A 
ATOM     11  C   UNL     1      -2.815  12.927  22.366  0.00  0.00    +0.000 A 
ATOM     12 CL   UNL     1      -3.977  14.013  23.024  0.00  0.00    +0.000 Cl
ATOM     13  C   UNL     1      -2.488  12.999  21.022  0.00  0.00    +0.000 A 
ATOM     14  C   UNL     1      -1.492  12.160  20.516  0.00  0.00    +0.000 A 
ATOM     15  C   UNL     1      -0.809  11.235  21.346  0.00  0.00    +0.000 A 
ENDBRANCH   3   5
ENDBRANCH   2   3
BRANCH   2  16
ATOM     16  C   UNL     1       2.105   9.619  17.743  0.00  0.00    +0.000 C 
BRANCH  16  17
ATOM     17  C   UNL     1       2.856   8.291  17.586  0.00  0.00    +0.000 C 
BRANCH  17  18
ATOM     18  N   UNL     1       2.091   7.176  18.149  0.00  0.00    +0.000 NA
ATOM     19  H   UNL     1       1.977   6.457  17.440  0.00  0.00    +0.000 HD
BRANCH  18  20
ATOM     20  C   UNL     1       2.754   6.604  19.322  0.00  0.00    +0.000 C 
BRANCH  20  21
ATOM     21  C   UNL     1       2.490   5.084  19.475  0.00  0.00    +0.000 C 
ATOM     22  C   UNL     1       1.404   4.790  20.548  0.00  0.00    +0.000 C 
ATOM     23  C   UNL     1       1.123   3.285  20.644  0.00  0.00    +0.000 C 
ATOM     24  C   UNL     1       0.638   2.768  19.278  0.00  0.00    +0.000 C 
ATOM     25  C   UNL     1       1.716   3.016  18.212  0.00  0.00    +0.000 C 
ATOM     26  C   UNL     1       3.007   2.288  18.609  0.00  0.00    +0.000 C 
ATOM     27  C   UNL     1       3.506   2.806  19.969  0.00  0.00    +0.000 C 
ATOM     28  C   UNL     1       2.421   2.556  21.031  0.00  0.00    +0.000 C 
ATOM     29  C   UNL     1       3.781   4.318  19.869  0.00  0.00    +0.000 C 
ATOM     30  C   UNL     1       1.993   4.523  18.114  0.00  0.00    +0.000 C 
ENDBRANCH  20  21
ENDBRANCH  18  20
ENDBRANCH  17  18
ENDBRANCH  16  17
ENDBRANCH   2  16
TORSDOF 7
ENDMDL
MODEL 5
REMARK VINA RESULT:      -8.1      1.065      1.627
REMARK  Name = 
REMARK  8 active torsions:
REMARK  status: ('A' for Active; 'I' for Inactive)
REMARK    1  A    between atoms: C_1  and  C_2
REMARK    2  A    between atoms: C_2  and  C_3
REMARK    3  A    between atoms: C_2  and  N_17
REMARK    4  A    between atoms: C_3  and  C_4
REMARK    5  A    between atoms: C_4  and  N_5
REMARK    6  A    between atoms: N_5  and  C_6
REMARK    7  A    between atoms: C_6  and  C_7
REMARK    8  A    between atoms: N_17  and  C_18
REMARK                            x       y       z     vdW  Elec       q    Type
REMARK                         _______ _______ _______ _____ _____    ______ ____
ROOT
ATOM      1  C   UNL     1       2.511   3.838  21.770  0.00  0.00    +0.000 C 
ATOM      2  C   UNL     1       2.285   4.768  20.574  0.00  0.00    +0.000 C 
ENDROOT
BRANCH   2   3
ATOM      3  N   UNL     1       2.031   6.123  21.084  0.00  0.00    +0.000 N 
ATOM      4  H   UNL     1       2.514   6.295  21.958  0.00  0.00    +0.000 HD
BRANCH   3   5
ATOM      5  C   UNL     1       1.990   7.242  20.229  0.00  0.00    +0.000 A 
ATOM      6  C   UNL     1       2.553   7.193  18.951  0.00  0.00    +0.000 A 
ATOM      7  C   UNL     1       2.382   8.257  18.085  0.00  0.00    +0.000 A 
ATOM      8  N   UNL     1       1.644   9.342  18.370  0.00  0.00    +0.000 NA
ATOM      9  C   UNL     1       1.057   9.400  19.570  0.00  0.00    +0.000 A 
ATOM     10  C   UNL     1       0.237  10.490  19.814  0.00  0.00    +0.000 A 
ATOM     11  C   UNL     1      -0.405  10.652  21.036  0.00  0.00    +0.000 A 
ATOM     12 CL   UNL     1      -1.464  11.987  21.278  0.00  0.00    +0.000 Cl
ATOM     13  C   UNL     1      -0.201   9.740  22.057  0.00  0.00    +0.000 A 
ATOM     14  C   UNL     1       0.604   8.622  21.824  0.00  0.00    +0.000 A 
ATOM     15  C   UNL     1       1.220   8.401  20.566  0.00  0.00    +0.000 A 
ENDBRANCH   3   5
ENDBRANCH   2   3
BRANCH   2  16
ATOM     16  C   UNL     1       1.079   4.270  19.754  0.00  0.00    +0.000 C 
BRANCH  16  17
ATOM     17  C   UNL     1       1.444   3.491  18.483  0.00  0.00    +0.000 C 
BRANCH  17  18
ATOM     18  N   UNL     1       2.865   3.137  18.465  0.00  0.00    +0.000 NA
ATOM     19  H   UNL     1       2.975   2.180  18.792  0.00  0.00    +0.000 HD
BRANCH  18  20
ATOM     20  C   UNL     1       3.435   3.263  17.124  0.00  0.00    +0.000 C 
BRANCH  20  21
ATOM     21  C   UNL     1       4.727   4.120  17.103  0.00  0.00    +0.000 C 
ATOM     22  C   UNL     1       5.806   3.517  16.159  0.00  0.00    +0.000 C 
ATOM     23  C   UNL     1       7.054   4.409  16.115  0.00  0.00    +0.000 C 
ATOM     24  C   UNL     1       6.663   5.808  15.608  0.00  0.00    +0.000 C 
ATOM     25  C   UNL     1       5.626   6.435  16.552  0.00  0.00    +0.000 C 
ATOM     26  C   UNL     1       6.216   6.545  17.964  0.00  0.00    +0.000 C 
ATOM     27  C   UNL     1       6.599   5.149  18.484  0.00  0.00    +0.000 C 
ATOM     28  C   UNL     1       7.638   4.527  17.533  0.00  0.00    +0.000 C 
ATOM     29  C   UNL     1       5.344   4.256  18.521  0.00  0.00    +0.000 C 
ATOM     30  C   UNL     1       4.376   5.544  16.592  0.00  0.00    +0.000 C 
ENDBRANCH  20  21
ENDBRANCH  18  20
ENDBRANCH  17  18
ENDBRANCH  16  17
ENDBRANCH   2  16
TORSDOF 7
ENDMDL
MODEL 6
REMARK VINA RESULT:      -8.1      2.609      4.972
REMARK  Name = 
REMARK  8 active torsions:
REMARK  status: ('A' for Active; 'I' for Inactive)
REMARK    1  A    between atoms: C_1  and  C_2
REMARK    2  A    between atoms: C_2  and  C_3
REMARK    3  A    between atoms: C_2  and  N_17
REMARK    4  A    between atoms: C_3  and  C_4
REMARK    5  A    between atoms: C_4  and  N_5
REMARK    6  A    between atoms: N_5  and  C_6
REMARK    7  A    between atoms: C_6  and  C_7
REMARK    8  A    between atoms: N_17  and  C_18
REMARK                            x       y       z     vdW  Elec       q    Type
REMARK                         _______ _______ _______ _____ _____    ______ ____
ROOT
ATOM      1  C   UNL     1       1.398   8.460  19.696  0.00  0.00    +0.000 C 
ATOM      2  C   UNL     1       1.985   9.101  18.434  0.00  0.00    +0.000 C 
ENDROOT
BRANCH   2   3
ATOM      3  N   UNL     1       0.943   9.930  17.810  0.00  0.00    +0.000 N 
ATOM      4  H   UNL     1       0.444   9.428  17.085  0.00  0.00    +0.000 HD
BRANCH   3   5
ATOM      5  C   UNL     1       0.125  10.789  18.571  0.00  0.00    +0.000 A 
ATOM      6  C   UNL     1       0.681  11.785  19.379  0.00  0.00    +0.000 A 
ATOM      7  C   UNL     1      -0.146  12.696  20.008  0.00  0.00    +0.000 A 
ATOM      8  N   UNL     1      -1.478  12.733  19.850  0.00  0.00    +0.000 NA
ATOM      9  C   UNL     1      -2.036  11.818  19.049  0.00  0.00    +0.000 A 
ATOM     10  C   UNL     1      -3.402  11.922  18.837  0.00  0.00    +0.000 A 
ATOM     11  C   UNL     1      -4.079  11.011  18.036  0.00  0.00    +0.000 A 
ATOM     12 CL   UNL     1      -5.765  11.208  17.748  0.00  0.00    +0.000 Cl
ATOM     13  C   UNL     1      -3.403   9.947  17.462  0.00  0.00    +0.000 A 
ATOM     14  C   UNL     1      -2.022   9.838  17.645  0.00  0.00    +0.000 A 
ATOM     15  C   UNL     1      -1.297  10.790  18.407  0.00  0.00    +0.000 A 
ENDBRANCH   3   5
ENDBRANCH   2   3
BRANCH   2  16
ATOM     16  C   UNL     1       2.444   7.997  17.462  0.00  0.00    +0.000 C 
BRANCH  16  17
ATOM     17  C   UNL     1       3.931   7.633  17.558  0.00  0.00    +0.000 C 
BRANCH  17  18
ATOM     18  N   UNL     1       4.142   6.198  17.358  0.00  0.00    +0.000 NA
ATOM     19  H   UNL     1       4.847   6.061  16.639  0.00  0.00    +0.000 HD
BRANCH  18  20
ATOM     20  C   UNL     1       4.568   5.537  18.592  0.00  0.00    +0.000 C 
BRANCH  20  21
ATOM     21  C   UNL     1       3.512   4.537  19.129  0.00  0.00    +0.000 C 
ATOM     22  C   UNL     1       4.143   3.157  19.468  0.00  0.00    +0.000 C 
ATOM     23  C   UNL     1       3.089   2.202  20.046  0.00  0.00    +0.000 C 
ATOM     24  C   UNL     1       2.493   2.814  21.326  0.00  0.00    +0.000 C 
ATOM     25  C   UNL     1       1.831   4.162  21.002  0.00  0.00    +0.000 C 
ATOM     26  C   UNL     1       0.720   3.952  19.965  0.00  0.00    +0.000 C 
ATOM     27  C   UNL     1       1.309   3.350  18.677  0.00  0.00    +0.000 C 
ATOM     28  C   UNL     1       1.971   2.001  19.010  0.00  0.00    +0.000 C 
ATOM     29  C   UNL     1       2.369   4.310  18.104  0.00  0.00    +0.000 C 
ATOM     30  C   UNL     1       2.887   5.118  20.427  0.00  0.00    +0.000 C 
ENDBRANCH  20  21
ENDBRANCH  18  20
ENDBRANCH  17  18
ENDBRANCH  16  17
ENDBRANCH   2  16
TORSDOF 7
ENDMDL
MODEL 7
REMARK VINA RESULT:      -8.0      1.171      1.748
REMARK  Name = 
REMARK  8 active torsions:
REMARK  status: ('A' for Active; 'I' for Inactive)
REMARK    1  A    between atoms: C_1  and  C_2
REMARK    2  A    between atoms: C_2  and  C_3
REMARK    3  A    between atoms: C_2  and  N_17
REMARK    4  A    between atoms: C_3  and  C_4
REMARK    5  A    between atoms: C_4  and  N_5
REMARK    6  A    between atoms: N_5  and  C_6
REMARK    7  A    between atoms: C_6  and  C_7
REMARK    8  A    between atoms: N_17  and  C_18
REMARK                            x       y       z     vdW  Elec       q    Type
REMARK                         _______ _______ _______ _____ _____    ______ ____
ROOT
ATOM      1  C   UNL     1       2.496   3.770  21.747  0.00  0.00    +0.000 C 
ATOM      2  C   UNL     1       2.092   4.652  20.561  0.00  0.00    +0.000 C 
ENDROOT
BRANCH   2   3
ATOM      3  N   UNL     1       1.650   5.954  21.082  0.00  0.00    +0.000 N 
ATOM      4  H   UNL     1       1.898   6.074  22.057  0.00  0.00    +0.000 HD
BRANCH   3   5
ATOM      5  C   UNL     1       1.759   7.133  20.320  0.00  0.00    +0.000 A 
ATOM      6  C   UNL     1       2.381   7.127  19.068  0.00  0.00    +0.000 A 
ATOM      7  C   UNL     1       2.357   8.266  18.285  0.00  0.00    +0.000 A 
ATOM      8  N   UNL     1       1.709   9.393  18.623  0.00  0.00    +0.000 NA
ATOM      9  C   UNL     1       1.068   9.415  19.796  0.00  0.00    +0.000 A 
ATOM     10  C   UNL     1       0.341  10.558  20.090  0.00  0.00    +0.000 A 
ATOM     11  C   UNL     1      -0.346  10.688  21.291  0.00  0.00    +0.000 A 
ATOM     12 CL   UNL     1      -1.287  12.097  21.594  0.00  0.00    +0.000 Cl
ATOM     13  C   UNL     1      -0.282   9.685  22.244  0.00  0.00    +0.000 A 
ATOM     14  C   UNL     1       0.426   8.516  21.958  0.00  0.00    +0.000 A 
ATOM     15  C   UNL     1       1.084   8.332  20.714  0.00  0.00    +0.000 A 
ENDBRANCH   3   5
ENDBRANCH   2   3
BRANCH   2  16
ATOM     16  C   UNL     1       0.949   3.973  19.780  0.00  0.00    +0.000 C 
BRANCH  16  17
ATOM     17  C   UNL     1       1.358   3.384  18.424  0.00  0.00    +0.000 C 
BRANCH  17  18
ATOM     18  N   UNL     1       2.291   4.266  17.720  0.00  0.00    +0.000 NA
ATOM     19  H   UNL     1       2.670   4.944  18.376  0.00  0.00    +0.000 HD
BRANCH  18  20
ATOM     20  C   UNL     1       3.387   3.514  17.107  0.00  0.00    +0.000 C 
BRANCH  20  21
ATOM     21  C   UNL     1       4.715   4.313  17.077  0.00  0.00    +0.000 C 
ATOM     22  C   UNL     1       4.510   5.756  16.534  0.00  0.00    +0.000 C 
ATOM     23  C   UNL     1       5.828   6.543  16.563  0.00  0.00    +0.000 C 
ATOM     24  C   UNL     1       6.347   6.615  18.009  0.00  0.00    +0.000 C 
ATOM     25  C   UNL     1       6.593   5.198  18.548  0.00  0.00    +0.000 C 
ATOM     26  C   UNL     1       7.624   4.484  17.665  0.00  0.00    +0.000 C 
ATOM     27  C   UNL     1       7.108   4.397  16.218  0.00  0.00    +0.000 C 
ATOM     28  C   UNL     1       6.864   5.820  15.685  0.00  0.00    +0.000 C 
ATOM     29  C   UNL     1       5.783   3.611  16.196  0.00  0.00    +0.000 C 
ATOM     30  C   UNL     1       5.273   4.412  18.523  0.00  0.00    +0.000 C 
ENDBRANCH  20  21
ENDBRANCH  18  20
ENDBRANCH  17  18
ENDBRANCH  16  17
ENDBRANCH   2  16
TORSDOF 7
ENDMDL
MODEL 8
REMARK VINA RESULT:      -8.0      3.525      5.857
REMARK  Name = 
REMARK  8 active torsions:
REMARK  status: ('A' for Active; 'I' for Inactive)
REMARK    1  A    between atoms: C_1  and  C_2
REMARK    2  A    between atoms: C_2  and  C_3
REMARK    3  A    between atoms: C_2  and  N_17
REMARK    4  A    between atoms: C_3  and  C_4
REMARK    5  A    between atoms: C_4  and  N_5
REMARK    6  A    between atoms: N_5  and  C_6
REMARK    7  A    between atoms: C_6  and  C_7
REMARK    8  A    between atoms: N_17  and  C_18
REMARK                            x       y       z     vdW  Elec       q    Type
REMARK                         _______ _______ _______ _____ _____    ______ ____
ROOT
ATOM      1  C   UNL     1       1.172  10.598  18.543  0.00  0.00    +0.000 C 
ATOM      2  C   UNL     1      -0.130   9.945  19.019  0.00  0.00    +0.000 C 
ENDROOT
BRANCH   2   3
ATOM      3  N   UNL     1      -1.175  10.977  19.064  0.00  0.00    +0.000 N 
ATOM      4  H   UNL     1      -0.810  11.873  19.365  0.00  0.00    +0.000 HD
BRANCH   3   5
ATOM      5  C   UNL     1      -2.163  11.075  18.064  0.00  0.00    +0.000 A 
ATOM      6  C   UNL     1      -1.990  10.467  16.818  0.00  0.00    +0.000 A 
ATOM      7  C   UNL     1      -3.028  10.466  15.905  0.00  0.00    +0.000 A 
ATOM      8  N   UNL     1      -4.247  10.971  16.157  0.00  0.00    +0.000 NA
ATOM      9  C   UNL     1      -4.457  11.523  17.357  0.00  0.00    +0.000 A 
ATOM     10  C   UNL     1      -5.742  11.966  17.626  0.00  0.00    +0.000 A 
ATOM     11  C   UNL     1      -6.060  12.570  18.837  0.00  0.00    +0.000 A 
ATOM     12 CL   UNL     1      -7.681  13.052  19.156  0.00  0.00    +0.000 Cl
ATOM     13  C   UNL     1      -5.078  12.780  19.791  0.00  0.00    +0.000 A 
ATOM     14  C   UNL     1      -3.781  12.320  19.549  0.00  0.00    +0.000 A 
ATOM     15  C   UNL     1      -3.446  11.644  18.347  0.00  0.00    +0.000 A 
ENDBRANCH   3   5
ENDBRANCH   2   3
BRANCH   2  16
ATOM     16  C   UNL     1       0.082   9.337  20.420  0.00  0.00    +0.000 C 
BRANCH  16  17
ATOM     17  C   UNL     1       1.514   8.869  20.708  0.00  0.00    +0.000 C 
BRANCH  17  18
ATOM     18  N   UNL     1       1.598   7.408  20.751  0.00  0.00    +0.000 NA
ATOM     19  H   UNL     1       0.660   7.018  20.712  0.00  0.00    +0.000 HD
BRANCH  18  20
ATOM     20  C   UNL     1       2.394   6.879  19.642  0.00  0.00    +0.000 C 
BRANCH  20  21
ATOM     21  C   UNL     1       2.352   5.331  19.562  0.00  0.00    +0.000 C 
ATOM     22  C   UNL     1       3.739   4.698  19.868  0.00  0.00    +0.000 C 
ATOM     23  C   UNL     1       3.660   3.166  19.834  0.00  0.00    +0.000 C 
ATOM     24  C   UNL     1       2.642   2.684  20.882  0.00  0.00    +0.000 C 
ATOM     25  C   UNL     1       1.256   3.269  20.572  0.00  0.00    +0.000 C 
ATOM     26  C   UNL     1       0.809   2.820  19.175  0.00  0.00    +0.000 C 
ATOM     27  C   UNL     1       1.815   3.307  18.118  0.00  0.00    +0.000 C 
ATOM     28  C   UNL     1       3.201   2.718  18.436  0.00  0.00    +0.000 C 
ATOM     29  C   UNL     1       1.895   4.845  18.160  0.00  0.00    +0.000 C 
ATOM     30  C   UNL     1       1.334   4.803  20.610  0.00  0.00    +0.000 C 
ENDBRANCH  20  21
ENDBRANCH  18  20
ENDBRANCH  17  18
ENDBRANCH  16  17
ENDBRANCH   2  16
TORSDOF 7
ENDMDL
MODEL 9
REMARK VINA RESULT:      -7.9      4.936      6.980
REMARK  Name = 
REMARK  8 active torsions:
REMARK  status: ('A' for Active; 'I' for Inactive)
REMARK    1  A    between atoms: C_1  and  C_2
REMARK    2  A    between atoms: C_2  and  C_3
REMARK    3  A    between atoms: C_2  and  N_17
REMARK    4  A    between atoms: C_3  and  C_4
REMARK    5  A    between atoms: C_4  and  N_5
REMARK    6  A    between atoms: N_5  and  C_6
REMARK    7  A    between atoms: C_6  and  C_7
REMARK    8  A    between atoms: N_17  and  C_18
REMARK                            x       y       z     vdW  Elec       q    Type
REMARK                         _______ _______ _______ _____ _____    ______ ____
ROOT
ATOM      1  C   UNL     1       7.193   5.440  16.005  0.00  0.00    +0.000 C 
ATOM      2  C   UNL     1       6.436   6.064  17.182  0.00  0.00    +0.000 C 
ENDROOT
BRANCH   2   3
ATOM      3  N   UNL     1       4.998   5.825  16.984  0.00  0.00    +0.000 N 
ATOM      4  H   UNL     1       4.816   4.901  16.613  0.00  0.00    +0.000 HD
BRANCH   3   5
ATOM      5  C   UNL     1       4.040   6.259  17.921  0.00  0.00    +0.000 A 
ATOM      6  C   UNL     1       3.447   7.520  17.816  0.00  0.00    +0.000 A 
ATOM      7  C   UNL     1       2.416   7.866  18.668  0.00  0.00    +0.000 A 
ATOM      8  N   UNL     1       1.886   7.035  19.579  0.00  0.00    +0.000 NA
ATOM      9  C   UNL     1       2.404   5.805  19.677  0.00  0.00    +0.000 A 
ATOM     10  C   UNL     1       1.793   4.937  20.567  0.00  0.00    +0.000 A 
ATOM     11  C   UNL     1       2.265   3.644  20.755  0.00  0.00    +0.000 A 
ATOM     12 CL   UNL     1       1.442   2.576  21.824  0.00  0.00    +0.000 Cl
ATOM     13  C   UNL     1       3.393   3.207  20.079  0.00  0.00    +0.000 A 
ATOM     14  C   UNL     1       4.010   4.059  19.160  0.00  0.00    +0.000 A 
ATOM     15  C   UNL     1       3.510   5.362  18.903  0.00  0.00    +0.000 A 
ENDBRANCH   3   5
ENDBRANCH   2   3
BRANCH   2  16
ATOM     16  C   UNL     1       6.724   7.577  17.235  0.00  0.00    +0.000 C 
BRANCH  16  17
ATOM     17  C   UNL     1       8.060   7.954  17.888  0.00  0.00    +0.000 C 
BRANCH  17  18
ATOM     18  N   UNL     1       8.187   9.405  18.042  0.00  0.00    +0.000 NA
ATOM     19  H   UNL     1       7.282   9.795  18.292  0.00  0.00    +0.000 HD
BRANCH  18  20
ATOM     20  C   UNL     1       9.171   9.755  19.067  0.00  0.00    +0.000 C 
BRANCH  20  21
ATOM     21  C   UNL     1       9.674  11.216  18.938  0.00  0.00    +0.000 C 
ATOM     22  C   UNL     1       8.860  12.016  17.882  0.00  0.00    +0.000 C 
ATOM     23  C   UNL     1       9.342  13.472  17.809  0.00  0.00    +0.000 C 
ATOM     24  C   UNL     1       9.172  14.134  19.187  0.00  0.00    +0.000 C 
ATOM     25  C   UNL     1      10.002  13.379  20.236  0.00  0.00    +0.000 C 
ATOM     26  C   UNL     1      11.482  13.399  19.833  0.00  0.00    +0.000 C 
ATOM     27  C   UNL     1      11.662  12.728  18.460  0.00  0.00    +0.000 C 
ATOM     28  C   UNL     1      10.828  13.490  17.415  0.00  0.00    +0.000 C 
ATOM     29  C   UNL     1      11.173  11.269  18.537  0.00  0.00    +0.000 C 
ATOM     30  C   UNL     1       9.516  11.923  20.311  0.00  0.00    +0.000 C 
ENDBRANCH  20  21
ENDBRANCH  18  20
ENDBRANCH  17  18
ENDBRANCH  16  17
ENDBRANCH   2  16
TORSDOF 7
ENDMDL
