MODEL 1
REMARK VINA RESULT:      -9.0      0.000      0.000
REMARK  Name = 
REMARK  8 active torsions:
REMARK  status: ('A' for Active; 'I' for Inactive)
REMARK    1  A    between atoms: C_1  and  S_2
REMARK    2  A    between atoms: S_2  and  C_5
REMARK    3  A    between atoms: C_8  and  C_9
REMARK    4  A    between atoms: C_12  and  C_13
REMARK    5  A    between atoms: C_13  and  C_14
REMARK    6  A    between atoms: C_17  and  O_18
REMARK    7  A    between atoms: C_19  and  O_20
REMARK    8  A    between atoms: C_23  and  C_24
REMARK                            x       y       z     vdW  Elec       q    Type
REMARK                         _______ _______ _______ _____ _____    ______ ____
ROOT
ATOM      1  C   UNL     1       3.437   6.329  17.934  0.00  0.00    +0.000 A 
ATOM      2  C   UNL     1       4.255   6.655  16.861  0.00  0.00    +0.000 A 
ATOM      3  N   UNL     1       5.079   5.809  16.220  0.00  0.00    +0.000 NA
ATOM      4  C   UNL     1       5.120   4.554  16.698  0.00  0.00    +0.000 A 
ATOM      5  N   UNL     1       4.404   4.126  17.751  0.00  0.00    +0.000 NA
ATOM      6  C   UNL     1       3.546   4.994  18.346  0.00  0.00    +0.000 A 
ENDROOT
BRANCH   6   7
ATOM      7  C   UNL     1       2.727   4.357  19.417  0.00  0.00    +0.000 A 
ATOM      8  C   UNL     1       1.410   3.927  19.162  0.00  0.00    +0.000 A 
ATOM      9  C   UNL     1       0.677   3.262  20.136  0.00  0.00    +0.000 A 
ATOM     10  C   UNL     1       1.253   2.978  21.372  0.00  0.00    +0.000 A 
ATOM     11  F   UNL     1       0.551   2.321  22.306  0.00  0.00    +0.000 F 
ATOM     12  C   UNL     1       2.526   3.393  21.668  0.00  0.00    +0.000 A 
ATOM     13  C   UNL     1       3.225   4.132  20.716  0.00  0.00    +0.000 A 
ENDBRANCH   6   7
BRANCH   1  17
ATOM     14  C   UNL     1       1.019   9.380  19.710  0.00  0.00    +0.000 A 
ATOM     15  C   UNL     1       1.452   8.311  20.479  0.00  0.00    +0.000 A 
ATOM     16  C   UNL     1       2.252   7.321  19.917  0.00  0.00    +0.000 A 
ATOM     17  C   UNL     1       2.570   7.364  18.547  0.00  0.00    +0.000 A 
ATOM     18  C   UNL     1       2.050   8.422  17.780  0.00  0.00    +0.000 A 
ATOM     19  C   UNL     1       1.319   9.460  18.352  0.00  0.00    +0.000 A 
BRANCH  14  21
ATOM     20  C   UNL     1      -0.277  10.003  22.044  0.00  0.00    +0.000 C 
ATOM     21  S   UNL     1       0.076  10.680  20.443  0.00  0.00    +0.000 S 
ATOM     22  O   UNL     1      -1.174  10.783  19.700  0.00  0.00    +0.000 OA
ATOM     23  O   UNL     1       0.950  11.822  20.595  0.00  0.00    +0.000 OA
ENDBRANCH  14  21
ENDBRANCH   1  17
BRANCH   4  24
ATOM     24  C   UNL     1       5.902   3.526  15.921  0.00  0.00    +0.000 C 
BRANCH  24  25
ATOM     25  C   UNL     1       6.358   3.977  14.554  0.00  0.00    +0.000 A 
ATOM     26  C   UNL     1       5.692   3.545  13.394  0.00  0.00    +0.000 A 
ATOM     27  C   UNL     1       6.105   3.978  12.131  0.00  0.00    +0.000 A 
ATOM     28  C   UNL     1       7.180   4.854  12.030  0.00  0.00    +0.000 A 
ATOM     29  C   UNL     1       7.849   5.279  13.173  0.00  0.00    +0.000 A 
ATOM     30  C   UNL     1       7.451   4.848  14.431  0.00  0.00    +0.000 A 
BRANCH  28  31
ATOM     31  O   UNL     1       7.607   5.338  10.824  0.00  0.00    +0.000 OA
ATOM     32  H   UNL     1       7.334   6.270  10.762  0.00  0.00    +0.000 HD
ENDBRANCH  28  31
BRANCH  29  33
ATOM     33  O   UNL     1       8.900   6.145  13.070  0.00  0.00    +0.000 OA
ATOM     34  H   UNL     1       9.428   5.801  12.323  0.00  0.00    +0.000 HD
ENDBRANCH  29  33
ENDBRANCH  24  25
ENDBRANCH   4  24
TORSDOF 7
ENDMDL
MODEL 2
REMARK VINA RESULT:      -8.9      0.664      1.166
REMARK  Name = 
REMARK  8 active torsions:
REMARK  status: ('A' for Active; 'I' for Inactive)
REMARK    1  A    between atoms: C_1  and  S_2
REMARK    2  A    between atoms: S_2  and  C_5
REMARK    3  A    between atoms: C_8  and  C_9
REMARK    4  A    between atoms: C_12  and  C_13
REMARK    5  A    between atoms: C_13  and  C_14
REMARK    6  A    between atoms: C_17  and  O_18
REMARK    7  A    between atoms: C_19  and  O_20
REMARK    8  A    between atoms: C_23  and  C_24
REMARK                            x       y       z     vdW  Elec       q    Type
REMARK                         _______ _______ _______ _____ _____    ______ ____
ROOT
ATOM      1  C   UNL     1       3.456   6.341  17.919  0.00  0.00    +0.000 A 
ATOM      2  C   UNL     1       4.272   6.662  16.843  0.00  0.00    +0.000 A 
ATOM      3  N   UNL     1       5.081   5.809  16.193  0.00  0.00    +0.000 NA
ATOM      4  C   UNL     1       5.107   4.550  16.664  0.00  0.00    +0.000 A 
ATOM      5  N   UNL     1       4.391   4.125  17.718  0.00  0.00    +0.000 NA
ATOM      6  C   UNL     1       3.548   5.002  18.322  0.00  0.00    +0.000 A 
ENDROOT
BRANCH   6   7
ATOM      7  C   UNL     1       2.727   4.371  19.395  0.00  0.00    +0.000 A 
ATOM      8  C   UNL     1       1.416   3.925  19.133  0.00  0.00    +0.000 A 
ATOM      9  C   UNL     1       0.681   3.265  20.110  0.00  0.00    +0.000 A 
ATOM     10  C   UNL     1       1.248   3.001  21.353  0.00  0.00    +0.000 A 
ATOM     11  F   UNL     1       0.545   2.349  22.290  0.00  0.00    +0.000 F 
ATOM     12  C   UNL     1       2.515   3.432  21.655  0.00  0.00    +0.000 A 
ATOM     13  C   UNL     1       3.215   4.167  20.700  0.00  0.00    +0.000 A 
ENDBRANCH   6   7
BRANCH   1  17
ATOM     14  C   UNL     1       0.921   9.288  19.708  0.00  0.00    +0.000 A 
ATOM     15  C   UNL     1       1.287   9.412  18.377  0.00  0.00    +0.000 A 
ATOM     16  C   UNL     1       2.097   8.452  17.779  0.00  0.00    +0.000 A 
ATOM     17  C   UNL     1       2.606   7.385  18.542  0.00  0.00    +0.000 A 
ATOM     18  C   UNL     1       2.278   7.332  19.908  0.00  0.00    +0.000 A 
ATOM     19  C   UNL     1       1.400   8.242  20.493  0.00  0.00    +0.000 A 
BRANCH  14  21
ATOM     20  C   UNL     1       0.853  11.900  20.537  0.00  0.00    +0.000 C 
ATOM     21  S   UNL     1      -0.176  10.459  20.443  0.00  0.00    +0.000 S 
ATOM     22  O   UNL     1      -0.455  10.002  21.799  0.00  0.00    +0.000 OA
ATOM     23  O   UNL     1      -1.247  10.705  19.503  0.00  0.00    +0.000 OA
ENDBRANCH  14  21
ENDBRANCH   1  17
BRANCH   4  24
ATOM     24  C   UNL     1       5.870   3.515  15.877  0.00  0.00    +0.000 C 
BRANCH  24  25
ATOM     25  C   UNL     1       6.346   3.976  14.520  0.00  0.00    +0.000 A 
ATOM     26  C   UNL     1       5.694   3.555  13.348  0.00  0.00    +0.000 A 
ATOM     27  C   UNL     1       6.125   3.996  12.093  0.00  0.00    +0.000 A 
ATOM     28  C   UNL     1       7.204   4.870  12.013  0.00  0.00    +0.000 A 
ATOM     29  C   UNL     1       7.859   5.284  13.169  0.00  0.00    +0.000 A 
ATOM     30  C   UNL     1       7.443   4.845  14.418  0.00  0.00    +0.000 A 
BRANCH  28  31
ATOM     31  O   UNL     1       7.648   5.362  10.817  0.00  0.00    +0.000 OA
ATOM     32  H   UNL     1       7.738   4.615  10.201  0.00  0.00    +0.000 HD
ENDBRANCH  28  31
BRANCH  29  33
ATOM     33  O   UNL     1       8.914   6.148  13.086  0.00  0.00    +0.000 OA
ATOM     34  H   UNL     1       9.117   6.376  14.014  0.00  0.00    +0.000 HD
ENDBRANCH  29  33
ENDBRANCH  24  25
ENDBRANCH   4  24
TORSDOF 7
ENDMDL
MODEL 3
REMARK VINA RESULT:      -8.9      0.737      1.244
REMARK  Name = 
REMARK  8 active torsions:
REMARK  status: ('A' for Active; 'I' for Inactive)
REMARK    1  A    between atoms: C_1  and  S_2
REMARK    2  A    between atoms: S_2  and  C_5
REMARK    3  A    between atoms: C_8  and  C_9
REMARK    4  A    between atoms: C_12  and  C_13
REMARK    5  A    between atoms: C_13  and  C_14
REMARK    6  A    between atoms: C_17  and  O_18
REMARK    7  A    between atoms: C_19  and  O_20
REMARK    8  A    between atoms: C_23  and  C_24
REMARK                            x       y       z     vdW  Elec       q    Type
REMARK                         _______ _______ _______ _____ _____    ______ ____
ROOT
ATOM      1  C   UNL     1       3.492   6.045  17.964  0.00  0.00    +0.000 A 
ATOM      2  C   UNL     1       4.279   6.432  16.888  0.00  0.00    +0.000 A 
ATOM      3  N   UNL     1       5.072   5.622  16.168  0.00  0.00    +0.000 NA
ATOM      4  C   UNL     1       5.114   4.339  16.562  0.00  0.00    +0.000 A 
ATOM      5  N   UNL     1       4.427   3.849  17.608  0.00  0.00    +0.000 NA
ATOM      6  C   UNL     1       3.598   4.686  18.285  0.00  0.00    +0.000 A 
ENDROOT
BRANCH   6   7
ATOM      7  C   UNL     1       2.807   3.989  19.339  0.00  0.00    +0.000 A 
ATOM      8  C   UNL     1       3.410   3.584  20.546  0.00  0.00    +0.000 A 
ATOM      9  C   UNL     1       2.656   3.007  21.561  0.00  0.00    +0.000 A 
ATOM     10  C   UNL     1       1.280   2.857  21.409  0.00  0.00    +0.000 A 
ATOM     11  F   UNL     1       0.550   2.316  22.395  0.00  0.00    +0.000 F 
ATOM     12  C   UNL     1       0.655   3.222  20.244  0.00  0.00    +0.000 A 
ATOM     13  C   UNL     1       1.431   3.722  19.200  0.00  0.00    +0.000 A 
ENDBRANCH   6   7
BRANCH   1  17
ATOM     14  C   UNL     1       1.167   8.997  20.012  0.00  0.00    +0.000 A 
ATOM     15  C   UNL     1       1.586   7.861  20.688  0.00  0.00    +0.000 A 
ATOM     16  C   UNL     1       2.357   6.902  20.037  0.00  0.00    +0.000 A 
ATOM     17  C   UNL     1       2.656   7.047  18.670  0.00  0.00    +0.000 A 
ATOM     18  C   UNL     1       2.150   8.173  17.997  0.00  0.00    +0.000 A 
ATOM     19  C   UNL     1       1.450   9.178  18.660  0.00  0.00    +0.000 A 
BRANCH  14  21
ATOM     20  C   UNL     1      -0.842  10.814  19.591  0.00  0.00    +0.000 C 
ATOM     21  S   UNL     1       0.264  10.254  20.860  0.00  0.00    +0.000 S 
ATOM     22  O   UNL     1       1.198  11.330  21.165  0.00  0.00    +0.000 OA
ATOM     23  O   UNL     1      -0.503   9.613  21.905  0.00  0.00    +0.000 OA
ENDBRANCH  14  21
ENDBRANCH   1  17
BRANCH   4  24
ATOM     24  C   UNL     1       5.859   3.355  15.696  0.00  0.00    +0.000 C 
BRANCH  24  25
ATOM     25  C   UNL     1       6.354   3.915  14.384  0.00  0.00    +0.000 A 
ATOM     26  C   UNL     1       5.712   3.593  13.176  0.00  0.00    +0.000 A 
ATOM     27  C   UNL     1       6.161   4.127  11.964  0.00  0.00    +0.000 A 
ATOM     28  C   UNL     1       7.248   4.994  11.964  0.00  0.00    +0.000 A 
ATOM     29  C   UNL     1       7.894   5.310  13.155  0.00  0.00    +0.000 A 
ATOM     30  C   UNL     1       7.460   4.779  14.362  0.00  0.00    +0.000 A 
BRANCH  28  31
ATOM     31  O   UNL     1       7.710   5.573  10.815  0.00  0.00    +0.000 OA
ATOM     32  H   UNL     1       8.478   6.124  11.046  0.00  0.00    +0.000 HD
ENDBRANCH  28  31
BRANCH  29  33
ATOM     33  O   UNL     1       8.957   6.167  13.151  0.00  0.00    +0.000 OA
ATOM     34  H   UNL     1       9.127   6.351  14.096  0.00  0.00    +0.000 HD
ENDBRANCH  29  33
ENDBRANCH  24  25
ENDBRANCH   4  24
TORSDOF 7
ENDMDL
MODEL 4
REMARK VINA RESULT:      -8.5      1.049      1.601
REMARK  Name = 
REMARK  8 active torsions:
REMARK  status: ('A' for Active; 'I' for Inactive)
REMARK    1  A    between atoms: C_1  and  S_2
REMARK    2  A    between atoms: S_2  and  C_5
REMARK    3  A    between atoms: C_8  and  C_9
REMARK    4  A    between atoms: C_12  and  C_13
REMARK    5  A    between atoms: C_13  and  C_14
REMARK    6  A    between atoms: C_17  and  O_18
REMARK    7  A    between atoms: C_19  and  O_20
REMARK    8  A    between atoms: C_23  and  C_24
REMARK                            x       y       z     vdW  Elec       q    Type
REMARK                         _______ _______ _______ _____ _____    ______ ____
ROOT
ATOM      1  C   UNL     1       3.651   6.769  18.030  0.00  0.00    +0.000 A 
ATOM      2  C   UNL     1       4.613   7.200  17.127  0.00  0.00    +0.000 A 
ATOM      3  N   UNL     1       5.616   6.452  16.637  0.00  0.00    +0.000 NA
ATOM      4  C   UNL     1       5.691   5.194  17.102  0.00  0.00    +0.000 A 
ATOM      5  N   UNL     1       4.843   4.671  18.002  0.00  0.00    +0.000 NA
ATOM      6  C   UNL     1       3.812   5.440  18.440  0.00  0.00    +0.000 A 
ENDROOT
BRANCH   6   7
ATOM      7  C   UNL     1       2.879   4.700  19.339  0.00  0.00    +0.000 A 
ATOM      8  C   UNL     1       1.752   4.033  18.820  0.00  0.00    +0.000 A 
ATOM      9  C   UNL     1       0.929   3.278  19.646  0.00  0.00    +0.000 A 
ATOM     10  C   UNL     1       1.232   3.141  20.998  0.00  0.00    +0.000 A 
ATOM     11  F   UNL     1       0.448   2.398  21.792  0.00  0.00    +0.000 F 
ATOM     12  C   UNL     1       2.311   3.786  21.548  0.00  0.00    +0.000 A 
ATOM     13  C   UNL     1       3.083   4.609  20.730  0.00  0.00    +0.000 A 
ENDBRANCH   6   7
BRANCH   1  17
ATOM     14  C   UNL     1       0.669   9.538  19.355  0.00  0.00    +0.000 A 
ATOM     15  C   UNL     1       1.171   8.594  20.237  0.00  0.00    +0.000 A 
ATOM     16  C   UNL     1       2.153   7.699  19.823  0.00  0.00    +0.000 A 
ATOM     17  C   UNL     1       2.592   7.702  18.486  0.00  0.00    +0.000 A 
ATOM     18  C   UNL     1       2.005   8.622  17.599  0.00  0.00    +0.000 A 
ATOM     19  C   UNL     1       1.084   9.576  18.026  0.00  0.00    +0.000 A 
BRANCH  14  21
ATOM     20  C   UNL     1       0.357  12.248  19.624  0.00  0.00    +0.000 C 
ATOM     21  S   UNL     1      -0.513  10.728  19.904  0.00  0.00    +0.000 S 
ATOM     22  O   UNL     1      -0.677  10.548  21.341  0.00  0.00    +0.000 OA
ATOM     23  O   UNL     1      -1.648  10.663  19.010  0.00  0.00    +0.000 OA
ENDBRANCH  14  21
ENDBRANCH   1  17
BRANCH   4  24
ATOM     24  C   UNL     1       6.695   4.264  16.469  0.00  0.00    +0.000 C 
BRANCH  24  25
ATOM     25  C   UNL     1       6.815   4.387  14.969  0.00  0.00    +0.000 A 
ATOM     26  C   UNL     1       7.784   5.225  14.390  0.00  0.00    +0.000 A 
ATOM     27  C   UNL     1       7.905   5.323  13.001  0.00  0.00    +0.000 A 
ATOM     28  C   UNL     1       7.062   4.572  12.190  0.00  0.00    +0.000 A 
ATOM     29  C   UNL     1       6.095   3.747  12.756  0.00  0.00    +0.000 A 
ATOM     30  C   UNL     1       5.963   3.649  14.133  0.00  0.00    +0.000 A 
BRANCH  28  31
ATOM     31  O   UNL     1       7.157   4.602  10.825  0.00  0.00    +0.000 OA
ATOM     32  H   UNL     1       7.905   5.177  10.590  0.00  0.00    +0.000 HD
ENDBRANCH  28  31
BRANCH  29  33
ATOM     33  O   UNL     1       5.274   3.006  11.955  0.00  0.00    +0.000 OA
ATOM     34  H   UNL     1       4.780   3.667  11.431  0.00  0.00    +0.000 HD
ENDBRANCH  29  33
ENDBRANCH  24  25
ENDBRANCH   4  24
TORSDOF 7
ENDMDL
MODEL 5
REMARK VINA RESULT:      -8.4      5.453     11.516
REMARK  Name = 
REMARK  8 active torsions:
REMARK  status: ('A' for Active; 'I' for Inactive)
REMARK    1  A    between atoms: C_1  and  S_2
REMARK    2  A    between atoms: S_2  and  C_5
REMARK    3  A    between atoms: C_8  and  C_9
REMARK    4  A    between atoms: C_12  and  C_13
REMARK    5  A    between atoms: C_13  and  C_14
REMARK    6  A    between atoms: C_17  and  O_18
REMARK    7  A    between atoms: C_19  and  O_20
REMARK    8  A    between atoms: C_23  and  C_24
REMARK                            x       y       z     vdW  Elec       q    Type
REMARK                         _______ _______ _______ _____ _____    ______ ____
ROOT
ATOM      1  C   UNL     1       0.026  10.905  20.293  0.00  0.00    +0.000 A 
ATOM      2  C   UNL     1       0.397  11.521  21.480  0.00  0.00    +0.000 A 
ATOM      3  N   UNL     1      -0.225  12.567  22.047  0.00  0.00    +0.000 NA
ATOM      4  C   UNL     1      -1.276  13.062  21.371  0.00  0.00    +0.000 A 
ATOM      5  N   UNL     1      -1.711  12.578  20.197  0.00  0.00    +0.000 NA
ATOM      6  C   UNL     1      -1.088  11.490  19.675  0.00  0.00    +0.000 A 
ENDROOT
BRANCH   6   7
ATOM      7  C   UNL     1      -1.746  10.983  18.437  0.00  0.00    +0.000 A 
ATOM      8  C   UNL     1      -2.482   9.782  18.449  0.00  0.00    +0.000 A 
ATOM      9  C   UNL     1      -3.161   9.352  17.316  0.00  0.00    +0.000 A 
ATOM     10  C   UNL     1      -3.153  10.127  16.160  0.00  0.00    +0.000 A 
ATOM     11  F   UNL     1      -3.822   9.721  15.072  0.00  0.00    +0.000 F 
ATOM     12  C   UNL     1      -2.436  11.295  16.099  0.00  0.00    +0.000 A 
ATOM     13  C   UNL     1      -1.689  11.677  17.212  0.00  0.00    +0.000 A 
ENDBRANCH   6   7
BRANCH   1  17
ATOM     14  C   UNL     1       2.355   7.612  18.866  0.00  0.00    +0.000 A 
ATOM     15  C   UNL     1       2.067   8.669  18.017  0.00  0.00    +0.000 A 
ATOM     16  C   UNL     1       1.324   9.754  18.474  0.00  0.00    +0.000 A 
ATOM     17  C   UNL     1       0.803   9.751  19.781  0.00  0.00    +0.000 A 
ATOM     18  C   UNL     1       1.050   8.627  20.590  0.00  0.00    +0.000 A 
ATOM     19  C   UNL     1       1.862   7.577  20.168  0.00  0.00    +0.000 A 
BRANCH  14  21
ATOM     20  C   UNL     1       2.152   5.061  17.881  0.00  0.00    +0.000 C 
ATOM     21  S   UNL     1       3.369   6.277  18.313  0.00  0.00    +0.000 S 
ATOM     22  O   UNL     1       4.117   5.792  19.466  0.00  0.00    +0.000 OA
ATOM     23  O   UNL     1       4.048   6.712  17.112  0.00  0.00    +0.000 OA
ENDBRANCH  14  21
ENDBRANCH   1  17
BRANCH   4  24
ATOM     24  C   UNL     1      -2.108  14.129  22.037  0.00  0.00    +0.000 C 
BRANCH  24  25
ATOM     25  C   UNL     1      -3.426  13.648  22.594  0.00  0.00    +0.000 A 
ATOM     26  C   UNL     1      -4.590  13.666  21.806  0.00  0.00    +0.000 A 
ATOM     27  C   UNL     1      -5.806  13.204  22.318  0.00  0.00    +0.000 A 
ATOM     28  C   UNL     1      -5.854  12.712  23.617  0.00  0.00    +0.000 A 
ATOM     29  C   UNL     1      -4.707  12.699  24.406  0.00  0.00    +0.000 A 
ATOM     30  C   UNL     1      -3.498  13.163  23.909  0.00  0.00    +0.000 A 
BRANCH  28  31
ATOM     31  O   UNL     1      -7.007  12.215  24.160  0.00  0.00    +0.000 OA
ATOM     32  H   UNL     1      -7.517  11.797  23.446  0.00  0.00    +0.000 HD
ENDBRANCH  28  31
BRANCH  29  33
ATOM     33  O   UNL     1      -4.758  12.209  25.680  0.00  0.00    +0.000 OA
ATOM     34  H   UNL     1      -4.147  12.779  26.186  0.00  0.00    +0.000 HD
ENDBRANCH  29  33
ENDBRANCH  24  25
ENDBRANCH   4  24
TORSDOF 7
ENDMDL
MODEL 6
REMARK VINA RESULT:      -8.4      5.499     11.608
REMARK  Name = 
REMARK  8 active torsions:
REMARK  status: ('A' for Active; 'I' for Inactive)
REMARK    1  A    between atoms: C_1  and  S_2
REMARK    2  A    between atoms: S_2  and  C_5
REMARK    3  A    between atoms: C_8  and  C_9
REMARK    4  A    between atoms: C_12  and  C_13
REMARK    5  A    between atoms: C_13  and  C_14
REMARK    6  A    between atoms: C_17  and  O_18
REMARK    7  A    between atoms: C_19  and  O_20
REMARK    8  A    between atoms: C_23  and  C_24
REMARK                            x       y       z     vdW  Elec       q    Type
REMARK                         _______ _______ _______ _____ _____    ______ ____
ROOT
ATOM      1  C   UNL     1      -0.168  11.117  20.369  0.00  0.00    +0.000 A 
ATOM      2  C   UNL     1       0.139  11.793  21.541  0.00  0.00    +0.000 A 
ATOM      3  N   UNL     1      -0.528  12.851  22.031  0.00  0.00    +0.000 NA
ATOM      4  C   UNL     1      -1.556  13.293  21.288  0.00  0.00    +0.000 A 
ATOM      5  N   UNL     1      -1.930  12.747  20.120  0.00  0.00    +0.000 NA
ATOM      6  C   UNL     1      -1.264  11.649  19.677  0.00  0.00    +0.000 A 
ENDROOT
BRANCH   6   7
ATOM      7  C   UNL     1      -1.857  11.072  18.436  0.00  0.00    +0.000 A 
ATOM      8  C   UNL     1      -2.560   9.852  18.470  0.00  0.00    +0.000 A 
ATOM      9  C   UNL     1      -3.181   9.355  17.331  0.00  0.00    +0.000 A 
ATOM     10  C   UNL     1      -3.147  10.082  16.144  0.00  0.00    +0.000 A 
ATOM     11  F   UNL     1      -3.760   9.612  15.049  0.00  0.00    +0.000 F 
ATOM     12  C   UNL     1      -2.461  11.267  16.062  0.00  0.00    +0.000 A 
ATOM     13  C   UNL     1      -1.770  11.717  17.187  0.00  0.00    +0.000 A 
ENDBRANCH   6   7
BRANCH   1  17
ATOM     14  C   UNL     1       2.114   7.727  19.099  0.00  0.00    +0.000 A 
ATOM     15  C   UNL     1       1.648   7.793  20.403  0.00  0.00    +0.000 A 
ATOM     16  C   UNL     1       0.891   8.882  20.824  0.00  0.00    +0.000 A 
ATOM     17  C   UNL     1       0.652   9.956  19.946  0.00  0.00    +0.000 A 
ATOM     18  C   UNL     1       1.206   9.891  18.655  0.00  0.00    +0.000 A 
ATOM     19  C   UNL     1       1.893   8.767  18.201  0.00  0.00    +0.000 A 
BRANCH  14  21
ATOM     20  C   UNL     1       4.124   7.024  17.372  0.00  0.00    +0.000 C 
ATOM     21  S   UNL     1       3.001   6.306  18.542  0.00  0.00    +0.000 S 
ATOM     22  O   UNL     1       2.059   5.462  17.819  0.00  0.00    +0.000 OA
ATOM     23  O   UNL     1       3.754   5.792  19.664  0.00  0.00    +0.000 OA
ENDBRANCH  14  21
ENDBRANCH   1  17
BRANCH   4  24
ATOM     24  C   UNL     1      -2.436  14.372  21.866  0.00  0.00    +0.000 C 
BRANCH  24  25
ATOM     25  C   UNL     1      -3.728  13.878  22.472  0.00  0.00    +0.000 A 
ATOM     26  C   UNL     1      -4.949  14.042  21.794  0.00  0.00    +0.000 A 
ATOM     27  C   UNL     1      -6.142  13.568  22.348  0.00  0.00    +0.000 A 
ATOM     28  C   UNL     1      -6.111  12.919  23.577  0.00  0.00    +0.000 A 
ATOM     29  C   UNL     1      -4.907  12.761  24.257  0.00  0.00    +0.000 A 
ATOM     30  C   UNL     1      -3.719  13.235  23.719  0.00  0.00    +0.000 A 
BRANCH  28  31
ATOM     31  O   UNL     1      -7.241  12.404  24.151  0.00  0.00    +0.000 OA
ATOM     32  H   UNL     1      -7.848  12.147  23.437  0.00  0.00    +0.000 HD
ENDBRANCH  28  31
BRANCH  29  33
ATOM     33  O   UNL     1      -4.880  12.117  25.461  0.00  0.00    +0.000 OA
ATOM     34  H   UNL     1      -5.822  11.985  25.689  0.00  0.00    +0.000 HD
ENDBRANCH  29  33
ENDBRANCH  24  25
ENDBRANCH   4  24
TORSDOF 7
ENDMDL
MODEL 7
REMARK VINA RESULT:      -8.2      5.553     11.549
REMARK  Name = 
REMARK  8 active torsions:
REMARK  status: ('A' for Active; 'I' for Inactive)
REMARK    1  A    between atoms: C_1  and  S_2
REMARK    2  A    between atoms: S_2  and  C_5
REMARK    3  A    between atoms: C_8  and  C_9
REMARK    4  A    between atoms: C_12  and  C_13
REMARK    5  A    between atoms: C_13  and  C_14
REMARK    6  A    between atoms: C_17  and  O_18
REMARK    7  A    between atoms: C_19  and  O_20
REMARK    8  A    between atoms: C_23  and  C_24
REMARK                            x       y       z     vdW  Elec       q    Type
REMARK                         _______ _______ _______ _____ _____    ______ ____
ROOT
ATOM      1  C   UNL     1      -0.000  10.939  20.362  0.00  0.00    +0.000 A 
ATOM      2  C   UNL     1       0.357  11.542  21.560  0.00  0.00    +0.000 A 
ATOM      3  N   UNL     1      -0.284  12.570  22.140  0.00  0.00    +0.000 NA
ATOM      4  C   UNL     1      -1.339  13.058  21.467  0.00  0.00    +0.000 A 
ATOM      5  N   UNL     1      -1.763  12.585  20.284  0.00  0.00    +0.000 NA
ATOM      6  C   UNL     1      -1.121  11.515  19.749  0.00  0.00    +0.000 A 
ENDROOT
BRANCH   6   7
ATOM      7  C   UNL     1      -1.766  11.017  18.500  0.00  0.00    +0.000 A 
ATOM      8  C   UNL     1      -2.507   9.818  18.498  0.00  0.00    +0.000 A 
ATOM      9  C   UNL     1      -3.175   9.396  17.355  0.00  0.00    +0.000 A 
ATOM     10  C   UNL     1      -3.151  10.177  16.203  0.00  0.00    +0.000 A 
ATOM     11  F   UNL     1      -3.809   9.778  15.105  0.00  0.00    +0.000 F 
ATOM     12  C   UNL     1      -2.429  11.342  16.156  0.00  0.00    +0.000 A 
ATOM     13  C   UNL     1      -1.693  11.717  17.280  0.00  0.00    +0.000 A 
ENDBRANCH   6   7
BRANCH   1  17
ATOM     14  C   UNL     1       2.211   7.625  18.800  0.00  0.00    +0.000 A 
ATOM     15  C   UNL     1       1.838   7.635  20.135  0.00  0.00    +0.000 A 
ATOM     16  C   UNL     1       1.104   8.699  20.651  0.00  0.00    +0.000 A 
ATOM     17  C   UNL     1       0.797   9.804  19.836  0.00  0.00    +0.000 A 
ATOM     18  C   UNL     1       1.258   9.796  18.508  0.00  0.00    +0.000 A 
ATOM     19  C   UNL     1       1.919   8.698  17.961  0.00  0.00    +0.000 A 
BRANCH  14  21
ATOM     20  C   UNL     1       3.930   5.625  19.548  0.00  0.00    +0.000 C 
ATOM     21  S   UNL     1       3.067   6.237  18.125  0.00  0.00    +0.000 S 
ATOM     22  O   UNL     1       4.047   6.749  17.176  0.00  0.00    +0.000 OA
ATOM     23  O   UNL     1       2.075   5.265  17.722  0.00  0.00    +0.000 OA
ENDBRANCH  14  21
ENDBRANCH   1  17
BRANCH   4  24
ATOM     24  C   UNL     1      -2.190  14.102  22.146  0.00  0.00    +0.000 C 
BRANCH  24  25
ATOM     25  C   UNL     1      -3.492  13.588  22.713  0.00  0.00    +0.000 A 
ATOM     26  C   UNL     1      -3.538  13.004  23.991  0.00  0.00    +0.000 A 
ATOM     27  C   UNL     1      -4.748  12.545  24.522  0.00  0.00    +0.000 A 
ATOM     28  C   UNL     1      -5.913  12.681  23.777  0.00  0.00    +0.000 A 
ATOM     29  C   UNL     1      -5.873  13.250  22.507  0.00  0.00    +0.000 A 
ATOM     30  C   UNL     1      -4.676  13.702  21.969  0.00  0.00    +0.000 A 
BRANCH  28  31
ATOM     31  O   UNL     1      -7.130  12.282  24.258  0.00  0.00    +0.000 OA
ATOM     32  H   UNL     1      -7.457  11.567  23.686  0.00  0.00    +0.000 HD
ENDBRANCH  28  31
BRANCH  29  33
ATOM     33  O   UNL     1      -7.021  13.388  21.782  0.00  0.00    +0.000 OA
ATOM     34  H   UNL     1      -7.264  12.475  21.531  0.00  0.00    +0.000 HD
ENDBRANCH  29  33
ENDBRANCH  24  25
ENDBRANCH   4  24
TORSDOF 7
ENDMDL
MODEL 8
REMARK VINA RESULT:      -8.2      1.690      2.143
REMARK  Name = 
REMARK  8 active torsions:
REMARK  status: ('A' for Active; 'I' for Inactive)
REMARK    1  A    between atoms: C_1  and  S_2
REMARK    2  A    between atoms: S_2  and  C_5
REMARK    3  A    between atoms: C_8  and  C_9
REMARK    4  A    between atoms: C_12  and  C_13
REMARK    5  A    between atoms: C_13  and  C_14
REMARK    6  A    between atoms: C_17  and  O_18
REMARK    7  A    between atoms: C_19  and  O_20
REMARK    8  A    between atoms: C_23  and  C_24
REMARK                            x       y       z     vdW  Elec       q    Type
REMARK                         _______ _______ _______ _____ _____    ______ ____
ROOT
ATOM      1  C   UNL     1       4.061   6.556  17.342  0.00  0.00    +0.000 A 
ATOM      2  C   UNL     1       4.885   7.201  16.431  0.00  0.00    +0.000 A 
ATOM      3  N   UNL     1       5.800   6.607  15.646  0.00  0.00    +0.000 NA
ATOM      4  C   UNL     1       5.930   5.279  15.798  0.00  0.00    +0.000 A 
ATOM      5  N   UNL     1       5.217   4.547  16.670  0.00  0.00    +0.000 NA
ATOM      6  C   UNL     1       4.268   5.172  17.414  0.00  0.00    +0.000 A 
ENDROOT
BRANCH   6   7
ATOM      7  C   UNL     1       3.469   4.227  18.247  0.00  0.00    +0.000 A 
ATOM      8  C   UNL     1       4.004   3.675  19.427  0.00  0.00    +0.000 A 
ATOM      9  C   UNL     1       3.232   2.859  20.245  0.00  0.00    +0.000 A 
ATOM     10  C   UNL     1       1.902   2.606  19.924  0.00  0.00    +0.000 A 
ATOM     11  F   UNL     1       1.152   1.832  20.721  0.00  0.00    +0.000 F 
ATOM     12  C   UNL     1       1.346   3.110  18.775  0.00  0.00    +0.000 A 
ATOM     13  C   UNL     1       2.150   3.859  17.918  0.00  0.00    +0.000 A 
ENDBRANCH   6   7
BRANCH   1  17
ATOM     14  C   UNL     1       1.331   8.878  19.680  0.00  0.00    +0.000 A 
ATOM     15  C   UNL     1       1.877   7.719  20.210  0.00  0.00    +0.000 A 
ATOM     16  C   UNL     1       2.778   6.964  19.466  0.00  0.00    +0.000 A 
ATOM     17  C   UNL     1       3.088   7.336  18.144  0.00  0.00    +0.000 A 
ATOM     18  C   UNL     1       2.457   8.474  17.612  0.00  0.00    +0.000 A 
ATOM     19  C   UNL     1       1.619   9.281  18.379  0.00  0.00    +0.000 A 
BRANCH  14  21
ATOM     20  C   UNL     1      -0.359   8.704  21.832  0.00  0.00    +0.000 C 
ATOM     21  S   UNL     1       0.255   9.881  20.655  0.00  0.00    +0.000 S 
ATOM     22  O   UNL     1      -0.849  10.295  19.798  0.00  0.00    +0.000 OA
ATOM     23  O   UNL     1       1.070  10.856  21.344  0.00  0.00    +0.000 OA
ENDBRANCH  14  21
ENDBRANCH   1  17
BRANCH   4  24
ATOM     24  C   UNL     1       6.823   4.540  14.834  0.00  0.00    +0.000 C 
BRANCH  24  25
ATOM     25  C   UNL     1       6.108   3.920  13.657  0.00  0.00    +0.000 A 
ATOM     26  C   UNL     1       4.814   4.337  13.300  0.00  0.00    +0.000 A 
ATOM     27  C   UNL     1       4.161   3.775  12.199  0.00  0.00    +0.000 A 
ATOM     28  C   UNL     1       4.810   2.801  11.448  0.00  0.00    +0.000 A 
ATOM     29  C   UNL     1       6.088   2.377  11.801  0.00  0.00    +0.000 A 
ATOM     30  C   UNL     1       6.740   2.925  12.897  0.00  0.00    +0.000 A 
BRANCH  28  31
ATOM     31  O   UNL     1       4.235   2.240  10.341  0.00  0.00    +0.000 OA
ATOM     32  H   UNL     1       4.667   2.618   9.556  0.00  0.00    +0.000 HD
ENDBRANCH  28  31
BRANCH  29  33
ATOM     33  O   UNL     1       6.724   1.426  11.056  0.00  0.00    +0.000 OA
ATOM     34  H   UNL     1       6.947   1.878  10.219  0.00  0.00    +0.000 HD
ENDBRANCH  29  33
ENDBRANCH  24  25
ENDBRANCH   4  24
TORSDOF 7
ENDMDL
MODEL 9
REMARK VINA RESULT:      -8.2      5.502     11.661
REMARK  Name = 
REMARK  8 active torsions:
REMARK  status: ('A' for Active; 'I' for Inactive)
REMARK    1  A    between atoms: C_1  and  S_2
REMARK    2  A    between atoms: S_2  and  C_5
REMARK    3  A    between atoms: C_8  and  C_9
REMARK    4  A    between atoms: C_12  and  C_13
REMARK    5  A    between atoms: C_13  and  C_14
REMARK    6  A    between atoms: C_17  and  O_18
REMARK    7  A    between atoms: C_19  and  O_20
REMARK    8  A    between atoms: C_23  and  C_24
REMARK                            x       y       z     vdW  Elec       q    Type
REMARK                         _______ _______ _______ _____ _____    ______ ____
ROOT
ATOM      1  C   UNL     1      -0.149  10.897  20.571  0.00  0.00    +0.000 A 
ATOM      2  C   UNL     1       0.203  11.457  21.791  0.00  0.00    +0.000 A 
ATOM      3  N   UNL     1      -0.427  12.479  22.393  0.00  0.00    +0.000 NA
ATOM      4  C   UNL     1      -1.464  13.006  21.722  0.00  0.00    +0.000 A 
ATOM      5  N   UNL     1      -1.880  12.577  20.520  0.00  0.00    +0.000 NA
ATOM      6  C   UNL     1      -1.250  11.511  19.961  0.00  0.00    +0.000 A 
ENDROOT
BRANCH   6   7
ATOM      7  C   UNL     1      -1.887  11.063  18.689  0.00  0.00    +0.000 A 
ATOM      8  C   UNL     1      -1.757  11.820  17.509  0.00  0.00    +0.000 A 
ATOM      9  C   UNL     1      -2.283  11.361  16.307  0.00  0.00    +0.000 A 
ATOM     10  C   UNL     1      -2.915  10.123  16.248  0.00  0.00    +0.000 A 
ATOM     11  F   UNL     1      -3.407   9.673  15.085  0.00  0.00    +0.000 F 
ATOM     12  C   UNL     1      -3.078   9.361  17.377  0.00  0.00    +0.000 A 
ATOM     13  C   UNL     1      -2.623   9.865  18.594  0.00  0.00    +0.000 A 
ENDBRANCH   6   7
BRANCH   1  17
ATOM     14  C   UNL     1       2.200   7.667  19.033  0.00  0.00    +0.000 A 
ATOM     15  C   UNL     1       1.884   8.739  18.213  0.00  0.00    +0.000 A 
ATOM     16  C   UNL     1       1.134   9.803  18.705  0.00  0.00    +0.000 A 
ATOM     17  C   UNL     1       0.635   9.765  20.021  0.00  0.00    +0.000 A 
ATOM     18  C   UNL     1       0.911   8.627  20.800  0.00  0.00    +0.000 A 
ATOM     19  C   UNL     1       1.730   7.597  20.342  0.00  0.00    +0.000 A 
BRANCH  14  21
ATOM     20  C   UNL     1       2.012   5.177  17.902  0.00  0.00    +0.000 C 
ATOM     21  S   UNL     1       3.222   6.359  18.434  0.00  0.00    +0.000 S 
ATOM     22  O   UNL     1       3.935   5.806  19.578  0.00  0.00    +0.000 OA
ATOM     23  O   UNL     1       3.936   6.855  17.279  0.00  0.00    +0.000 OA
ENDBRANCH  14  21
ENDBRANCH   1  17
BRANCH   4  24
ATOM     24  C   UNL     1      -2.306  14.045  22.421  0.00  0.00    +0.000 C 
BRANCH  24  25
ATOM     25  C   UNL     1      -3.654  13.555  22.892  0.00  0.00    +0.000 A 
ATOM     26  C   UNL     1      -3.781  12.854  24.104  0.00  0.00    +0.000 A 
ATOM     27  C   UNL     1      -5.033  12.417  24.549  0.00  0.00    +0.000 A 
ATOM     28  C   UNL     1      -6.160  12.693  23.784  0.00  0.00    +0.000 A 
ATOM     29  C   UNL     1      -6.040  13.379  22.579  0.00  0.00    +0.000 A 
ATOM     30  C   UNL     1      -4.801  13.809  22.127  0.00  0.00    +0.000 A 
BRANCH  28  31
ATOM     31  O   UNL     1      -7.414  12.320  24.184  0.00  0.00    +0.000 OA
ATOM     32  H   UNL     1      -7.516  12.571  25.118  0.00  0.00    +0.000 HD
ENDBRANCH  28  31
BRANCH  29  33
ATOM     33  O   UNL     1      -7.152  13.653  21.834  0.00  0.00    +0.000 OA
ATOM     34  H   UNL     1      -6.806  14.081  21.026  0.00  0.00    +0.000 HD
ENDBRANCH  29  33
ENDBRANCH  24  25
ENDBRANCH   4  24
TORSDOF 7
ENDMDL
