MODEL 1
REMARK VINA RESULT:      -8.6      0.000      0.000
REMARK  Name = 
REMARK  9 active torsions:
REMARK  status: ('A' for Active; 'I' for Inactive)
REMARK    1  A    between atoms: O_1  and  C_2
REMARK    2  A    between atoms: C_2  and  C_3
REMARK    3  A    between atoms: C_5  and  C_6
REMARK    4  A    between atoms: C_11  and  C_12
REMARK    5  A    between atoms: C_12  and  C_13
REMARK    6  A    between atoms: N_17  and  C_18
REMARK    7  A    between atoms: C_27  and  O_28
REMARK    8  A    between atoms: C_29  and  O_30
REMARK    9  A    between atoms: C_31  and  O_32
REMARK                            x       y       z     vdW  Elec       q    Type
REMARK                         _______ _______ _______ _____ _____    ______ ____
ROOT
ATOM      1  C   UNL     1       2.201   7.092  19.025  0.00  0.00    +0.000 A 
ATOM      2  C   UNL     1       2.001   7.004  20.409  0.00  0.00    +0.000 A 
ATOM      3  C   UNL     1       1.401   8.051  21.106  0.00  0.00    +0.000 A 
ATOM      4  C   UNL     1       0.978   9.196  20.429  0.00  0.00    +0.000 A 
ATOM      5 CL   UNL     1       0.167  10.406  21.358  0.00  0.00    +0.000 Cl
ATOM      6  C   UNL     1       1.169   9.319  19.043  0.00  0.00    +0.000 A 
ATOM      7  C   UNL     1       1.803   8.261  18.359  0.00  0.00    +0.000 A 
ENDROOT
BRANCH   1  10
ATOM      8  C   UNL     1       2.290   3.570  17.954  0.00  0.00    +0.000 C 
ATOM      9  O   UNL     1       1.930   4.806  18.578  0.00  0.00    +0.000 OA
ATOM     10  C   UNL     1       2.771   5.915  18.254  0.00  0.00    +0.000 C 
ATOM     11  C   UNL     1       4.247   5.632  18.604  0.00  0.00    +0.000 C 
ATOM     12  C   UNL     1       4.686   4.324  17.931  0.00  0.00    +0.000 C 
ATOM     13  C   UNL     1       3.734   3.166  18.272  0.00  0.00    +0.000 C 
BRANCH  11  14
ATOM     14  O   UNL     1       5.109   6.700  18.191  0.00  0.00    +0.000 OA
ATOM     15  H   UNL     1       4.969   6.876  17.245  0.00  0.00    +0.000 HD
ENDBRANCH  11  14
BRANCH  12  16
ATOM     16  O   UNL     1       6.027   3.957  18.297  0.00  0.00    +0.000 OA
ATOM     17  H   UNL     1       6.561   3.913  17.484  0.00  0.00    +0.000 HD
ENDBRANCH  12  16
BRANCH  13  18
ATOM     18  O   UNL     1       4.065   1.997  17.508  0.00  0.00    +0.000 OA
ATOM     19  H   UNL     1       3.480   1.271  17.795  0.00  0.00    +0.000 HD
ENDBRANCH  13  18
BRANCH   8  20
ATOM     20  C   UNL     1       1.291   2.498  18.421  0.00  0.00    +0.000 C 
BRANCH  20  21
ATOM     21  O   UNL     1       1.962   1.443  19.113  0.00  0.00    +0.000 OA
ATOM     22  H   UNL     1       2.555   1.019  18.470  0.00  0.00    +0.000 HD
ENDBRANCH  20  21
ENDBRANCH   8  20
ENDBRANCH   1  10
BRANCH   6  23
ATOM     23  C   UNL     1       0.671  10.502  18.242  0.00  0.00    +0.000 C 
BRANCH  23  24
ATOM     24  C   UNL     1      -0.810  10.543  17.969  0.00  0.00    +0.000 A 
ATOM     25  C   UNL     1      -1.425   9.651  17.106  0.00  0.00    +0.000 A 
ATOM     26  C   UNL     1      -2.770   9.833  16.787  0.00  0.00    +0.000 A 
ATOM     27  C   UNL     1      -3.478  10.889  17.345  0.00  0.00    +0.000 A 
ATOM     28  N   UNL     1      -4.839  11.044  16.990  0.00  0.00    +0.000 N 
ATOM     29  N   UNL     1      -2.852  11.713  18.211  0.00  0.00    +0.000 NA
ATOM     30  N   UNL     1      -1.516  11.548  18.523  0.00  0.00    +0.000 NA
ATOM     31  H   UNL     1      -4.939  11.030  15.981  0.00  0.00    +0.000 HD
BRANCH  28  32
ATOM     32  C   UNL     1      -5.815  11.855  17.609  0.00  0.00    +0.000 A 
ATOM     33  C   UNL     1      -6.486  11.470  18.777  0.00  0.00    +0.000 A 
ATOM     34  C   UNL     1      -7.508  12.260  19.332  0.00  0.00    +0.000 A 
ATOM     35  C   UNL     1      -7.884  13.437  18.703  0.00  0.00    +0.000 A 
ATOM     36  C   UNL     1      -7.258  13.822  17.520  0.00  0.00    +0.000 A 
ATOM     37  C   UNL     1      -6.240  13.032  16.973  0.00  0.00    +0.000 A 
ENDBRANCH  28  32
ENDBRANCH  23  24
ENDBRANCH   6  23
TORSDOF 9
ENDMDL
MODEL 2
REMARK VINA RESULT:      -8.4      5.855     10.281
REMARK  Name = 
REMARK  9 active torsions:
REMARK  status: ('A' for Active; 'I' for Inactive)
REMARK    1  A    between atoms: O_1  and  C_2
REMARK    2  A    between atoms: C_2  and  C_3
REMARK    3  A    between atoms: C_5  and  C_6
REMARK    4  A    between atoms: C_11  and  C_12
REMARK    5  A    between atoms: C_12  and  C_13
REMARK    6  A    between atoms: N_17  and  C_18
REMARK    7  A    between atoms: C_27  and  O_28
REMARK    8  A    between atoms: C_29  and  O_30
REMARK    9  A    between atoms: C_31  and  O_32
REMARK                            x       y       z     vdW  Elec       q    Type
REMARK                         _______ _______ _______ _____ _____    ______ ____
ROOT
ATOM      1  C   UNL     1       2.533   7.099  18.766  0.00  0.00    +0.000 A 
ATOM      2  C   UNL     1       1.792   5.946  19.061  0.00  0.00    +0.000 A 
ATOM      3  C   UNL     1       2.229   4.694  18.634  0.00  0.00    +0.000 A 
ATOM      4  C   UNL     1       3.423   4.572  17.919  0.00  0.00    +0.000 A 
ATOM      5 CL   UNL     1       3.932   2.973  17.506  0.00  0.00    +0.000 Cl
ATOM      6  C   UNL     1       4.187   5.706  17.602  0.00  0.00    +0.000 A 
ATOM      7  C   UNL     1       3.714   6.968  18.018  0.00  0.00    +0.000 A 
ENDROOT
BRANCH   1  10
ATOM      8  C   UNL     1       0.887   9.312  21.205  0.00  0.00    +0.000 C 
ATOM      9  O   UNL     1       1.394   8.166  20.516  0.00  0.00    +0.000 OA
ATOM     10  C   UNL     1       2.104   8.449  19.309  0.00  0.00    +0.000 C 
ATOM     11  C   UNL     1       1.236   9.244  18.310  0.00  0.00    +0.000 C 
ATOM     12  C   UNL     1       0.690  10.502  19.001  0.00  0.00    +0.000 C 
ATOM     13  C   UNL     1      -0.031  10.157  20.315  0.00  0.00    +0.000 C 
BRANCH  11  14
ATOM     14  O   UNL     1       1.973   9.618  17.139  0.00  0.00    +0.000 OA
ATOM     15  H   UNL     1       2.482   8.851  16.824  0.00  0.00    +0.000 HD
ENDBRANCH  11  14
BRANCH  12  16
ATOM     16  O   UNL     1      -0.204  11.236  18.148  0.00  0.00    +0.000 OA
ATOM     17  H   UNL     1       0.209  12.094  17.943  0.00  0.00    +0.000 HD
ENDBRANCH  12  16
BRANCH  13  18
ATOM     18  O   UNL     1      -0.389  11.353  21.023  0.00  0.00    +0.000 OA
ATOM     19  H   UNL     1      -1.047  11.836  20.490  0.00  0.00    +0.000 HD
ENDBRANCH  13  18
BRANCH   8  20
ATOM     20  C   UNL     1       0.152   8.820  22.462  0.00  0.00    +0.000 C 
BRANCH  20  21
ATOM     21  O   UNL     1       0.367   9.709  23.560  0.00  0.00    +0.000 OA
ATOM     22  H   UNL     1       0.499   9.154  24.347  0.00  0.00    +0.000 HD
ENDBRANCH  20  21
ENDBRANCH   8  20
ENDBRANCH   1  10
BRANCH   6  23
ATOM     23  C   UNL     1       5.521   5.633  16.893  0.00  0.00    +0.000 C 
BRANCH  23  24
ATOM     24  C   UNL     1       6.589   6.571  17.388  0.00  0.00    +0.000 A 
ATOM     25  C   UNL     1       7.431   6.242  18.438  0.00  0.00    +0.000 A 
ATOM     26  C   UNL     1       8.301   7.210  18.940  0.00  0.00    +0.000 A 
ATOM     27  C   UNL     1       8.325   8.478  18.377  0.00  0.00    +0.000 A 
ATOM     28  N   UNL     1       9.216   9.433  18.921  0.00  0.00    +0.000 N 
ATOM     29  N   UNL     1       7.517   8.747  17.331  0.00  0.00    +0.000 NA
ATOM     30  N   UNL     1       6.643   7.799  16.835  0.00  0.00    +0.000 NA
ATOM     31  H   UNL     1       9.103   9.482  19.928  0.00  0.00    +0.000 HD
BRANCH  28  32
ATOM     32  C   UNL     1       9.608  10.673  18.370  0.00  0.00    +0.000 A 
ATOM     33  C   UNL     1      10.952  11.040  18.216  0.00  0.00    +0.000 A 
ATOM     34  C   UNL     1      11.316  12.310  17.735  0.00  0.00    +0.000 A 
ATOM     35  C   UNL     1      10.332  13.236  17.428  0.00  0.00    +0.000 A 
ATOM     36  C   UNL     1       8.990  12.909  17.608  0.00  0.00    +0.000 A 
ATOM     37  C   UNL     1       8.633  11.642  18.085  0.00  0.00    +0.000 A 
ENDBRANCH  28  32
ENDBRANCH  23  24
ENDBRANCH   6  23
TORSDOF 9
ENDMDL
MODEL 3
REMARK VINA RESULT:      -8.4      1.165      1.576
REMARK  Name = 
REMARK  9 active torsions:
REMARK  status: ('A' for Active; 'I' for Inactive)
REMARK    1  A    between atoms: O_1  and  C_2
REMARK    2  A    between atoms: C_2  and  C_3
REMARK    3  A    between atoms: C_5  and  C_6
REMARK    4  A    between atoms: C_11  and  C_12
REMARK    5  A    between atoms: C_12  and  C_13
REMARK    6  A    between atoms: N_17  and  C_18
REMARK    7  A    between atoms: C_27  and  O_28
REMARK    8  A    between atoms: C_29  and  O_30
REMARK    9  A    between atoms: C_31  and  O_32
REMARK                            x       y       z     vdW  Elec       q    Type
REMARK                         _______ _______ _______ _____ _____    ______ ____
ROOT
ATOM      1  C   UNL     1       2.319   7.231  18.843  0.00  0.00    +0.000 A 
ATOM      2  C   UNL     1       2.093   6.909  20.189  0.00  0.00    +0.000 A 
ATOM      3  C   UNL     1       1.423   7.799  21.027  0.00  0.00    +0.000 A 
ATOM      4  C   UNL     1       0.955   9.017  20.530  0.00  0.00    +0.000 A 
ATOM      5 CL   UNL     1       0.061  10.019  21.617  0.00  0.00    +0.000 Cl
ATOM      6  C   UNL     1       1.170   9.373  19.188  0.00  0.00    +0.000 A 
ATOM      7  C   UNL     1       1.874   8.472  18.363  0.00  0.00    +0.000 A 
ENDROOT
BRANCH   1  10
ATOM      8  C   UNL     1       3.792   3.959  18.015  0.00  0.00    +0.000 C 
ATOM      9  O   UNL     1       3.178   5.053  18.702  0.00  0.00    +0.000 OA
ATOM     10  C   UNL     1       2.966   6.224  17.910  0.00  0.00    +0.000 C 
ATOM     11  C   UNL     1       4.284   6.743  17.296  0.00  0.00    +0.000 C 
ATOM     12  C   UNL     1       4.966   5.605  16.523  0.00  0.00    +0.000 C 
ATOM     13  C   UNL     1       5.139   4.352  17.398  0.00  0.00    +0.000 C 
BRANCH  11  14
ATOM     14  O   UNL     1       4.065   7.857  16.422  0.00  0.00    +0.000 OA
ATOM     15  H   UNL     1       4.889   8.055  15.945  0.00  0.00    +0.000 HD
ENDBRANCH  11  14
BRANCH  12  16
ATOM     16  O   UNL     1       6.247   6.002  16.007  0.00  0.00    +0.000 OA
ATOM     17  H   UNL     1       6.106   6.429  15.143  0.00  0.00    +0.000 HD
ENDBRANCH  12  16
BRANCH  13  18
ATOM     18  O   UNL     1       5.627   3.253  16.615  0.00  0.00    +0.000 OA
ATOM     19  H   UNL     1       4.858   2.743  16.296  0.00  0.00    +0.000 HD
ENDBRANCH  13  18
BRANCH   8  20
ATOM     20  C   UNL     1       3.948   2.802  19.014  0.00  0.00    +0.000 C 
BRANCH  20  21
ATOM     21  O   UNL     1       5.253   2.804  19.597  0.00  0.00    +0.000 OA
ATOM     22  H   UNL     1       5.395   1.916  19.967  0.00  0.00    +0.000 HD
ENDBRANCH  20  21
ENDBRANCH   8  20
ENDBRANCH   1  10
BRANCH   6  23
ATOM     23  C   UNL     1       0.627  10.644  18.573  0.00  0.00    +0.000 C 
BRANCH  23  24
ATOM     24  C   UNL     1      -0.833  10.634  18.207  0.00  0.00    +0.000 A 
ATOM     25  C   UNL     1      -1.352   9.754  17.271  0.00  0.00    +0.000 A 
ATOM     26  C   UNL     1      -2.681   9.893  16.873  0.00  0.00    +0.000 A 
ATOM     27  C   UNL     1      -3.469  10.893  17.425  0.00  0.00    +0.000 A 
ATOM     28  N   UNL     1      -4.811  11.005  16.989  0.00  0.00    +0.000 N 
ATOM     29  N   UNL     1      -2.937  11.705  18.361  0.00  0.00    +0.000 NA
ATOM     30  N   UNL     1      -1.618  11.584  18.753  0.00  0.00    +0.000 NA
ATOM     31  H   UNL     1      -4.846  11.029  15.975  0.00  0.00    +0.000 HD
BRANCH  28  32
ATOM     32  C   UNL     1      -5.860  11.748  17.575  0.00  0.00    +0.000 A 
ATOM     33  C   UNL     1      -6.239  13.014  17.111  0.00  0.00    +0.000 A 
ATOM     34  C   UNL     1      -7.236  13.766  17.758  0.00  0.00    +0.000 A 
ATOM     35  C   UNL     1      -7.845  13.261  18.896  0.00  0.00    +0.000 A 
ATOM     36  C   UNL     1      -7.458  12.021  19.399  0.00  0.00    +0.000 A 
ATOM     37  C   UNL     1      -6.467  11.276  18.749  0.00  0.00    +0.000 A 
ENDBRANCH  28  32
ENDBRANCH  23  24
ENDBRANCH   6  23
TORSDOF 9
ENDMDL
MODEL 4
REMARK VINA RESULT:      -8.3      0.935      1.066
REMARK  Name = 
REMARK  9 active torsions:
REMARK  status: ('A' for Active; 'I' for Inactive)
REMARK    1  A    between atoms: O_1  and  C_2
REMARK    2  A    between atoms: C_2  and  C_3
REMARK    3  A    between atoms: C_5  and  C_6
REMARK    4  A    between atoms: C_11  and  C_12
REMARK    5  A    between atoms: C_12  and  C_13
REMARK    6  A    between atoms: N_17  and  C_18
REMARK    7  A    between atoms: C_27  and  O_28
REMARK    8  A    between atoms: C_29  and  O_30
REMARK    9  A    between atoms: C_31  and  O_32
REMARK                            x       y       z     vdW  Elec       q    Type
REMARK                         _______ _______ _______ _____ _____    ______ ____
ROOT
ATOM      1  C   UNL     1       2.612   7.090  18.649  0.00  0.00    +0.000 A 
ATOM      2  C   UNL     1       2.310   6.621  19.934  0.00  0.00    +0.000 A 
ATOM      3  C   UNL     1       1.564   7.401  20.816  0.00  0.00    +0.000 A 
ATOM      4  C   UNL     1       1.095   8.656  20.420  0.00  0.00    +0.000 A 
ATOM      5 CL   UNL     1       0.105   9.517  21.545  0.00  0.00    +0.000 Cl
ATOM      6  C   UNL     1       1.384   9.158  19.141  0.00  0.00    +0.000 A 
ATOM      7  C   UNL     1       2.164   8.366  18.274  0.00  0.00    +0.000 A 
ENDROOT
BRANCH   1  10
ATOM      8  C   UNL     1       3.549   3.848  17.176  0.00  0.00    +0.000 C 
ATOM      9  O   UNL     1       2.963   4.866  17.992  0.00  0.00    +0.000 OA
ATOM     10  C   UNL     1       3.345   6.202  17.659  0.00  0.00    +0.000 C 
ATOM     11  C   UNL     1       4.876   6.388  17.715  0.00  0.00    +0.000 C 
ATOM     12  C   UNL     1       5.548   5.329  16.828  0.00  0.00    +0.000 C 
ATOM     13  C   UNL     1       5.080   3.910  17.191  0.00  0.00    +0.000 C 
BRANCH  11  14
ATOM     14  O   UNL     1       5.273   7.697  17.287  0.00  0.00    +0.000 OA
ATOM     15  H   UNL     1       6.125   7.923  17.698  0.00  0.00    +0.000 HD
ENDBRANCH  11  14
BRANCH  12  16
ATOM     16  O   UNL     1       6.982   5.391  16.914  0.00  0.00    +0.000 OA
ATOM     17  H   UNL     1       7.351   4.923  16.143  0.00  0.00    +0.000 HD
ENDBRANCH  12  16
BRANCH  13  18
ATOM     18  O   UNL     1       5.592   2.954  16.251  0.00  0.00    +0.000 OA
ATOM     19  H   UNL     1       5.520   3.339  15.358  0.00  0.00    +0.000 HD
ENDBRANCH  13  18
BRANCH   8  20
ATOM     20  C   UNL     1       3.038   2.488  17.679  0.00  0.00    +0.000 C 
BRANCH  20  21
ATOM     21  O   UNL     1       3.957   1.908  18.606  0.00  0.00    +0.000 OA
ATOM     22  H   UNL     1       3.601   1.035  18.844  0.00  0.00    +0.000 HD
ENDBRANCH  20  21
ENDBRANCH   8  20
ENDBRANCH   1  10
BRANCH   6  23
ATOM     23  C   UNL     1       0.846  10.476  18.629  0.00  0.00    +0.000 C 
BRANCH  23  24
ATOM     24  C   UNL     1      -0.615  10.502  18.267  0.00  0.00    +0.000 A 
ATOM     25  C   UNL     1      -1.149   9.667  17.301  0.00  0.00    +0.000 A 
ATOM     26  C   UNL     1      -2.478   9.840  16.913  0.00  0.00    +0.000 A 
ATOM     27  C   UNL     1      -3.249  10.831  17.505  0.00  0.00    +0.000 A 
ATOM     28  N   UNL     1      -4.590  10.980  17.078  0.00  0.00    +0.000 N 
ATOM     29  N   UNL     1      -2.702  11.598  18.470  0.00  0.00    +0.000 NA
ATOM     30  N   UNL     1      -1.384  11.442  18.852  0.00  0.00    +0.000 NA
ATOM     31  H   UNL     1      -4.628  11.043  16.066  0.00  0.00    +0.000 HD
BRANCH  28  32
ATOM     32  C   UNL     1      -5.626  11.714  17.695  0.00  0.00    +0.000 A 
ATOM     33  C   UNL     1      -6.290  11.264  18.844  0.00  0.00    +0.000 A 
ATOM     34  C   UNL     1      -7.369  11.977  19.396  0.00  0.00    +0.000 A 
ATOM     35  C   UNL     1      -7.809  13.139  18.783  0.00  0.00    +0.000 A 
ATOM     36  C   UNL     1      -7.190  13.587  17.618  0.00  0.00    +0.000 A 
ATOM     37  C   UNL     1      -6.115  12.875  17.074  0.00  0.00    +0.000 A 
ENDBRANCH  28  32
ENDBRANCH  23  24
ENDBRANCH   6  23
TORSDOF 9
ENDMDL
MODEL 5
REMARK VINA RESULT:      -8.3      5.695     10.392
REMARK  Name = 
REMARK  9 active torsions:
REMARK  status: ('A' for Active; 'I' for Inactive)
REMARK    1  A    between atoms: O_1  and  C_2
REMARK    2  A    between atoms: C_2  and  C_3
REMARK    3  A    between atoms: C_5  and  C_6
REMARK    4  A    between atoms: C_11  and  C_12
REMARK    5  A    between atoms: C_12  and  C_13
REMARK    6  A    between atoms: N_17  and  C_18
REMARK    7  A    between atoms: C_27  and  O_28
REMARK    8  A    between atoms: C_29  and  O_30
REMARK    9  A    between atoms: C_31  and  O_32
REMARK                            x       y       z     vdW  Elec       q    Type
REMARK                         _______ _______ _______ _____ _____    ______ ____
ROOT
ATOM      1  C   UNL     1       2.380   6.564  19.815  0.00  0.00    +0.000 A 
ATOM      2  C   UNL     1       1.480   5.536  20.126  0.00  0.00    +0.000 A 
ATOM      3  C   UNL     1       1.890   4.205  20.110  0.00  0.00    +0.000 A 
ATOM      4  C   UNL     1       3.212   3.880  19.796  0.00  0.00    +0.000 A 
ATOM      5 CL   UNL     1       3.655   2.212  19.885  0.00  0.00    +0.000 Cl
ATOM      6  C   UNL     1       4.139   4.885  19.474  0.00  0.00    +0.000 A 
ATOM      7  C   UNL     1       3.697   6.224  19.469  0.00  0.00    +0.000 A 
ENDROOT
BRANCH   1  10
ATOM      8  C   UNL     1       0.532   9.368  21.325  0.00  0.00    +0.000 C 
ATOM      9  O   UNL     1       1.066   8.072  21.038  0.00  0.00    +0.000 OA
ATOM     10  C   UNL     1       1.956   8.017  19.922  0.00  0.00    +0.000 C 
ATOM     11  C   UNL     1       1.287   8.539  18.633  0.00  0.00    +0.000 C 
ATOM     12  C   UNL     1       0.722   9.944  18.887  0.00  0.00    +0.000 C 
ATOM     13  C   UNL     1      -0.198   9.968  20.119  0.00  0.00    +0.000 C 
BRANCH  11  14
ATOM     14  O   UNL     1       2.204   8.580  17.532  0.00  0.00    +0.000 OA
ATOM     15  H   UNL     1       2.729   7.761  17.523  0.00  0.00    +0.000 HD
ENDBRANCH  11  14
BRANCH  12  16
ATOM     16  O   UNL     1       0.002  10.445  17.748  0.00  0.00    +0.000 OA
ATOM     17  H   UNL     1       0.650  10.670  17.056  0.00  0.00    +0.000 HD
ENDBRANCH  12  16
BRANCH  13  18
ATOM     18  O   UNL     1      -0.585  11.313  20.435  0.00  0.00    +0.000 OA
ATOM     19  H   UNL     1       0.189  11.769  20.814  0.00  0.00    +0.000 HD
ENDBRANCH  13  18
BRANCH   8  20
ATOM     20  C   UNL     1      -0.402   9.235  22.538  0.00  0.00    +0.000 C 
BRANCH  20  21
ATOM     21  O   UNL     1      -0.262  10.354  23.416  0.00  0.00    +0.000 OA
ATOM     22  H   UNL     1      -0.166  11.140  22.853  0.00  0.00    +0.000 HD
ENDBRANCH  20  21
ENDBRANCH   8  20
ENDBRANCH   1  10
BRANCH   6  23
ATOM     23  C   UNL     1       5.599   4.604  19.195  0.00  0.00    +0.000 C 
BRANCH  23  24
ATOM     24  C   UNL     1       5.981   4.451  17.747  0.00  0.00    +0.000 A 
ATOM     25  C   UNL     1       7.172   4.946  17.243  0.00  0.00    +0.000 A 
ATOM     26  C   UNL     1       7.400   4.897  15.868  0.00  0.00    +0.000 A 
ATOM     27  C   UNL     1       6.445   4.344  15.026  0.00  0.00    +0.000 A 
ATOM     28  N   UNL     1       6.711   4.321  13.637  0.00  0.00    +0.000 N 
ATOM     29  N   UNL     1       5.315   3.838  15.561  0.00  0.00    +0.000 NA
ATOM     30  N   UNL     1       5.075   3.893  16.920  0.00  0.00    +0.000 NA
ATOM     31  H   UNL     1       6.987   5.245  13.320  0.00  0.00    +0.000 HD
BRANCH  28  32
ATOM     32  C   UNL     1       6.037   3.594  12.632  0.00  0.00    +0.000 A 
ATOM     33  C   UNL     1       4.728   3.894  12.231  0.00  0.00    +0.000 A 
ATOM     34  C   UNL     1       4.051   3.108  11.282  0.00  0.00    +0.000 A 
ATOM     35  C   UNL     1       4.676   1.994  10.743  0.00  0.00    +0.000 A 
ATOM     36  C   UNL     1       5.963   1.653  11.153  0.00  0.00    +0.000 A 
ATOM     37  C   UNL     1       6.632   2.440  12.097  0.00  0.00    +0.000 A 
ENDBRANCH  28  32
ENDBRANCH  23  24
ENDBRANCH   6  23
TORSDOF 9
ENDMDL
MODEL 6
REMARK VINA RESULT:      -8.2      1.047      2.310
REMARK  Name = 
REMARK  9 active torsions:
REMARK  status: ('A' for Active; 'I' for Inactive)
REMARK    1  A    between atoms: O_1  and  C_2
REMARK    2  A    between atoms: C_2  and  C_3
REMARK    3  A    between atoms: C_5  and  C_6
REMARK    4  A    between atoms: C_11  and  C_12
REMARK    5  A    between atoms: C_12  and  C_13
REMARK    6  A    between atoms: N_17  and  C_18
REMARK    7  A    between atoms: C_27  and  O_28
REMARK    8  A    between atoms: C_29  and  O_30
REMARK    9  A    between atoms: C_31  and  O_32
REMARK                            x       y       z     vdW  Elec       q    Type
REMARK                         _______ _______ _______ _____ _____    ______ ____
ROOT
ATOM      1  C   UNL     1       2.210   7.328  19.655  0.00  0.00    +0.000 A 
ATOM      2  C   UNL     1       1.739   7.332  20.975  0.00  0.00    +0.000 A 
ATOM      3  C   UNL     1       0.921   8.363  21.432  0.00  0.00    +0.000 A 
ATOM      4  C   UNL     1       0.547   9.399  20.573  0.00  0.00    +0.000 A 
ATOM      5 CL   UNL     1      -0.540  10.587  21.198  0.00  0.00    +0.000 Cl
ATOM      6  C   UNL     1       1.005   9.428  19.245  0.00  0.00    +0.000 A 
ATOM      7  C   UNL     1       1.855   8.391  18.809  0.00  0.00    +0.000 A 
ENDROOT
BRANCH   1  10
ATOM      8  C   UNL     1       4.899   5.802  17.656  0.00  0.00    +0.000 C 
ATOM      9  O   UNL     1       4.008   6.737  18.271  0.00  0.00    +0.000 OA
ATOM     10  C   UNL     1       3.025   6.159  19.133  0.00  0.00    +0.000 C 
ATOM     11  C   UNL     1       2.163   5.115  18.394  0.00  0.00    +0.000 C 
ATOM     12  C   UNL     1       3.079   4.072  17.738  0.00  0.00    +0.000 C 
ATOM     13  C   UNL     1       4.146   4.736  16.853  0.00  0.00    +0.000 C 
BRANCH  11  14
ATOM     14  O   UNL     1       1.241   4.461  19.276  0.00  0.00    +0.000 OA
ATOM     15  H   UNL     1       0.441   4.218  18.779  0.00  0.00    +0.000 HD
ENDBRANCH  11  14
BRANCH  12  16
ATOM     16  O   UNL     1       2.336   3.123  16.954  0.00  0.00    +0.000 OA
ATOM     17  H   UNL     1       2.937   2.748  16.285  0.00  0.00    +0.000 HD
ENDBRANCH  12  16
BRANCH  13  18
ATOM     18  O   UNL     1       5.089   3.761  16.381  0.00  0.00    +0.000 OA
ATOM     19  H   UNL     1       4.961   3.656  15.420  0.00  0.00    +0.000 HD
ENDBRANCH  13  18
BRANCH   8  20
ATOM     20  C   UNL     1       5.872   6.593  16.767  0.00  0.00    +0.000 C 
BRANCH  20  21
ATOM     21  O   UNL     1       5.508   6.482  15.389  0.00  0.00    +0.000 OA
ATOM     22  H   UNL     1       4.953   7.254  15.183  0.00  0.00    +0.000 HD
ENDBRANCH  20  21
ENDBRANCH   8  20
ENDBRANCH   1  10
BRANCH   6  23
ATOM     23  C   UNL     1       0.579  10.482  18.247  0.00  0.00    +0.000 C 
BRANCH  23  24
ATOM     24  C   UNL     1      -0.895  10.560  17.951  0.00  0.00    +0.000 A 
ATOM     25  C   UNL     1      -1.518   9.688  17.074  0.00  0.00    +0.000 A 
ATOM     26  C   UNL     1      -2.854   9.905  16.735  0.00  0.00    +0.000 A 
ATOM     27  C   UNL     1      -3.544  10.974  17.289  0.00  0.00    +0.000 A 
ATOM     28  N   UNL     1      -4.895  11.163  16.914  0.00  0.00    +0.000 N 
ATOM     29  N   UNL     1      -2.913  11.777  18.169  0.00  0.00    +0.000 NA
ATOM     30  N   UNL     1      -1.586  11.578  18.501  0.00  0.00    +0.000 NA
ATOM     31  H   UNL     1      -4.980  11.157  15.903  0.00  0.00    +0.000 HD
BRANCH  28  32
ATOM     32  C   UNL     1      -5.862  11.994  17.523  0.00  0.00    +0.000 A 
ATOM     33  C   UNL     1      -6.551  11.623  18.685  0.00  0.00    +0.000 A 
ATOM     34  C   UNL     1      -7.563  12.433  19.230  0.00  0.00    +0.000 A 
ATOM     35  C   UNL     1      -7.910  13.616  18.596  0.00  0.00    +0.000 A 
ATOM     36  C   UNL     1      -7.266  13.988  17.418  0.00  0.00    +0.000 A 
ATOM     37  C   UNL     1      -6.258  13.178  16.882  0.00  0.00    +0.000 A 
ENDBRANCH  28  32
ENDBRANCH  23  24
ENDBRANCH   6  23
TORSDOF 9
ENDMDL
MODEL 7
REMARK VINA RESULT:      -7.9      5.936     10.888
REMARK  Name = 
REMARK  9 active torsions:
REMARK  status: ('A' for Active; 'I' for Inactive)
REMARK    1  A    between atoms: O_1  and  C_2
REMARK    2  A    between atoms: C_2  and  C_3
REMARK    3  A    between atoms: C_5  and  C_6
REMARK    4  A    between atoms: C_11  and  C_12
REMARK    5  A    between atoms: C_12  and  C_13
REMARK    6  A    between atoms: N_17  and  C_18
REMARK    7  A    between atoms: C_27  and  O_28
REMARK    8  A    between atoms: C_29  and  O_30
REMARK    9  A    between atoms: C_31  and  O_32
REMARK                            x       y       z     vdW  Elec       q    Type
REMARK                         _______ _______ _______ _____ _____    ______ ____
ROOT
ATOM      1  C   UNL     1      -2.962  12.901  20.152  0.00  0.00    +0.000 A 
ATOM      2  C   UNL     1      -3.921  12.216  19.393  0.00  0.00    +0.000 A 
ATOM      3  C   UNL     1      -3.531  11.336  18.386  0.00  0.00    +0.000 A 
ATOM      4  C   UNL     1      -2.175  11.114  18.131  0.00  0.00    +0.000 A 
ATOM      5 CL   UNL     1      -1.783   9.941  16.925  0.00  0.00    +0.000 Cl
ATOM      6  C   UNL     1      -1.189  11.788  18.869  0.00  0.00    +0.000 A 
ATOM      7  C   UNL     1      -1.603  12.696  19.865  0.00  0.00    +0.000 A 
ENDROOT
BRANCH   1  10
ATOM      8  C   UNL     1      -4.146  13.526  23.582  0.00  0.00    +0.000 C 
ATOM      9  O   UNL     1      -3.710  12.895  22.374  0.00  0.00    +0.000 OA
ATOM     10  C   UNL     1      -3.387  13.789  21.307  0.00  0.00    +0.000 C 
ATOM     11  C   UNL     1      -4.577  14.704  20.949  0.00  0.00    +0.000 C 
ATOM     12  C   UNL     1      -5.062  15.425  22.215  0.00  0.00    +0.000 C 
ATOM     13  C   UNL     1      -5.361  14.432  23.350  0.00  0.00    +0.000 C 
BRANCH  11  14
ATOM     14  O   UNL     1      -4.228  15.669  19.948  0.00  0.00    +0.000 OA
ATOM     15  H   UNL     1      -3.808  15.214  19.199  0.00  0.00    +0.000 HD
ENDBRANCH  11  14
BRANCH  12  16
ATOM     16  O   UNL     1      -6.232  16.221  21.963  0.00  0.00    +0.000 OA
ATOM     17  H   UNL     1      -7.012  15.709  22.241  0.00  0.00    +0.000 HD
ENDBRANCH  12  16
BRANCH  13  18
ATOM     18  O   UNL     1      -5.654  15.131  24.569  0.00  0.00    +0.000 OA
ATOM     19  H   UNL     1      -6.623  15.157  24.677  0.00  0.00    +0.000 HD
ENDBRANCH  13  18
BRANCH   8  20
ATOM     20  C   UNL     1      -4.456  12.422  24.605  0.00  0.00    +0.000 C 
BRANCH  20  21
ATOM     21  O   UNL     1      -5.807  11.973  24.479  0.00  0.00    +0.000 OA
ATOM     22  H   UNL     1      -5.798  11.013  24.630  0.00  0.00    +0.000 HD
ENDBRANCH  20  21
ENDBRANCH   8  20
ENDBRANCH   1  10
BRANCH   6  23
ATOM     23  C   UNL     1       0.292  11.539  18.690  0.00  0.00    +0.000 C 
BRANCH  23  24
ATOM     24  C   UNL     1       0.788  10.171  19.079  0.00  0.00    +0.000 A 
ATOM     25  C   UNL     1       0.659   9.680  20.367  0.00  0.00    +0.000 A 
ATOM     26  C   UNL     1       1.265   8.467  20.695  0.00  0.00    +0.000 A 
ATOM     27  C   UNL     1       1.974   7.763  19.731  0.00  0.00    +0.000 A 
ATOM     28  N   UNL     1       2.581   6.541  20.106  0.00  0.00    +0.000 N 
ATOM     29  N   UNL     1       2.043   8.257  18.478  0.00  0.00    +0.000 NA
ATOM     30  N   UNL     1       1.457   9.463  18.147  0.00  0.00    +0.000 NA
ATOM     31  H   UNL     1       3.136   6.671  20.945  0.00  0.00    +0.000 HD
BRANCH  28  32
ATOM     32  C   UNL     1       3.113   5.538  19.267  0.00  0.00    +0.000 A 
ATOM     33  C   UNL     1       2.309   4.723  18.460  0.00  0.00    +0.000 A 
ATOM     34  C   UNL     1       2.856   3.681  17.691  0.00  0.00    +0.000 A 
ATOM     35  C   UNL     1       4.218   3.431  17.745  0.00  0.00    +0.000 A 
ATOM     36  C   UNL     1       5.033   4.202  18.570  0.00  0.00    +0.000 A 
ATOM     37  C   UNL     1       4.484   5.240  19.331  0.00  0.00    +0.000 A 
ENDBRANCH  28  32
ENDBRANCH  23  24
ENDBRANCH   6  23
TORSDOF 9
ENDMDL
MODEL 8
REMARK VINA RESULT:      -7.7      5.869     10.672
REMARK  Name = 
REMARK  9 active torsions:
REMARK  status: ('A' for Active; 'I' for Inactive)
REMARK    1  A    between atoms: O_1  and  C_2
REMARK    2  A    between atoms: C_2  and  C_3
REMARK    3  A    between atoms: C_5  and  C_6
REMARK    4  A    between atoms: C_11  and  C_12
REMARK    5  A    between atoms: C_12  and  C_13
REMARK    6  A    between atoms: N_17  and  C_18
REMARK    7  A    between atoms: C_27  and  O_28
REMARK    8  A    between atoms: C_29  and  O_30
REMARK    9  A    between atoms: C_31  and  O_32
REMARK                            x       y       z     vdW  Elec       q    Type
REMARK                         _______ _______ _______ _____ _____    ______ ____
ROOT
ATOM      1  C   UNL     1      -3.148  12.826  20.284  0.00  0.00    +0.000 A 
ATOM      2  C   UNL     1      -4.108  12.231  19.455  0.00  0.00    +0.000 A 
ATOM      3  C   UNL     1      -3.721  11.478  18.349  0.00  0.00    +0.000 A 
ATOM      4  C   UNL     1      -2.366  11.294  18.062  0.00  0.00    +0.000 A 
ATOM      5 CL   UNL     1      -1.977  10.274  16.723  0.00  0.00    +0.000 Cl
ATOM      6  C   UNL     1      -1.378  11.881  18.869  0.00  0.00    +0.000 A 
ATOM      7  C   UNL     1      -1.790  12.663  19.968  0.00  0.00    +0.000 A 
ENDROOT
BRANCH   1  10
ATOM      8  C   UNL     1      -2.527  14.868  23.285  0.00  0.00    +0.000 C 
ATOM      9  O   UNL     1      -2.364  14.118  22.078  0.00  0.00    +0.000 OA
ATOM     10  C   UNL     1      -3.569  13.569  21.539  0.00  0.00    +0.000 C 
ATOM     11  C   UNL     1      -4.286  12.658  22.558  0.00  0.00    +0.000 C 
ATOM     12  C   UNL     1      -4.507  13.433  23.865  0.00  0.00    +0.000 C 
ATOM     13  C   UNL     1      -3.195  14.041  24.389  0.00  0.00    +0.000 C 
BRANCH  11  14
ATOM     14  O   UNL     1      -5.544  12.184  22.060  0.00  0.00    +0.000 OA
ATOM     15  H   UNL     1      -5.811  12.727  21.298  0.00  0.00    +0.000 HD
ENDBRANCH  11  14
BRANCH  12  16
ATOM     16  O   UNL     1      -5.087  12.606  24.887  0.00  0.00    +0.000 OA
ATOM     17  H   UNL     1      -5.285  13.170  25.656  0.00  0.00    +0.000 HD
ENDBRANCH  12  16
BRANCH  13  18
ATOM     18  O   UNL     1      -3.447  14.893  25.516  0.00  0.00    +0.000 OA
ATOM     19  H   UNL     1      -4.053  14.424  26.120  0.00  0.00    +0.000 HD
ENDBRANCH  13  18
BRANCH   8  20
ATOM     20  C   UNL     1      -1.140  15.368  23.719  0.00  0.00    +0.000 C 
BRANCH  20  21
ATOM     21  O   UNL     1      -1.048  16.789  23.594  0.00  0.00    +0.000 OA
ATOM     22  H   UNL     1      -0.674  16.969  22.715  0.00  0.00    +0.000 HD
ENDBRANCH  20  21
ENDBRANCH   8  20
ENDBRANCH   1  10
BRANCH   6  23
ATOM     23  C   UNL     1       0.103  11.662  18.653  0.00  0.00    +0.000 C 
BRANCH  23  24
ATOM     24  C   UNL     1       0.636  10.304  19.029  0.00  0.00    +0.000 A 
ATOM     25  C   UNL     1       0.598   9.832  20.330  0.00  0.00    +0.000 A 
ATOM     26  C   UNL     1       1.235   8.630  20.636  0.00  0.00    +0.000 A 
ATOM     27  C   UNL     1       1.884   7.916  19.637  0.00  0.00    +0.000 A 
ATOM     28  N   UNL     1       2.525   6.706  19.989  0.00  0.00    +0.000 N 
ATOM     29  N   UNL     1       1.864   8.391  18.375  0.00  0.00    +0.000 NA
ATOM     30  N   UNL     1       1.247   9.587  18.065  0.00  0.00    +0.000 NA
ATOM     31  H   UNL     1       3.134   6.853  20.787  0.00  0.00    +0.000 HD
BRANCH  28  32
ATOM     32  C   UNL     1       3.009   5.693  19.132  0.00  0.00    +0.000 A 
ATOM     33  C   UNL     1       4.358   5.596  18.764  0.00  0.00    +0.000 A 
ATOM     34  C   UNL     1       4.802   4.625  17.849  0.00  0.00    +0.000 A 
ATOM     35  C   UNL     1       3.889   3.756  17.274  0.00  0.00    +0.000 A 
ATOM     36  C   UNL     1       2.537   3.857  17.594  0.00  0.00    +0.000 A 
ATOM     37  C   UNL     1       2.101   4.824  18.507  0.00  0.00    +0.000 A 
ENDBRANCH  28  32
ENDBRANCH  23  24
ENDBRANCH   6  23
TORSDOF 9
ENDMDL
MODEL 9
REMARK VINA RESULT:      -7.6      1.415      1.693
REMARK  Name = 
REMARK  9 active torsions:
REMARK  status: ('A' for Active; 'I' for Inactive)
REMARK    1  A    between atoms: O_1  and  C_2
REMARK    2  A    between atoms: C_2  and  C_3
REMARK    3  A    between atoms: C_5  and  C_6
REMARK    4  A    between atoms: C_11  and  C_12
REMARK    5  A    between atoms: C_12  and  C_13
REMARK    6  A    between atoms: N_17  and  C_18
REMARK    7  A    between atoms: C_27  and  O_28
REMARK    8  A    between atoms: C_29  and  O_30
REMARK    9  A    between atoms: C_31  and  O_32
REMARK                            x       y       z     vdW  Elec       q    Type
REMARK                         _______ _______ _______ _____ _____    ______ ____
ROOT
ATOM      1  C   UNL     1       2.273   6.840  19.153  0.00  0.00    +0.000 A 
ATOM      2  C   UNL     1       1.901   6.758  20.502  0.00  0.00    +0.000 A 
ATOM      3  C   UNL     1       1.379   7.868  21.162  0.00  0.00    +0.000 A 
ATOM      4  C   UNL     1       1.207   9.075  20.480  0.00  0.00    +0.000 A 
ATOM      5 CL   UNL     1       0.473  10.374  21.352  0.00  0.00    +0.000 Cl
ATOM      6  C   UNL     1       1.575   9.194  19.130  0.00  0.00    +0.000 A 
ATOM      7  C   UNL     1       2.127   8.067  18.487  0.00  0.00    +0.000 A 
ENDROOT
BRANCH   1  10
ATOM      8  C   UNL     1       2.285   3.240  18.379  0.00  0.00    +0.000 C 
ATOM      9  O   UNL     1       1.989   4.522  18.941  0.00  0.00    +0.000 OA
ATOM     10  C   UNL     1       2.755   5.606  18.412  0.00  0.00    +0.000 C 
ATOM     11  C   UNL     1       4.271   5.367  18.576  0.00  0.00    +0.000 C 
ATOM     12  C   UNL     1       4.640   4.010  17.960  0.00  0.00    +0.000 C 
ATOM     13  C   UNL     1       3.767   2.877  18.526  0.00  0.00    +0.000 C 
BRANCH  11  14
ATOM     14  O   UNL     1       5.046   6.403  17.960  0.00  0.00    +0.000 OA
ATOM     15  H   UNL     1       4.630   6.656  17.118  0.00  0.00    +0.000 HD
ENDBRANCH  11  14
BRANCH  12  16
ATOM     16  O   UNL     1       6.026   3.688  18.166  0.00  0.00    +0.000 OA
ATOM     17  H   UNL     1       6.505   4.516  18.349  0.00  0.00    +0.000 HD
ENDBRANCH  12  16
BRANCH  13  18
ATOM     18  O   UNL     1       4.015   1.650  17.824  0.00  0.00    +0.000 OA
ATOM     19  H   UNL     1       4.975   1.479  17.842  0.00  0.00    +0.000 HD
ENDBRANCH  13  18
BRANCH   8  20
ATOM     20  C   UNL     1       1.383   2.204  19.067  0.00  0.00    +0.000 C 
BRANCH  20  21
ATOM     21  O   UNL     1       0.385   2.845  19.865  0.00  0.00    +0.000 OA
ATOM     22  H   UNL     1       0.388   3.785  19.614  0.00  0.00    +0.000 HD
ENDBRANCH  20  21
ENDBRANCH   8  20
ENDBRANCH   1  10
BRANCH   6  23
ATOM     23  C   UNL     1       1.348  10.450  18.319  0.00  0.00    +0.000 C 
BRANCH  23  24
ATOM     24  C   UNL     1       0.061  11.187  18.581  0.00  0.00    +0.000 A 
ATOM     25  C   UNL     1       0.035  12.539  18.878  0.00  0.00    +0.000 A 
ATOM     26  C   UNL     1      -1.174  13.128  19.250  0.00  0.00    +0.000 A 
ATOM     27  C   UNL     1      -2.331  12.363  19.304  0.00  0.00    +0.000 A 
ATOM     28  N   UNL     1      -3.534  12.997  19.694  0.00  0.00    +0.000 N 
ATOM     29  N   UNL     1      -2.269  11.058  18.969  0.00  0.00    +0.000 NA
ATOM     30  N   UNL     1      -1.074  10.462  18.612  0.00  0.00    +0.000 NA
ATOM     31  H   UNL     1      -3.394  13.508  20.558  0.00  0.00    +0.000 HD
BRANCH  28  32
ATOM     32  C   UNL     1      -4.855  12.511  19.572  0.00  0.00    +0.000 A 
ATOM     33  C   UNL     1      -5.664  12.236  20.682  0.00  0.00    +0.000 A 
ATOM     34  C   UNL     1      -6.948  11.682  20.536  0.00  0.00    +0.000 A 
ATOM     35  C   UNL     1      -7.423  11.374  19.272  0.00  0.00    +0.000 A 
ATOM     36  C   UNL     1      -6.622  11.603  18.155  0.00  0.00    +0.000 A 
ATOM     37  C   UNL     1      -5.346  12.157  18.305  0.00  0.00    +0.000 A 
ENDBRANCH  28  32
ENDBRANCH  23  24
ENDBRANCH   6  23
TORSDOF 9
ENDMDL
