MODEL 1
REMARK VINA RESULT:      -7.4      0.000      0.000
REMARK  Name = 
REMARK  4 active torsions:
REMARK  status: ('A' for Active; 'I' for Inactive)
REMARK    1  A    between atoms: C_1  and  C_2
REMARK    2  A    between atoms: C_5  and  C_6
REMARK    3  A    between atoms: C_6  and  C_8
REMARK    4  A    between atoms: C_9  and  C_10
REMARK                            x       y       z     vdW  Elec       q    Type
REMARK                         _______ _______ _______ _____ _____    ______ ____
ROOT
ATOM      1  C   UNL     1       5.948   4.560  16.596  0.00  0.00    +0.000 C 
ATOM      2  C   UNL     1       4.729   5.054  16.870  0.00  0.00    +0.000 C 
ENDROOT
BRANCH   2   3
ATOM      3  C   UNL     1       3.845   4.494  17.905  0.00  0.00    +0.000 A 
ATOM      4  C   UNL     1       3.692   3.110  18.081  0.00  0.00    +0.000 A 
ATOM      5  C   UNL     1       2.860   2.604  19.081  0.00  0.00    +0.000 A 
ATOM      6  C   UNL     1       2.181   3.473  19.934  0.00  0.00    +0.000 A 
ATOM      7 CL   UNL     1       1.172   2.777  21.152  0.00  0.00    +0.000 Cl
ATOM      8  C   UNL     1       2.338   4.856  19.784  0.00  0.00    +0.000 A 
ATOM      9 CL   UNL     1       1.534   5.992  20.807  0.00  0.00    +0.000 Cl
ATOM     10  C   UNL     1       3.173   5.359  18.776  0.00  0.00    +0.000 A 
ENDBRANCH   2   3
BRANCH   1  11
ATOM     11  C   UNL     1       6.824   5.178  15.549  0.00  0.00    +0.000 C 
ATOM     12  O   UNL     1       7.560   6.111  15.876  0.00  0.00    +0.000 OA
BRANCH  11  17
ATOM     13  C   UNL     1       5.297   2.417  11.543  0.00  0.00    +0.000 C 
ATOM     14  C   UNL     1       6.114   3.403  12.306  0.00  0.00    +0.000 A 
ATOM     15  C   UNL     1       7.169   4.129  11.794  0.00  0.00    +0.000 A 
ATOM     16  S   UNL     1       7.877   5.163  12.951  0.00  0.00    +0.000 S 
ATOM     17  C   UNL     1       6.795   4.665  14.180  0.00  0.00    +0.000 A 
ATOM     18  C   UNL     1       5.905   3.726  13.687  0.00  0.00    +0.000 A 
ENDBRANCH  11  17
ENDBRANCH   1  11
TORSDOF 3
ENDMDL
MODEL 2
REMARK VINA RESULT:      -7.2      3.206      4.602
REMARK  Name = 
REMARK  4 active torsions:
REMARK  status: ('A' for Active; 'I' for Inactive)
REMARK    1  A    between atoms: C_1  and  C_2
REMARK    2  A    between atoms: C_5  and  C_6
REMARK    3  A    between atoms: C_6  and  C_8
REMARK    4  A    between atoms: C_9  and  C_10
REMARK                            x       y       z     vdW  Elec       q    Type
REMARK                         _______ _______ _______ _____ _____    ______ ____
ROOT
ATOM      1  C   UNL     1       3.854   5.483  19.189  0.00  0.00    +0.000 C 
ATOM      2  C   UNL     1       3.205   6.257  18.303  0.00  0.00    +0.000 C 
ENDROOT
BRANCH   2   3
ATOM      3  C   UNL     1       2.437   7.453  18.686  0.00  0.00    +0.000 A 
ATOM      4  C   UNL     1       2.070   8.431  17.749  0.00  0.00    +0.000 A 
ATOM      5  C   UNL     1       1.328   9.549  18.136  0.00  0.00    +0.000 A 
ATOM      6  C   UNL     1       0.924   9.698  19.463  0.00  0.00    +0.000 A 
ATOM      7 CL   UNL     1       0.004  11.102  19.869  0.00  0.00    +0.000 Cl
ATOM      8  C   UNL     1       1.265   8.720  20.405  0.00  0.00    +0.000 A 
ATOM      9 CL   UNL     1       0.795   8.834  22.063  0.00  0.00    +0.000 Cl
ATOM     10  C   UNL     1       2.013   7.601  20.013  0.00  0.00    +0.000 A 
ENDBRANCH   2   3
BRANCH   1  11
ATOM     11  C   UNL     1       4.644   4.288  18.749  0.00  0.00    +0.000 C 
ATOM     12  O   UNL     1       4.564   3.254  19.414  0.00  0.00    +0.000 OA
BRANCH  11  17
ATOM     13  C   UNL     1       5.951   3.885  13.837  0.00  0.00    +0.000 C 
ATOM     14  C   UNL     1       6.115   4.195  15.285  0.00  0.00    +0.000 A 
ATOM     15  C   UNL     1       7.265   4.684  15.869  0.00  0.00    +0.000 A 
ATOM     16  S   UNL     1       7.098   4.921  17.550  0.00  0.00    +0.000 S 
ATOM     17  C   UNL     1       5.478   4.369  17.550  0.00  0.00    +0.000 A 
ATOM     18  C   UNL     1       5.087   4.021  16.268  0.00  0.00    +0.000 A 
ENDBRANCH  11  17
ENDBRANCH   1  11
TORSDOF 3
ENDMDL
MODEL 3
REMARK VINA RESULT:      -7.0      0.967      1.519
REMARK  Name = 
REMARK  4 active torsions:
REMARK  status: ('A' for Active; 'I' for Inactive)
REMARK    1  A    between atoms: C_1  and  C_2
REMARK    2  A    between atoms: C_5  and  C_6
REMARK    3  A    between atoms: C_6  and  C_8
REMARK    4  A    between atoms: C_9  and  C_10
REMARK                            x       y       z     vdW  Elec       q    Type
REMARK                         _______ _______ _______ _____ _____    ______ ____
ROOT
ATOM      1  C   UNL     1       6.037   4.846  16.807  0.00  0.00    +0.000 C 
ATOM      2  C   UNL     1       4.703   5.013  16.790  0.00  0.00    +0.000 C 
ENDROOT
BRANCH   2   3
ATOM      3  C   UNL     1       3.812   4.495  17.839  0.00  0.00    +0.000 A 
ATOM      4  C   UNL     1       2.445   4.813  17.876  0.00  0.00    +0.000 A 
ATOM      5  C   UNL     1       1.617   4.294  18.873  0.00  0.00    +0.000 A 
ATOM      6  C   UNL     1       2.137   3.435  19.840  0.00  0.00    +0.000 A 
ATOM      7 CL   UNL     1       1.053   2.829  21.041  0.00  0.00    +0.000 Cl
ATOM      8  C   UNL     1       3.494   3.092  19.805  0.00  0.00    +0.000 A 
ATOM      9 CL   UNL     1       4.206   2.028  20.965  0.00  0.00    +0.000 Cl
ATOM     10  C   UNL     1       4.322   3.617  18.804  0.00  0.00    +0.000 A 
ENDBRANCH   2   3
BRANCH   1  11
ATOM     11  C   UNL     1       6.909   5.413  15.729  0.00  0.00    +0.000 C 
ATOM     12  O   UNL     1       7.668   6.341  16.014  0.00  0.00    +0.000 OA
BRANCH  11  17
ATOM     13  C   UNL     1       5.184   2.664  11.796  0.00  0.00    +0.000 C 
ATOM     14  C   UNL     1       6.078   3.598  12.537  0.00  0.00    +0.000 A 
ATOM     15  C   UNL     1       7.200   4.208  12.016  0.00  0.00    +0.000 A 
ATOM     16  S   UNL     1       7.986   5.214  13.148  0.00  0.00    +0.000 S 
ATOM     17  C   UNL     1       6.849   4.858  14.377  0.00  0.00    +0.000 A 
ATOM     18  C   UNL     1       5.883   3.986  13.903  0.00  0.00    +0.000 A 
ENDBRANCH  11  17
ENDBRANCH   1  11
TORSDOF 3
ENDMDL
MODEL 4
REMARK VINA RESULT:      -7.0      0.798      1.653
REMARK  Name = 
REMARK  4 active torsions:
REMARK  status: ('A' for Active; 'I' for Inactive)
REMARK    1  A    between atoms: C_1  and  C_2
REMARK    2  A    between atoms: C_5  and  C_6
REMARK    3  A    between atoms: C_6  and  C_8
REMARK    4  A    between atoms: C_9  and  C_10
REMARK                            x       y       z     vdW  Elec       q    Type
REMARK                         _______ _______ _______ _____ _____    ______ ____
ROOT
ATOM      1  C   UNL     1       5.752   4.620  16.531  0.00  0.00    +0.000 C 
ATOM      2  C   UNL     1       5.013   5.403  17.336  0.00  0.00    +0.000 C 
ENDROOT
BRANCH   2   3
ATOM      3  C   UNL     1       4.073   4.872  18.336  0.00  0.00    +0.000 A 
ATOM      4  C   UNL     1       3.697   5.612  19.468  0.00  0.00    +0.000 A 
ATOM      5  C   UNL     1       2.791   5.092  20.393  0.00  0.00    +0.000 A 
ATOM      6  C   UNL     1       2.232   3.830  20.195  0.00  0.00    +0.000 A 
ATOM      7 CL   UNL     1       1.115   3.252  21.379  0.00  0.00    +0.000 Cl
ATOM      8  C   UNL     1       2.581   3.088  19.061  0.00  0.00    +0.000 A 
ATOM      9 CL   UNL     1       1.924   1.521  18.745  0.00  0.00    +0.000 Cl
ATOM     10  C   UNL     1       3.494   3.613  18.135  0.00  0.00    +0.000 A 
ENDBRANCH   2   3
BRANCH   1  11
ATOM     11  C   UNL     1       6.715   5.205  15.544  0.00  0.00    +0.000 C 
ATOM     12  O   UNL     1       7.460   6.114  15.917  0.00  0.00    +0.000 OA
BRANCH  11  17
ATOM     13  C   UNL     1       5.448   2.384  11.490  0.00  0.00    +0.000 C 
ATOM     14  C   UNL     1       6.198   3.400  12.281  0.00  0.00    +0.000 A 
ATOM     15  C   UNL     1       7.245   4.163  11.808  0.00  0.00    +0.000 A 
ATOM     16  S   UNL     1       7.869   5.224  12.989  0.00  0.00    +0.000 S 
ATOM     17  C   UNL     1       6.758   4.690  14.176  0.00  0.00    +0.000 A 
ATOM     18  C   UNL     1       5.923   3.717  13.651  0.00  0.00    +0.000 A 
ENDBRANCH  11  17
ENDBRANCH   1  11
TORSDOF 3
ENDMDL
MODEL 5
REMARK VINA RESULT:      -6.6      6.127      8.216
REMARK  Name = 
REMARK  4 active torsions:
REMARK  status: ('A' for Active; 'I' for Inactive)
REMARK    1  A    between atoms: C_1  and  C_2
REMARK    2  A    between atoms: C_5  and  C_6
REMARK    3  A    between atoms: C_6  and  C_8
REMARK    4  A    between atoms: C_9  and  C_10
REMARK                            x       y       z     vdW  Elec       q    Type
REMARK                         _______ _______ _______ _____ _____    ______ ____
ROOT
ATOM      1  C   UNL     1       7.369   8.179  17.223  0.00  0.00    +0.000 C 
ATOM      2  C   UNL     1       8.312   8.575  18.096  0.00  0.00    +0.000 C 
ENDROOT
BRANCH   2   3
ATOM      3  C   UNL     1       8.676   9.984  18.305  0.00  0.00    +0.000 A 
ATOM      4  C   UNL     1       8.164  11.012  17.497  0.00  0.00    +0.000 A 
ATOM      5  C   UNL     1       8.513  12.344  17.728  0.00  0.00    +0.000 A 
ATOM      6  C   UNL     1       9.367  12.674  18.780  0.00  0.00    +0.000 A 
ATOM      7 CL   UNL     1       9.752  14.342  19.008  0.00  0.00    +0.000 Cl
ATOM      8  C   UNL     1       9.870  11.663  19.607  0.00  0.00    +0.000 A 
ATOM      9 CL   UNL     1      10.926  11.996  20.933  0.00  0.00    +0.000 Cl
ATOM     10  C   UNL     1       9.519  10.326  19.371  0.00  0.00    +0.000 A 
ENDBRANCH   2   3
BRANCH   1  11
ATOM     11  C   UNL     1       7.013   6.733  17.061  0.00  0.00    +0.000 C 
ATOM     12  O   UNL     1       7.703   6.038  16.313  0.00  0.00    +0.000 OA
BRANCH  11  17
ATOM     13  C   UNL     1       2.150   5.710  18.204  0.00  0.00    +0.000 C 
ATOM     14  C   UNL     1       3.634   5.686  18.347  0.00  0.00    +0.000 A 
ATOM     15  C   UNL     1       4.326   5.047  19.354  0.00  0.00    +0.000 A 
ATOM     16  S   UNL     1       6.015   5.229  19.206  0.00  0.00    +0.000 S 
ATOM     17  C   UNL     1       5.873   6.179  17.790  0.00  0.00    +0.000 A 
ATOM     18  C   UNL     1       4.540   6.334  17.446  0.00  0.00    +0.000 A 
ENDBRANCH  11  17
ENDBRANCH   1  11
TORSDOF 3
ENDMDL
MODEL 6
REMARK VINA RESULT:      -6.6      4.954      7.925
REMARK  Name = 
REMARK  4 active torsions:
REMARK  status: ('A' for Active; 'I' for Inactive)
REMARK    1  A    between atoms: C_1  and  C_2
REMARK    2  A    between atoms: C_5  and  C_6
REMARK    3  A    between atoms: C_6  and  C_8
REMARK    4  A    between atoms: C_9  and  C_10
REMARK                            x       y       z     vdW  Elec       q    Type
REMARK                         _______ _______ _______ _____ _____    ______ ____
ROOT
ATOM      1  C   UNL     1       1.722   8.001  18.171  0.00  0.00    +0.000 C 
ATOM      2  C   UNL     1       2.905   7.378  18.306  0.00  0.00    +0.000 C 
ENDROOT
BRANCH   2   3
ATOM      3  C   UNL     1       3.066   5.920  18.189  0.00  0.00    +0.000 A 
ATOM      4  C   UNL     1       4.214   5.344  17.623  0.00  0.00    +0.000 A 
ATOM      5  C   UNL     1       4.350   3.957  17.539  0.00  0.00    +0.000 A 
ATOM      6  C   UNL     1       3.349   3.122  18.034  0.00  0.00    +0.000 A 
ATOM      7 CL   UNL     1       3.587   1.417  17.900  0.00  0.00    +0.000 Cl
ATOM      8  C   UNL     1       2.207   3.682  18.619  0.00  0.00    +0.000 A 
ATOM      9 CL   UNL     1       0.930   2.711  19.261  0.00  0.00    +0.000 Cl
ATOM     10  C   UNL     1       2.074   5.075  18.700  0.00  0.00    +0.000 A 
ENDBRANCH   2   3
BRANCH   1  11
ATOM     11  C   UNL     1       1.609   9.492  18.273  0.00  0.00    +0.000 C 
ATOM     12  O   UNL     1       2.167  10.183  17.420  0.00  0.00    +0.000 OA
BRANCH  11  17
ATOM     13  C   UNL     1      -0.513   9.960  22.886  0.00  0.00    +0.000 C 
ATOM     14  C   UNL     1      -0.153  10.339  21.490  0.00  0.00    +0.000 A 
ATOM     15  C   UNL     1      -0.540  11.501  20.856  0.00  0.00    +0.000 A 
ATOM     16  S   UNL     1       0.052  11.605  19.259  0.00  0.00    +0.000 S 
ATOM     17  C   UNL     1       0.842  10.090  19.365  0.00  0.00    +0.000 A 
ATOM     18  C   UNL     1       0.649   9.533  20.619  0.00  0.00    +0.000 A 
ENDBRANCH  11  17
ENDBRANCH   1  11
TORSDOF 3
ENDMDL
MODEL 7
REMARK VINA RESULT:      -6.5      1.455      2.075
REMARK  Name = 
REMARK  4 active torsions:
REMARK  status: ('A' for Active; 'I' for Inactive)
REMARK    1  A    between atoms: C_1  and  C_2
REMARK    2  A    between atoms: C_5  and  C_6
REMARK    3  A    between atoms: C_6  and  C_8
REMARK    4  A    between atoms: C_9  and  C_10
REMARK                            x       y       z     vdW  Elec       q    Type
REMARK                         _______ _______ _______ _____ _____    ______ ____
ROOT
ATOM      1  C   UNL     1       5.970   4.248  15.623  0.00  0.00    +0.000 C 
ATOM      2  C   UNL     1       4.876   4.937  15.991  0.00  0.00    +0.000 C 
ENDROOT
BRANCH   2   3
ATOM      3  C   UNL     1       4.220   4.772  17.297  0.00  0.00    +0.000 A 
ATOM      4  C   UNL     1       4.612   5.512  18.424  0.00  0.00    +0.000 A 
ATOM      5  C   UNL     1       3.962   5.348  19.649  0.00  0.00    +0.000 A 
ATOM      6  C   UNL     1       2.899   4.455  19.764  0.00  0.00    +0.000 A 
ATOM      7 CL   UNL     1       2.139   4.307  21.309  0.00  0.00    +0.000 Cl
ATOM      8  C   UNL     1       2.483   3.723  18.646  0.00  0.00    +0.000 A 
ATOM      9 CL   UNL     1       1.169   2.604  18.712  0.00  0.00    +0.000 Cl
ATOM     10  C   UNL     1       3.140   3.889  17.418  0.00  0.00    +0.000 A 
ENDBRANCH   2   3
BRANCH   1  11
ATOM     11  C   UNL     1       6.619   4.468  14.291  0.00  0.00    +0.000 C 
ATOM     12  O   UNL     1       7.592   5.222  14.229  0.00  0.00    +0.000 OA
BRANCH  11  17
ATOM     13  C   UNL     1       3.277   3.069  10.703  0.00  0.00    +0.000 C 
ATOM     14  C   UNL     1       4.577   3.119  11.431  0.00  0.00    +0.000 A 
ATOM     15  C   UNL     1       5.712   2.420  11.080  0.00  0.00    +0.000 A 
ATOM     16  S   UNL     1       7.017   2.716  12.139  0.00  0.00    +0.000 S 
ATOM     17  C   UNL     1       6.098   3.787  13.106  0.00  0.00    +0.000 A 
ATOM     18  C   UNL     1       4.814   3.910  12.602  0.00  0.00    +0.000 A 
ENDBRANCH  11  17
ENDBRANCH   1  11
TORSDOF 3
ENDMDL
MODEL 8
REMARK VINA RESULT:      -6.5      5.452      7.712
REMARK  Name = 
REMARK  4 active torsions:
REMARK  status: ('A' for Active; 'I' for Inactive)
REMARK    1  A    between atoms: C_1  and  C_2
REMARK    2  A    between atoms: C_5  and  C_6
REMARK    3  A    between atoms: C_6  and  C_8
REMARK    4  A    between atoms: C_9  and  C_10
REMARK                            x       y       z     vdW  Elec       q    Type
REMARK                         _______ _______ _______ _____ _____    ______ ____
ROOT
ATOM      1  C   UNL     1       1.841   8.579  18.735  0.00  0.00    +0.000 C 
ATOM      2  C   UNL     1       2.686   7.820  18.016  0.00  0.00    +0.000 C 
ENDROOT
BRANCH   2   3
ATOM      3  C   UNL     1       3.058   6.448  18.393  0.00  0.00    +0.000 A 
ATOM      4  C   UNL     1       3.957   5.686  17.629  0.00  0.00    +0.000 A 
ATOM      5  C   UNL     1       4.307   4.392  18.018  0.00  0.00    +0.000 A 
ATOM      6  C   UNL     1       3.777   3.843  19.186  0.00  0.00    +0.000 A 
ATOM      7 CL   UNL     1       4.257   2.238  19.607  0.00  0.00    +0.000 Cl
ATOM      8  C   UNL     1       2.895   4.597  19.968  0.00  0.00    +0.000 A 
ATOM      9 CL   UNL     1       2.206   3.986  21.430  0.00  0.00    +0.000 Cl
ATOM     10  C   UNL     1       2.545   5.896  19.573  0.00  0.00    +0.000 A 
ENDBRANCH   2   3
BRANCH   1  11
ATOM     11  C   UNL     1       1.471   9.963  18.298  0.00  0.00    +0.000 C 
ATOM     12  O   UNL     1       2.355  10.692  17.844  0.00  0.00    +0.000 OA
BRANCH  11  17
ATOM     13  C   UNL     1      -3.533  10.220  17.351  0.00  0.00    +0.000 C 
ATOM     14  C   UNL     1      -2.233  10.560  17.997  0.00  0.00    +0.000 A 
ATOM     15  C   UNL     1      -2.057  11.522  18.970  0.00  0.00    +0.000 A 
ATOM     16  S   UNL     1      -0.434  11.644  19.484  0.00  0.00    +0.000 S 
ATOM     17  C   UNL     1       0.085  10.416  18.411  0.00  0.00    +0.000 A 
ATOM     18  C   UNL     1      -0.988   9.925  17.685  0.00  0.00    +0.000 A 
ENDBRANCH  11  17
ENDBRANCH   1  11
TORSDOF 3
ENDMDL
MODEL 9
REMARK VINA RESULT:      -6.5      4.617      6.532
REMARK  Name = 
REMARK  4 active torsions:
REMARK  status: ('A' for Active; 'I' for Inactive)
REMARK    1  A    between atoms: C_1  and  C_2
REMARK    2  A    between atoms: C_5  and  C_6
REMARK    3  A    between atoms: C_6  and  C_8
REMARK    4  A    between atoms: C_9  and  C_10
REMARK                            x       y       z     vdW  Elec       q    Type
REMARK                         _______ _______ _______ _____ _____    ______ ____
ROOT
ATOM      1  C   UNL     1       2.668   7.708  18.099  0.00  0.00    +0.000 C 
ATOM      2  C   UNL     1       2.194   7.787  19.354  0.00  0.00    +0.000 C 
ENDROOT
BRANCH   2   3
ATOM      3  C   UNL     1       1.273   8.843  19.803  0.00  0.00    +0.000 A 
ATOM      4  C   UNL     1       0.742   9.791  18.915  0.00  0.00    +0.000 A 
ATOM      5  C   UNL     1      -0.144  10.773  19.363  0.00  0.00    +0.000 A 
ATOM      6  C   UNL     1      -0.528  10.812  20.703  0.00  0.00    +0.000 A 
ATOM      7 CL   UNL     1      -1.630  12.051  21.186  0.00  0.00    +0.000 Cl
ATOM      8  C   UNL     1      -0.023   9.861  21.597  0.00  0.00    +0.000 A 
ATOM      9 CL   UNL     1      -0.458   9.843  23.269  0.00  0.00    +0.000 Cl
ATOM     10  C   UNL     1       0.869   8.879  21.143  0.00  0.00    +0.000 A 
ENDBRANCH   2   3
BRANCH   1  11
ATOM     11  C   UNL     1       3.586   6.600  17.680  0.00  0.00    +0.000 C 
ATOM     12  O   UNL     1       4.565   6.879  16.985  0.00  0.00    +0.000 OA
BRANCH  11  17
ATOM     13  C   UNL     1       0.890   2.389  18.678  0.00  0.00    +0.000 C 
ATOM     14  C   UNL     1       2.094   3.263  18.575  0.00  0.00    +0.000 A 
ATOM     15  C   UNL     1       3.377   2.894  18.921  0.00  0.00    +0.000 A 
ATOM     16  S   UNL     1       4.508   4.147  18.675  0.00  0.00    +0.000 S 
ATOM     17  C   UNL     1       3.311   5.228  18.103  0.00  0.00    +0.000 A 
ATOM     18  C   UNL     1       2.069   4.614  18.100  0.00  0.00    +0.000 A 
ENDBRANCH  11  17
ENDBRANCH   1  11
TORSDOF 3
ENDMDL
