MODEL 1
REMARK VINA RESULT:      -9.3      0.000      0.000
REMARK  Name = 
REMARK  6 active torsions:
REMARK  status: ('A' for Active; 'I' for Inactive)
REMARK    1  A    between atoms: C_1  and  C_2
REMARK    2  A    between atoms: C_5  and  N_6
REMARK    3  A    between atoms: N_9  and  C_10
REMARK    4  A    between atoms: N_9  and  C_20
REMARK    5  A    between atoms: C_10  and  C_11
REMARK    6  A    between atoms: C_28  and  C_29
REMARK                            x       y       z     vdW  Elec       q    Type
REMARK                         _______ _______ _______ _____ _____    ______ ____
ROOT
ATOM      1  N   UNL     1       1.052   7.798  20.914  0.00  0.00    +0.000 N 
ATOM      2  C   UNL     1       1.771   7.764  19.729  0.00  0.00    +0.000 C 
ATOM      3  O   UNL     1       2.035   8.776  19.081  0.00  0.00    +0.000 OA
ATOM      4  N   UNL     1       2.188   6.487  19.298  0.00  0.00    +0.000 N 
ATOM      5  H   UNL     1       1.244   7.061  21.571  0.00  0.00    +0.000 HD
ENDROOT
BRANCH   1  10
ATOM      6  C   UNL     1      -1.719  12.412  22.979  0.00  0.00    +0.000 C 
ATOM      7  C   UNL     1      -0.982  11.225  22.419  0.00  0.00    +0.000 A 
ATOM      8  C   UNL     1      -0.526  10.231  23.292  0.00  0.00    +0.000 A 
ATOM      9  C   UNL     1       0.149   9.104  22.811  0.00  0.00    +0.000 A 
ATOM     10  C   UNL     1       0.392   8.938  21.449  0.00  0.00    +0.000 A 
ATOM     11  C   UNL     1      -0.027   9.951  20.574  0.00  0.00    +0.000 A 
ATOM     12  C   UNL     1      -0.745  11.076  21.037  0.00  0.00    +0.000 A 
ATOM     13  C   UNL     1      -1.259  12.095  20.055  0.00  0.00    +0.000 C 
ENDBRANCH   1  10
BRANCH   4  14
ATOM     14  C   UNL     1       1.605   5.201  19.818  0.00  0.00    +0.000 C 
ATOM     15  C   UNL     1       1.363   4.182  18.680  0.00  0.00    +0.000 C 
ATOM     16  C   UNL     1       2.486   3.182  18.409  0.00  0.00    +0.000 C 
ATOM     17  C   UNL     1       2.411   1.931  19.284  0.00  0.00    +0.000 C 
ATOM     18  C   UNL     1       2.762   2.146  20.750  0.00  0.00    +0.000 C 
ATOM     19  C   UNL     1       1.914   3.200  21.459  0.00  0.00    +0.000 C 
ATOM     20  C   UNL     1       2.312   4.621  21.061  0.00  0.00    +0.000 C 
ENDBRANCH   4  14
BRANCH   4  21
ATOM     21  C   UNL     1       2.955   6.482  18.026  0.00  0.00    +0.000 C 
BRANCH  21  22
ATOM     22  C   UNL     1       4.359   5.945  18.178  0.00  0.00    +0.000 A 
ATOM     23  C   UNL     1       5.056   5.702  19.348  0.00  0.00    +0.000 A 
ATOM     24  N   UNL     1       6.223   5.065  19.034  0.00  0.00    +0.000 N 
ATOM     25  C   UNL     1       6.374   4.979  17.673  0.00  0.00    +0.000 A 
ATOM     26  C   UNL     1       7.409   4.416  16.911  0.00  0.00    +0.000 A 
ATOM     27  C   UNL     1       7.349   4.564  15.523  0.00  0.00    +0.000 A 
ATOM     28  C   UNL     1       6.285   5.232  14.924  0.00  0.00    +0.000 A 
ATOM     29  C   UNL     1       5.222   5.726  15.696  0.00  0.00    +0.000 A 
ATOM     30  C   UNL     1       5.254   5.594  17.104  0.00  0.00    +0.000 A 
ATOM     31  H   UNL     1       6.904   4.726  19.706  0.00  0.00    +0.000 HD
ENDBRANCH  21  22
ENDBRANCH   4  21
TORSDOF 4
ENDMDL
MODEL 2
REMARK VINA RESULT:      -9.0      2.451      9.022
REMARK  Name = 
REMARK  6 active torsions:
REMARK  status: ('A' for Active; 'I' for Inactive)
REMARK    1  A    between atoms: C_1  and  C_2
REMARK    2  A    between atoms: C_5  and  N_6
REMARK    3  A    between atoms: N_9  and  C_10
REMARK    4  A    between atoms: N_9  and  C_20
REMARK    5  A    between atoms: C_10  and  C_11
REMARK    6  A    between atoms: C_28  and  C_29
REMARK                            x       y       z     vdW  Elec       q    Type
REMARK                         _______ _______ _______ _____ _____    ______ ____
ROOT
ATOM      1  N   UNL     1       1.835   7.966  18.916  0.00  0.00    +0.000 N 
ATOM      2  C   UNL     1       1.241   9.029  18.254  0.00  0.00    +0.000 C 
ATOM      3  O   UNL     1       1.327   9.187  17.037  0.00  0.00    +0.000 OA
ATOM      4  N   UNL     1       0.522   9.935  19.062  0.00  0.00    +0.000 N 
ATOM      5  H   UNL     1       1.389   7.667  19.767  0.00  0.00    +0.000 HD
ENDROOT
BRANCH   1  10
ATOM      6  C   UNL     1       5.391   4.122  16.505  0.00  0.00    +0.000 C 
ATOM      7  C   UNL     1       4.453   5.104  17.154  0.00  0.00    +0.000 A 
ATOM      8  C   UNL     1       4.844   6.442  17.277  0.00  0.00    +0.000 A 
ATOM      9  C   UNL     1       3.997   7.391  17.859  0.00  0.00    +0.000 A 
ATOM     10  C   UNL     1       2.739   7.031  18.339  0.00  0.00    +0.000 A 
ATOM     11  C   UNL     1       2.358   5.684  18.255  0.00  0.00    +0.000 A 
ATOM     12  C   UNL     1       3.184   4.721  17.634  0.00  0.00    +0.000 A 
ATOM     13  C   UNL     1       2.700   3.303  17.481  0.00  0.00    +0.000 C 
ENDBRANCH   1  10
BRANCH   4  14
ATOM     14  C   UNL     1       0.676  10.019  20.556  0.00  0.00    +0.000 C 
ATOM     15  C   UNL     1       0.888  11.477  21.028  0.00  0.00    +0.000 C 
ATOM     16  C   UNL     1      -0.363  12.250  21.440  0.00  0.00    +0.000 C 
ATOM     17  C   UNL     1      -0.754  12.039  22.902  0.00  0.00    +0.000 C 
ATOM     18  C   UNL     1      -1.323  10.663  23.227  0.00  0.00    +0.000 C 
ATOM     19  C   UNL     1      -0.405   9.496  22.869  0.00  0.00    +0.000 C 
ATOM     20  C   UNL     1      -0.374   9.228  21.364  0.00  0.00    +0.000 C 
ENDBRANCH   4  14
BRANCH   4  21
ATOM     21  C   UNL     1      -0.102  11.063  18.325  0.00  0.00    +0.000 C 
BRANCH  21  22
ATOM     22  C   UNL     1      -1.519  10.778  17.889  0.00  0.00    +0.000 A 
ATOM     23  C   UNL     1      -1.945   9.962  16.855  0.00  0.00    +0.000 A 
ATOM     24  N   UNL     1      -3.306   9.860  16.916  0.00  0.00    +0.000 N 
ATOM     25  C   UNL     1      -3.808  10.678  17.897  0.00  0.00    +0.000 A 
ATOM     26  C   UNL     1      -5.133  10.895  18.305  0.00  0.00    +0.000 A 
ATOM     27  C   UNL     1      -5.364  11.875  19.273  0.00  0.00    +0.000 A 
ATOM     28  C   UNL     1      -4.306  12.595  19.822  0.00  0.00    +0.000 A 
ATOM     29  C   UNL     1      -2.981  12.316  19.454  0.00  0.00    +0.000 A 
ATOM     30  C   UNL     1      -2.715  11.330  18.476  0.00  0.00    +0.000 A 
ATOM     31  H   UNL     1      -3.878   9.283  16.307  0.00  0.00    +0.000 HD
ENDBRANCH  21  22
ENDBRANCH   4  21
TORSDOF 4
ENDMDL
MODEL 3
REMARK VINA RESULT:      -8.9      1.309      1.467
REMARK  Name = 
REMARK  6 active torsions:
REMARK  status: ('A' for Active; 'I' for Inactive)
REMARK    1  A    between atoms: C_1  and  C_2
REMARK    2  A    between atoms: C_5  and  N_6
REMARK    3  A    between atoms: N_9  and  C_10
REMARK    4  A    between atoms: N_9  and  C_20
REMARK    5  A    between atoms: C_10  and  C_11
REMARK    6  A    between atoms: C_28  and  C_29
REMARK                            x       y       z     vdW  Elec       q    Type
REMARK                         _______ _______ _______ _____ _____    ______ ____
ROOT
ATOM      1  N   UNL     1       1.804   7.914  20.407  0.00  0.00    +0.000 N 
ATOM      2  C   UNL     1       2.211   8.028  19.086  0.00  0.00    +0.000 C 
ATOM      3  O   UNL     1       2.016   9.041  18.416  0.00  0.00    +0.000 OA
ATOM      4  N   UNL     1       2.870   6.905  18.545  0.00  0.00    +0.000 N 
ATOM      5  H   UNL     1       2.345   7.295  20.986  0.00  0.00    +0.000 HD
ENDROOT
BRANCH   1  10
ATOM      6  C   UNL     1      -1.624  11.663  23.131  0.00  0.00    +0.000 C 
ATOM      7  C   UNL     1      -0.720  10.706  22.401  0.00  0.00    +0.000 A 
ATOM      8  C   UNL     1      -0.029   9.730  23.128  0.00  0.00    +0.000 A 
ATOM      9  C   UNL     1       0.808   8.811  22.486  0.00  0.00    +0.000 A 
ATOM     10  C   UNL     1       0.982   8.842  21.104  0.00  0.00    +0.000 A 
ATOM     11  C   UNL     1       0.324   9.844  20.375  0.00  0.00    +0.000 A 
ATOM     12  C   UNL     1      -0.556  10.754  21.002  0.00  0.00    +0.000 A 
ATOM     13  C   UNL     1      -1.316  11.755  20.172  0.00  0.00    +0.000 C 
ENDBRANCH   1  10
BRANCH   4  14
ATOM     14  C   UNL     1       2.818   5.533  19.160  0.00  0.00    +0.000 C 
ATOM     15  C   UNL     1       1.718   4.658  18.514  0.00  0.00    +0.000 C 
ATOM     16  C   UNL     1       2.151   3.764  17.354  0.00  0.00    +0.000 C 
ATOM     17  C   UNL     1       2.697   2.408  17.801  0.00  0.00    +0.000 C 
ATOM     18  C   UNL     1       4.066   2.450  18.467  0.00  0.00    +0.000 C 
ATOM     19  C   UNL     1       4.148   3.356  19.694  0.00  0.00    +0.000 C 
ATOM     20  C   UNL     1       4.186   4.836  19.314  0.00  0.00    +0.000 C 
ENDBRANCH   4  14
BRANCH   4  21
ATOM     21  C   UNL     1       3.293   7.057  17.129  0.00  0.00    +0.000 C 
BRANCH  21  22
ATOM     22  C   UNL     1       4.763   6.781  16.914  0.00  0.00    +0.000 A 
ATOM     23  C   UNL     1       5.843   7.394  17.525  0.00  0.00    +0.000 A 
ATOM     24  N   UNL     1       6.980   6.729  17.164  0.00  0.00    +0.000 N 
ATOM     25  C   UNL     1       6.697   5.756  16.237  0.00  0.00    +0.000 A 
ATOM     26  C   UNL     1       7.547   4.844  15.593  0.00  0.00    +0.000 A 
ATOM     27  C   UNL     1       6.993   4.026  14.605  0.00  0.00    +0.000 A 
ATOM     28  C   UNL     1       5.640   4.106  14.291  0.00  0.00    +0.000 A 
ATOM     29  C   UNL     1       4.790   4.973  14.995  0.00  0.00    +0.000 A 
ATOM     30  C   UNL     1       5.320   5.816  15.999  0.00  0.00    +0.000 A 
ATOM     31  H   UNL     1       7.913   6.935  17.506  0.00  0.00    +0.000 HD
ENDBRANCH  21  22
ENDBRANCH   4  21
TORSDOF 4
ENDMDL
MODEL 4
REMARK VINA RESULT:      -8.7      2.447      9.009
REMARK  Name = 
REMARK  6 active torsions:
REMARK  status: ('A' for Active; 'I' for Inactive)
REMARK    1  A    between atoms: C_1  and  C_2
REMARK    2  A    between atoms: C_5  and  N_6
REMARK    3  A    between atoms: N_9  and  C_10
REMARK    4  A    between atoms: N_9  and  C_20
REMARK    5  A    between atoms: C_10  and  C_11
REMARK    6  A    between atoms: C_28  and  C_29
REMARK                            x       y       z     vdW  Elec       q    Type
REMARK                         _______ _______ _______ _____ _____    ______ ____
ROOT
ATOM      1  N   UNL     1       1.769   8.149  19.412  0.00  0.00    +0.000 N 
ATOM      2  C   UNL     1       1.221   9.127  18.597  0.00  0.00    +0.000 C 
ATOM      3  O   UNL     1       1.382   9.144  17.378  0.00  0.00    +0.000 OA
ATOM      4  N   UNL     1       0.455  10.116  19.251  0.00  0.00    +0.000 N 
ATOM      5  H   UNL     1       1.270   7.948  20.262  0.00  0.00    +0.000 HD
ENDROOT
BRANCH   1  10
ATOM      6  C   UNL     1       5.649   4.237  17.715  0.00  0.00    +0.000 C 
ATOM      7  C   UNL     1       4.627   5.262  18.129  0.00  0.00    +0.000 A 
ATOM      8  C   UNL     1       3.923   5.081  19.325  0.00  0.00    +0.000 A 
ATOM      9  C   UNL     1       2.977   6.017  19.755  0.00  0.00    +0.000 A 
ATOM     10  C   UNL     1       2.704   7.158  19.003  0.00  0.00    +0.000 A 
ATOM     11  C   UNL     1       3.377   7.325  17.783  0.00  0.00    +0.000 A 
ATOM     12  C   UNL     1       4.364   6.410  17.355  0.00  0.00    +0.000 A 
ATOM     13  C   UNL     1       5.131   6.673  16.086  0.00  0.00    +0.000 C 
ENDBRANCH   1  10
BRANCH   4  14
ATOM     14  C   UNL     1       0.516  10.371  20.732  0.00  0.00    +0.000 C 
ATOM     15  C   UNL     1       0.884  11.841  21.044  0.00  0.00    +0.000 C 
ATOM     16  C   UNL     1      -0.281  12.806  21.256  0.00  0.00    +0.000 C 
ATOM     17  C   UNL     1      -0.795  12.832  22.694  0.00  0.00    +0.000 C 
ATOM     18  C   UNL     1      -1.559  11.589  23.130  0.00  0.00    +0.000 C 
ATOM     19  C   UNL     1      -0.779  10.283  22.992  0.00  0.00    +0.000 C 
ATOM     20  C   UNL     1      -0.681   9.823  21.537  0.00  0.00    +0.000 C 
ENDBRANCH   4  14
BRANCH   4  21
ATOM     21  C   UNL     1      -0.119  11.150  18.352  0.00  0.00    +0.000 C 
BRANCH  21  22
ATOM     22  C   UNL     1      -1.526  10.833  17.902  0.00  0.00    +0.000 A 
ATOM     23  C   UNL     1      -1.923  10.015  16.859  0.00  0.00    +0.000 A 
ATOM     24  N   UNL     1      -3.281   9.879  16.908  0.00  0.00    +0.000 N 
ATOM     25  C   UNL     1      -3.811  10.677  17.891  0.00  0.00    +0.000 A 
ATOM     26  C   UNL     1      -5.144  10.858  18.290  0.00  0.00    +0.000 A 
ATOM     27  C   UNL     1      -5.406  11.826  19.263  0.00  0.00    +0.000 A 
ATOM     28  C   UNL     1      -4.372  12.567  19.825  0.00  0.00    +0.000 A 
ATOM     29  C   UNL     1      -3.036  12.323  19.466  0.00  0.00    +0.000 A 
ATOM     30  C   UNL     1      -2.739  11.352  18.483  0.00  0.00    +0.000 A 
ATOM     31  H   UNL     1      -3.834   9.293  16.291  0.00  0.00    +0.000 HD
ENDBRANCH  21  22
ENDBRANCH   4  21
TORSDOF 4
ENDMDL
MODEL 5
REMARK VINA RESULT:      -8.7      2.743      8.653
REMARK  Name = 
REMARK  6 active torsions:
REMARK  status: ('A' for Active; 'I' for Inactive)
REMARK    1  A    between atoms: C_1  and  C_2
REMARK    2  A    between atoms: C_5  and  N_6
REMARK    3  A    between atoms: N_9  and  C_10
REMARK    4  A    between atoms: N_9  and  C_20
REMARK    5  A    between atoms: C_10  and  C_11
REMARK    6  A    between atoms: C_28  and  C_29
REMARK                            x       y       z     vdW  Elec       q    Type
REMARK                         _______ _______ _______ _____ _____    ______ ____
ROOT
ATOM      1  N   UNL     1       1.797   8.081  18.951  0.00  0.00    +0.000 N 
ATOM      2  C   UNL     1       1.382   9.253  18.335  0.00  0.00    +0.000 C 
ATOM      3  O   UNL     1       1.581   9.485  17.144  0.00  0.00    +0.000 OA
ATOM      4  N   UNL     1       0.710  10.178  19.161  0.00  0.00    +0.000 N 
ATOM      5  H   UNL     1       1.254   7.779  19.742  0.00  0.00    +0.000 HD
ENDROOT
BRANCH   1  10
ATOM      6  C   UNL     1       5.064   4.005  16.513  0.00  0.00    +0.000 C 
ATOM      7  C   UNL     1       4.202   5.049  17.171  0.00  0.00    +0.000 A 
ATOM      8  C   UNL     1       4.657   6.371  17.232  0.00  0.00    +0.000 A 
ATOM      9  C   UNL     1       3.880   7.375  17.819  0.00  0.00    +0.000 A 
ATOM     10  C   UNL     1       2.630   7.089  18.365  0.00  0.00    +0.000 A 
ATOM     11  C   UNL     1       2.186   5.758  18.343  0.00  0.00    +0.000 A 
ATOM     12  C   UNL     1       2.940   4.740  17.718  0.00  0.00    +0.000 A 
ATOM     13  C   UNL     1       2.386   3.342  17.633  0.00  0.00    +0.000 C 
ENDBRANCH   1  10
BRANCH   4  14
ATOM     14  C   UNL     1       0.753  10.137  20.664  0.00  0.00    +0.000 C 
ATOM     15  C   UNL     1       0.996  11.540  21.267  0.00  0.00    +0.000 C 
ATOM     16  C   UNL     1      -0.247  12.342  21.651  0.00  0.00    +0.000 C 
ATOM     17  C   UNL     1      -0.757  12.037  23.059  0.00  0.00    +0.000 C 
ATOM     18  C   UNL     1      -1.410  10.672  23.228  0.00  0.00    +0.000 C 
ATOM     19  C   UNL     1      -0.522   9.490  22.843  0.00  0.00    +0.000 C 
ATOM     20  C   UNL     1      -0.390   9.340  21.327  0.00  0.00    +0.000 C 
ENDBRANCH   4  14
BRANCH   4  21
ATOM     21  C   UNL     1       0.278  11.423  18.474  0.00  0.00    +0.000 C 
BRANCH  21  22
ATOM     22  C   UNL     1      -1.223  11.560  18.378  0.00  0.00    +0.000 A 
ATOM     23  C   UNL     1      -2.071  12.256  19.222  0.00  0.00    +0.000 A 
ATOM     24  N   UNL     1      -3.323  12.255  18.676  0.00  0.00    +0.000 N 
ATOM     25  C   UNL     1      -3.355  11.479  17.544  0.00  0.00    +0.000 A 
ATOM     26  C   UNL     1      -4.417  11.191  16.674  0.00  0.00    +0.000 A 
ATOM     27  C   UNL     1      -4.185  10.274  15.646  0.00  0.00    +0.000 A 
ATOM     28  C   UNL     1      -2.934   9.686  15.487  0.00  0.00    +0.000 A 
ATOM     29  C   UNL     1      -1.863  10.039  16.322  0.00  0.00    +0.000 A 
ATOM     30  C   UNL     1      -2.067  10.962  17.373  0.00  0.00    +0.000 A 
ATOM     31  H   UNL     1      -4.130  12.735  19.061  0.00  0.00    +0.000 HD
ENDBRANCH  21  22
ENDBRANCH   4  21
TORSDOF 4
ENDMDL
MODEL 6
REMARK VINA RESULT:      -8.6      2.391      8.976
REMARK  Name = 
REMARK  6 active torsions:
REMARK  status: ('A' for Active; 'I' for Inactive)
REMARK    1  A    between atoms: C_1  and  C_2
REMARK    2  A    between atoms: C_5  and  N_6
REMARK    3  A    between atoms: N_9  and  C_10
REMARK    4  A    between atoms: N_9  and  C_20
REMARK    5  A    between atoms: C_10  and  C_11
REMARK    6  A    between atoms: C_28  and  C_29
REMARK                            x       y       z     vdW  Elec       q    Type
REMARK                         _______ _______ _______ _____ _____    ______ ____
ROOT
ATOM      1  N   UNL     1       1.459   7.888  20.080  0.00  0.00    +0.000 N 
ATOM      2  C   UNL     1       1.086   8.775  19.081  0.00  0.00    +0.000 C 
ATOM      3  O   UNL     1       1.285   8.555  17.887  0.00  0.00    +0.000 OA
ATOM      4  N   UNL     1       0.455   9.961  19.514  0.00  0.00    +0.000 N 
ATOM      5  H   UNL     1       0.910   7.912  20.922  0.00  0.00    +0.000 HD
ENDROOT
BRANCH   1  10
ATOM      6  C   UNL     1       4.546   3.077  19.338  0.00  0.00    +0.000 C 
ATOM      7  C   UNL     1       3.738   4.327  19.562  0.00  0.00    +0.000 A 
ATOM      8  C   UNL     1       4.054   5.483  18.839  0.00  0.00    +0.000 A 
ATOM      9  C   UNL     1       3.318   6.661  19.005  0.00  0.00    +0.000 A 
ATOM     10  C   UNL     1       2.249   6.720  19.897  0.00  0.00    +0.000 A 
ATOM     11  C   UNL     1       1.953   5.577  20.653  0.00  0.00    +0.000 A 
ATOM     12  C   UNL     1       2.660   4.368  20.470  0.00  0.00    +0.000 A 
ATOM     13  C   UNL     1       2.251   3.136  21.233  0.00  0.00    +0.000 C 
ENDBRANCH   1  10
BRANCH   4  14
ATOM     14  C   UNL     1       0.508  10.461  20.931  0.00  0.00    +0.000 C 
ATOM     15  C   UNL     1       1.076  11.898  21.010  0.00  0.00    +0.000 C 
ATOM     16  C   UNL     1       0.058  13.037  20.991  0.00  0.00    +0.000 C 
ATOM     17  C   UNL     1      -0.491  13.386  22.373  0.00  0.00    +0.000 C 
ATOM     18  C   UNL     1      -1.440  12.355  22.971  0.00  0.00    +0.000 C 
ATOM     19  C   UNL     1      -0.854  10.951  23.099  0.00  0.00    +0.000 C 
ATOM     20  C   UNL     1      -0.780  10.234  21.750  0.00  0.00    +0.000 C 
ENDBRANCH   4  14
BRANCH   4  21
ATOM     21  C   UNL     1       0.068  10.891  18.422  0.00  0.00    +0.000 C 
BRANCH  21  22
ATOM     22  C   UNL     1      -1.348  10.685  17.939  0.00  0.00    +0.000 A 
ATOM     23  C   UNL     1      -1.783   9.904  16.883  0.00  0.00    +0.000 A 
ATOM     24  N   UNL     1      -3.149   9.872  16.900  0.00  0.00    +0.000 N 
ATOM     25  C   UNL     1      -3.638  10.705  17.875  0.00  0.00    +0.000 A 
ATOM     26  C   UNL     1      -4.962  10.985  18.245  0.00  0.00    +0.000 A 
ATOM     27  C   UNL     1      -5.172  11.965  19.218  0.00  0.00    +0.000 A 
ATOM     28  C   UNL     1      -4.096  12.623  19.809  0.00  0.00    +0.000 A 
ATOM     29  C   UNL     1      -2.776  12.279  19.478  0.00  0.00    +0.000 A 
ATOM     30  C   UNL     1      -2.531  11.292  18.496  0.00  0.00    +0.000 A 
ATOM     31  H   UNL     1      -3.730   9.333  16.266  0.00  0.00    +0.000 HD
ENDBRANCH  21  22
ENDBRANCH   4  21
TORSDOF 4
ENDMDL
MODEL 7
REMARK VINA RESULT:      -8.6      1.129      1.378
REMARK  Name = 
REMARK  6 active torsions:
REMARK  status: ('A' for Active; 'I' for Inactive)
REMARK    1  A    between atoms: C_1  and  C_2
REMARK    2  A    between atoms: C_5  and  N_6
REMARK    3  A    between atoms: N_9  and  C_10
REMARK    4  A    between atoms: N_9  and  C_20
REMARK    5  A    between atoms: C_10  and  C_11
REMARK    6  A    between atoms: C_28  and  C_29
REMARK                            x       y       z     vdW  Elec       q    Type
REMARK                         _______ _______ _______ _____ _____    ______ ____
ROOT
ATOM      1  N   UNL     1       1.869   7.927  20.791  0.00  0.00    +0.000 N 
ATOM      2  C   UNL     1       2.098   7.725  19.438  0.00  0.00    +0.000 C 
ATOM      3  O   UNL     1       1.726   8.518  18.575  0.00  0.00    +0.000 OA
ATOM      4  N   UNL     1       2.792   6.544  19.100  0.00  0.00    +0.000 N 
ATOM      5  H   UNL     1       2.535   7.513  21.421  0.00  0.00    +0.000 HD
ENDROOT
BRANCH   1  10
ATOM      6  C   UNL     1      -1.496  12.092  22.926  0.00  0.00    +0.000 C 
ATOM      7  C   UNL     1      -0.598  11.026  22.358  0.00  0.00    +0.000 A 
ATOM      8  C   UNL     1      -0.401   9.843  23.079  0.00  0.00    +0.000 A 
ATOM      9  C   UNL     1       0.412   8.821  22.579  0.00  0.00    +0.000 A 
ATOM     10  C   UNL     1       1.054   8.950  21.349  0.00  0.00    +0.000 A 
ATOM     11  C   UNL     1       0.892  10.150  20.640  0.00  0.00    +0.000 A 
ATOM     12  C   UNL     1       0.043  11.176  21.111  0.00  0.00    +0.000 A 
ATOM     13  C   UNL     1      -0.177  12.410  20.276  0.00  0.00    +0.000 C 
ENDBRANCH   1  10
BRANCH   4  14
ATOM     14  C   UNL     1       2.949   5.376  20.034  0.00  0.00    +0.000 C 
ATOM     15  C   UNL     1       1.606   4.986  20.694  0.00  0.00    +0.000 C 
ATOM     16  C   UNL     1       0.792   3.899  19.995  0.00  0.00    +0.000 C 
ATOM     17  C   UNL     1       1.185   2.482  20.411  0.00  0.00    +0.000 C 
ATOM     18  C   UNL     1       2.535   2.006  19.891  0.00  0.00    +0.000 C 
ATOM     19  C   UNL     1       3.715   2.896  20.279  0.00  0.00    +0.000 C 
ATOM     20  C   UNL     1       3.753   4.189  19.463  0.00  0.00    +0.000 C 
ENDBRANCH   4  14
BRANCH   4  21
ATOM     21  C   UNL     1       3.022   6.355  17.645  0.00  0.00    +0.000 C 
BRANCH  21  22
ATOM     22  C   UNL     1       4.481   6.422  17.259  0.00  0.00    +0.000 A 
ATOM     23  C   UNL     1       5.458   7.260  17.764  0.00  0.00    +0.000 A 
ATOM     24  N   UNL     1       6.667   6.873  17.258  0.00  0.00    +0.000 N 
ATOM     25  C   UNL     1       6.504   5.866  16.338  0.00  0.00    +0.000 A 
ATOM     26  C   UNL     1       7.456   5.175  15.575  0.00  0.00    +0.000 A 
ATOM     27  C   UNL     1       6.991   4.257  14.630  0.00  0.00    +0.000 A 
ATOM     28  C   UNL     1       5.627   4.030  14.471  0.00  0.00    +0.000 A 
ATOM     29  C   UNL     1       4.691   4.677  15.293  0.00  0.00    +0.000 A 
ATOM     30  C   UNL     1       5.131   5.613  16.257  0.00  0.00    +0.000 A 
ATOM     31  H   UNL     1       7.562   7.284  17.500  0.00  0.00    +0.000 HD
ENDBRANCH  21  22
ENDBRANCH   4  21
TORSDOF 4
ENDMDL
MODEL 8
REMARK VINA RESULT:      -8.5      1.376      2.198
REMARK  Name = 
REMARK  6 active torsions:
REMARK  status: ('A' for Active; 'I' for Inactive)
REMARK    1  A    between atoms: C_1  and  C_2
REMARK    2  A    between atoms: C_5  and  N_6
REMARK    3  A    between atoms: N_9  and  C_10
REMARK    4  A    between atoms: N_9  and  C_20
REMARK    5  A    between atoms: C_10  and  C_11
REMARK    6  A    between atoms: C_28  and  C_29
REMARK                            x       y       z     vdW  Elec       q    Type
REMARK                         _______ _______ _______ _____ _____    ______ ____
ROOT
ATOM      1  N   UNL     1       2.204   7.629  19.986  0.00  0.00    +0.000 N 
ATOM      2  C   UNL     1       2.446   7.099  18.728  0.00  0.00    +0.000 C 
ATOM      3  O   UNL     1       2.062   7.641  17.692  0.00  0.00    +0.000 OA
ATOM      4  N   UNL     1       3.168   5.887  18.698  0.00  0.00    +0.000 N 
ATOM      5  H   UNL     1       2.874   7.402  20.700  0.00  0.00    +0.000 HD
ENDROOT
BRANCH   1  10
ATOM      6  C   UNL     1      -1.151  12.141  21.258  0.00  0.00    +0.000 C 
ATOM      7  C   UNL     1      -0.294  10.945  20.941  0.00  0.00    +0.000 A 
ATOM      8  C   UNL     1       0.321  10.859  19.687  0.00  0.00    +0.000 A 
ATOM      9  C   UNL     1       1.139   9.772  19.358  0.00  0.00    +0.000 A 
ATOM     10  C   UNL     1       1.362   8.740  20.268  0.00  0.00    +0.000 A 
ATOM     11  C   UNL     1       0.715   8.801  21.511  0.00  0.00    +0.000 A 
ATOM     12  C   UNL     1      -0.081   9.910  21.874  0.00  0.00    +0.000 A 
ATOM     13  C   UNL     1      -0.683   9.983  23.253  0.00  0.00    +0.000 C 
ENDBRANCH   1  10
BRANCH   4  14
ATOM     14  C   UNL     1       3.345   4.995  19.896  0.00  0.00    +0.000 C 
ATOM     15  C   UNL     1       2.113   5.044  20.832  0.00  0.00    +0.000 C 
ATOM     16  C   UNL     1       1.042   3.979  20.605  0.00  0.00    +0.000 C 
ATOM     17  C   UNL     1       1.314   2.673  21.350  0.00  0.00    +0.000 C 
ATOM     18  C   UNL     1       2.462   1.840  20.795  0.00  0.00    +0.000 C 
ATOM     19  C   UNL     1       3.803   2.569  20.731  0.00  0.00    +0.000 C 
ATOM     20  C   UNL     1       3.856   3.574  19.580  0.00  0.00    +0.000 C 
ENDBRANCH   4  14
BRANCH   4  21
ATOM     21  C   UNL     1       3.412   5.344  17.337  0.00  0.00    +0.000 C 
BRANCH  21  22
ATOM     22  C   UNL     1       4.785   5.674  16.802  0.00  0.00    +0.000 A 
ATOM     23  C   UNL     1       5.720   6.545  17.332  0.00  0.00    +0.000 A 
ATOM     24  N   UNL     1       6.883   6.417  16.627  0.00  0.00    +0.000 N 
ATOM     25  C   UNL     1       6.711   5.562  15.566  0.00  0.00    +0.000 A 
ATOM     26  C   UNL     1       7.622   5.144  14.584  0.00  0.00    +0.000 A 
ATOM     27  C   UNL     1       7.139   4.338  13.550  0.00  0.00    +0.000 A 
ATOM     28  C   UNL     1       5.802   3.953  13.514  0.00  0.00    +0.000 A 
ATOM     29  C   UNL     1       4.921   4.322  14.543  0.00  0.00    +0.000 A 
ATOM     30  C   UNL     1       5.379   5.138  15.602  0.00  0.00    +0.000 A 
ATOM     31  H   UNL     1       7.749   6.903  16.832  0.00  0.00    +0.000 HD
ENDBRANCH  21  22
ENDBRANCH   4  21
TORSDOF 4
ENDMDL
MODEL 9
REMARK VINA RESULT:      -8.5      2.774      8.659
REMARK  Name = 
REMARK  6 active torsions:
REMARK  status: ('A' for Active; 'I' for Inactive)
REMARK    1  A    between atoms: C_1  and  C_2
REMARK    2  A    between atoms: C_5  and  N_6
REMARK    3  A    between atoms: N_9  and  C_10
REMARK    4  A    between atoms: N_9  and  C_20
REMARK    5  A    between atoms: C_10  and  C_11
REMARK    6  A    between atoms: C_28  and  C_29
REMARK                            x       y       z     vdW  Elec       q    Type
REMARK                         _______ _______ _______ _____ _____    ______ ____
ROOT
ATOM      1  N   UNL     1       1.668   8.260  19.443  0.00  0.00    +0.000 N 
ATOM      2  C   UNL     1       1.256   9.342  18.680  0.00  0.00    +0.000 C 
ATOM      3  O   UNL     1       1.478   9.428  17.473  0.00  0.00    +0.000 OA
ATOM      4  N   UNL     1       0.559  10.354  19.372  0.00  0.00    +0.000 N 
ATOM      5  H   UNL     1       1.112   8.051  20.254  0.00  0.00    +0.000 HD
ENDROOT
BRANCH   1  10
ATOM      6  C   UNL     1       5.232   4.109  17.627  0.00  0.00    +0.000 C 
ATOM      7  C   UNL     1       4.295   5.199  18.072  0.00  0.00    +0.000 A 
ATOM      8  C   UNL     1       3.503   4.998  19.208  0.00  0.00    +0.000 A 
ATOM      9  C   UNL     1       2.632   5.992  19.665  0.00  0.00    +0.000 A 
ATOM     10  C   UNL     1       2.522   7.212  19.001  0.00  0.00    +0.000 A 
ATOM     11  C   UNL     1       3.284   7.404  17.838  0.00  0.00    +0.000 A 
ATOM     12  C   UNL     1       4.198   6.427  17.386  0.00  0.00    +0.000 A 
ATOM     13  C   UNL     1       5.065   6.709  16.187  0.00  0.00    +0.000 C 
ENDBRANCH   1  10
BRANCH   4  14
ATOM     14  C   UNL     1       0.572  10.499  20.870  0.00  0.00    +0.000 C 
ATOM     15  C   UNL     1       0.867  11.955  21.301  0.00  0.00    +0.000 C 
ATOM     16  C   UNL     1      -0.345  12.851  21.552  0.00  0.00    +0.000 C 
ATOM     17  C   UNL     1      -0.895  12.746  22.973  0.00  0.00    +0.000 C 
ATOM     18  C   UNL     1      -1.613  11.442  23.294  0.00  0.00    +0.000 C 
ATOM     19  C   UNL     1      -0.773  10.184  23.080  0.00  0.00    +0.000 C 
ATOM     20  C   UNL     1      -0.619   9.841  21.598  0.00  0.00    +0.000 C 
ENDBRANCH   4  14
BRANCH   4  21
ATOM     21  C   UNL     1       0.131  11.500  18.529  0.00  0.00    +0.000 C 
BRANCH  21  22
ATOM     22  C   UNL     1      -1.368  11.601  18.378  0.00  0.00    +0.000 A 
ATOM     23  C   UNL     1      -2.266  12.258  19.200  0.00  0.00    +0.000 A 
ATOM     24  N   UNL     1      -3.496  12.235  18.606  0.00  0.00    +0.000 N 
ATOM     25  C   UNL     1      -3.464  11.480  17.460  0.00  0.00    +0.000 A 
ATOM     26  C   UNL     1      -4.484  11.182  16.543  0.00  0.00    +0.000 A 
ATOM     27  C   UNL     1      -4.188  10.292  15.508  0.00  0.00    +0.000 A 
ATOM     28  C   UNL     1      -2.917   9.739  15.387  0.00  0.00    +0.000 A 
ATOM     29  C   UNL     1      -1.888  10.103  16.271  0.00  0.00    +0.000 A 
ATOM     30  C   UNL     1      -2.157  11.001  17.330  0.00  0.00    +0.000 A 
ATOM     31  H   UNL     1      -4.329  12.687  18.967  0.00  0.00    +0.000 HD
ENDBRANCH  21  22
ENDBRANCH   4  21
TORSDOF 4
ENDMDL
