MODEL 1
REMARK VINA RESULT:      -7.1      0.000      0.000
REMARK  Name = 
REMARK  9 active torsions:
REMARK  status: ('A' for Active; 'I' for Inactive)
REMARK    1  A    between atoms: C_1  and  C_2
REMARK    2  A    between atoms: C_2  and  C_3
REMARK    3  A    between atoms: C_2  and  O_4
REMARK    4  A    between atoms: C_2  and  C_5
REMARK    5  A    between atoms: C_5  and  N_6
REMARK    6  A    between atoms: N_12  and  C_13
REMARK    7  A    between atoms: C_17  and  C_18
REMARK    8  A    between atoms: C_28  and  C_29
REMARK    9  A    between atoms: C_32  and  C_33
REMARK                            x       y       z     vdW  Elec       q    Type
REMARK                         _______ _______ _______ _____ _____    ______ ____
ROOT
ATOM      1  N   UNL     1       2.111  13.877  20.437  0.00  0.00    +0.000 N 
ATOM      2  C   UNL     1       1.722  12.961  19.504  0.00  0.00    +0.000 C 
ATOM      3  O   UNL     1       2.554  12.451  18.754  0.00  0.00    +0.000 OA
ATOM      4  N   UNL     1       0.360  12.622  19.495  0.00  0.00    +0.000 N 
ATOM      5  C   UNL     1      -0.581  13.238  20.337  0.00  0.00    +0.000 C 
ATOM      6  O   UNL     1      -0.250  14.085  21.175  0.00  0.00    +0.000 OA
ATOM      7  N   UNL     1      -1.938  12.852  20.207  0.00  0.00    +0.000 N 
ATOM      8  C   UNL     1      -2.343  11.928  19.272  0.00  0.00    +0.000 C 
ATOM      9  C   UNL     1      -1.453  11.383  18.455  0.00  0.00    +0.000 C 
ATOM     10  C   UNL     1      -2.197  10.515  17.546  0.00  0.00    +0.000 C 
ATOM     11  O   UNL     1      -1.680   9.889  16.635  0.00  0.00    +0.000 OA
ATOM     12  C   UNL     1      -3.660  10.502  17.878  0.00  0.00    +0.000 C 
ATOM     13  C   UNL     1      -3.759  11.507  19.025  0.00  0.00    +0.000 C 
ATOM     14  C   UNL     1       0.002  11.594  18.499  0.00  0.00    +0.000 C 
ATOM     15  H   UNL     1       1.405  14.526  20.782  0.00  0.00    +0.000 HD
ENDROOT
BRANCH   7  16
ATOM     16  C   UNL     1      -2.873  13.517  21.057  0.00  0.00    +0.000 A 
ATOM     17  C   UNL     1      -3.260  14.834  20.774  0.00  0.00    +0.000 A 
ATOM     18  C   UNL     1      -4.112  15.518  21.638  0.00  0.00    +0.000 A 
ATOM     19  C   UNL     1      -4.574  14.895  22.797  0.00  0.00    +0.000 A 
ATOM     20  C   UNL     1      -4.207  13.573  23.091  0.00  0.00    +0.000 A 
ATOM     21  C   UNL     1      -3.358  12.886  22.208  0.00  0.00    +0.000 A 
BRANCH  20  22
ATOM     22  C   UNL     1      -4.661  12.924  24.370  0.00  0.00    +0.000 C 
ATOM     23  F   UNL     1      -5.968  12.539  24.337  0.00  0.00    +0.000 F 
ATOM     24  F   UNL     1      -3.953  11.799  24.670  0.00  0.00    +0.000 F 
ENDBRANCH  20  22
ENDBRANCH   7  16
BRANCH  14  25
ATOM     25  C   UNL     1       0.704  10.262  18.766  0.00  0.00    +0.000 A 
ATOM     26  C   UNL     1       0.612   9.676  20.041  0.00  0.00    +0.000 A 
ATOM     27  C   UNL     1       1.245   8.467  20.307  0.00  0.00    +0.000 A 
ATOM     28  C   UNL     1       1.986   7.835  19.306  0.00  0.00    +0.000 A 
ATOM     29  C   UNL     1       2.089   8.408  18.034  0.00  0.00    +0.000 A 
ATOM     30  C   UNL     1       1.445   9.615  17.764  0.00  0.00    +0.000 A 
BRANCH  28  31
ATOM     31  C   UNL     1       2.639   6.592  19.576  0.00  0.00    +0.000 C 
ATOM     32  N   UNL     1       3.172   5.581  19.795  0.00  0.00    +0.000 NA
ENDBRANCH  28  31
ENDBRANCH  14  25
BRANCH   1  33
ATOM     33  C   UNL     1       3.492  14.238  20.671  0.00  0.00    +0.000 C 
BRANCH  33  35
ATOM     34  C   UNL     1       3.932  16.546  21.540  0.00  0.00    +0.000 C 
ATOM     35  C   UNL     1       3.660  15.096  21.943  0.00  0.00    +0.000 C 
ATOM     36  C   UNL     1       4.787  14.580  22.845  0.00  0.00    +0.000 C 
BRANCH  35  37
ATOM     37  O   UNL     1       2.430  15.066  22.679  0.00  0.00    +0.000 OA
ATOM     38  H   UNL     1       2.073  14.162  22.623  0.00  0.00    +0.000 HD
ENDBRANCH  35  37
ENDBRANCH  33  35
ENDBRANCH   1  33
TORSDOF 7
ENDMDL
MODEL 2
REMARK VINA RESULT:      -7.0      0.778      1.357
REMARK  Name = 
REMARK  9 active torsions:
REMARK  status: ('A' for Active; 'I' for Inactive)
REMARK    1  A    between atoms: C_1  and  C_2
REMARK    2  A    between atoms: C_2  and  C_3
REMARK    3  A    between atoms: C_2  and  O_4
REMARK    4  A    between atoms: C_2  and  C_5
REMARK    5  A    between atoms: C_5  and  N_6
REMARK    6  A    between atoms: N_12  and  C_13
REMARK    7  A    between atoms: C_17  and  C_18
REMARK    8  A    between atoms: C_28  and  C_29
REMARK    9  A    between atoms: C_32  and  C_33
REMARK                            x       y       z     vdW  Elec       q    Type
REMARK                         _______ _______ _______ _____ _____    ______ ____
ROOT
ATOM      1  N   UNL     1       1.953  13.905  20.610  0.00  0.00    +0.000 N 
ATOM      2  C   UNL     1       1.608  12.989  19.660  0.00  0.00    +0.000 C 
ATOM      3  O   UNL     1       2.471  12.490  18.940  0.00  0.00    +0.000 OA
ATOM      4  N   UNL     1       0.249  12.638  19.600  0.00  0.00    +0.000 N 
ATOM      5  C   UNL     1      -0.727  13.242  20.408  0.00  0.00    +0.000 C 
ATOM      6  O   UNL     1      -0.436  14.089  21.262  0.00  0.00    +0.000 OA
ATOM      7  N   UNL     1      -2.075  12.844  20.227  0.00  0.00    +0.000 N 
ATOM      8  C   UNL     1      -2.437  11.921  19.274  0.00  0.00    +0.000 C 
ATOM      9  C   UNL     1      -1.512  11.386  18.489  0.00  0.00    +0.000 C 
ATOM     10  C   UNL     1      -2.214  10.516  17.549  0.00  0.00    +0.000 C 
ATOM     11  O   UNL     1      -1.658   9.899  16.656  0.00  0.00    +0.000 OA
ATOM     12  C   UNL     1      -3.688  10.488  17.828  0.00  0.00    +0.000 C 
ATOM     13  C   UNL     1      -3.839  11.488  18.974  0.00  0.00    +0.000 C 
ATOM     14  C   UNL     1      -0.062  11.611  18.587  0.00  0.00    +0.000 C 
ATOM     15  H   UNL     1       1.229  14.546  20.932  0.00  0.00    +0.000 HD
ENDROOT
BRANCH   7  16
ATOM     16  C   UNL     1      -3.047  13.497  21.045  0.00  0.00    +0.000 A 
ATOM     17  C   UNL     1      -3.452  14.804  20.739  0.00  0.00    +0.000 A 
ATOM     18  C   UNL     1      -4.341  15.477  21.573  0.00  0.00    +0.000 A 
ATOM     19  C   UNL     1      -4.823  14.855  22.724  0.00  0.00    +0.000 A 
ATOM     20  C   UNL     1      -4.438  13.543  23.040  0.00  0.00    +0.000 A 
ATOM     21  C   UNL     1      -3.551  12.867  22.188  0.00  0.00    +0.000 A 
BRANCH  20  22
ATOM     22  C   UNL     1      -4.915  12.896  24.312  0.00  0.00    +0.000 C 
ATOM     23  F   UNL     1      -6.147  12.327  24.191  0.00  0.00    +0.000 F 
ATOM     24  F   UNL     1      -4.089  11.899  24.738  0.00  0.00    +0.000 F 
ENDBRANCH  20  22
ENDBRANCH   7  16
BRANCH  14  25
ATOM     25  C   UNL     1       0.642  10.285  18.875  0.00  0.00    +0.000 A 
ATOM     26  C   UNL     1       1.399   9.670  17.862  0.00  0.00    +0.000 A 
ATOM     27  C   UNL     1       2.046   8.463  18.099  0.00  0.00    +0.000 A 
ATOM     28  C   UNL     1       1.935   7.850  19.350  0.00  0.00    +0.000 A 
ATOM     29  C   UNL     1       1.183   8.447  20.366  0.00  0.00    +0.000 A 
ATOM     30  C   UNL     1       0.544   9.664  20.131  0.00  0.00    +0.000 A 
BRANCH  28  31
ATOM     31  C   UNL     1       2.598   6.608  19.598  0.00  0.00    +0.000 C 
ATOM     32  N   UNL     1       3.139   5.597  19.798  0.00  0.00    +0.000 NA
ENDBRANCH  28  31
ENDBRANCH  14  25
BRANCH   1  33
ATOM     33  C   UNL     1       3.322  14.277  20.896  0.00  0.00    +0.000 C 
BRANCH  33  35
ATOM     34  C   UNL     1       4.945  16.179  20.744  0.00  0.00    +0.000 C 
ATOM     35  C   UNL     1       3.790  15.470  20.036  0.00  0.00    +0.000 C 
ATOM     36  C   UNL     1       2.656  16.462  19.754  0.00  0.00    +0.000 C 
BRANCH  35  37
ATOM     37  O   UNL     1       4.282  14.965  18.786  0.00  0.00    +0.000 OA
ATOM     38  H   UNL     1       5.094  14.460  18.969  0.00  0.00    +0.000 HD
ENDBRANCH  35  37
ENDBRANCH  33  35
ENDBRANCH   1  33
TORSDOF 7
ENDMDL
MODEL 3
REMARK VINA RESULT:      -6.9      1.242      1.850
REMARK  Name = 
REMARK  9 active torsions:
REMARK  status: ('A' for Active; 'I' for Inactive)
REMARK    1  A    between atoms: C_1  and  C_2
REMARK    2  A    between atoms: C_2  and  C_3
REMARK    3  A    between atoms: C_2  and  O_4
REMARK    4  A    between atoms: C_2  and  C_5
REMARK    5  A    between atoms: C_5  and  N_6
REMARK    6  A    between atoms: N_12  and  C_13
REMARK    7  A    between atoms: C_17  and  C_18
REMARK    8  A    between atoms: C_28  and  C_29
REMARK    9  A    between atoms: C_32  and  C_33
REMARK                            x       y       z     vdW  Elec       q    Type
REMARK                         _______ _______ _______ _____ _____    ______ ____
ROOT
ATOM      1  N   UNL     1       2.515  14.063  19.819  0.00  0.00    +0.000 N 
ATOM      2  C   UNL     1       1.984  13.077  19.040  0.00  0.00    +0.000 C 
ATOM      3  O   UNL     1       2.706  12.437  18.275  0.00  0.00    +0.000 OA
ATOM      4  N   UNL     1       0.612  12.825  19.204  0.00  0.00    +0.000 N 
ATOM      5  C   UNL     1      -0.202  13.586  20.057  0.00  0.00    +0.000 C 
ATOM      6  O   UNL     1       0.257  14.497  20.757  0.00  0.00    +0.000 OA
ATOM      7  N   UNL     1      -1.583  13.274  20.107  0.00  0.00    +0.000 N 
ATOM      8  C   UNL     1      -2.131  12.281  19.328  0.00  0.00    +0.000 C 
ATOM      9  C   UNL     1      -1.360  11.595  18.496  0.00  0.00    +0.000 C 
ATOM     10  C   UNL     1      -2.238  10.682  17.769  0.00  0.00    +0.000 C 
ATOM     11  O   UNL     1      -1.852   9.930  16.889  0.00  0.00    +0.000 OA
ATOM     12  C   UNL     1      -3.657  10.796  18.243  0.00  0.00    +0.000 C 
ATOM     13  C   UNL     1      -3.584  11.925  19.271  0.00  0.00    +0.000 C 
ATOM     14  C   UNL     1       0.100  11.719  18.372  0.00  0.00    +0.000 C 
ATOM     15  H   UNL     1       1.882  14.788  20.156  0.00  0.00    +0.000 HD
ENDROOT
BRANCH   7  16
ATOM     16  C   UNL     1      -2.389  14.085  20.962  0.00  0.00    +0.000 A 
ATOM     17  C   UNL     1      -2.784  15.363  20.545  0.00  0.00    +0.000 A 
ATOM     18  C   UNL     1      -3.505  16.191  21.402  0.00  0.00    +0.000 A 
ATOM     19  C   UNL     1      -3.827  15.753  22.686  0.00  0.00    +0.000 A 
ATOM     20  C   UNL     1      -3.451  14.472  23.117  0.00  0.00    +0.000 A 
ATOM     21  C   UNL     1      -2.735  13.638  22.243  0.00  0.00    +0.000 A 
BRANCH  20  22
ATOM     22  C   UNL     1      -3.750  14.024  24.522  0.00  0.00    +0.000 C 
ATOM     23  F   UNL     1      -3.718  12.670  24.667  0.00  0.00    +0.000 F 
ATOM     24  F   UNL     1      -2.861  14.513  25.432  0.00  0.00    +0.000 F 
ENDBRANCH  20  22
ENDBRANCH   7  16
BRANCH  14  25
ATOM     25  C   UNL     1       0.758  10.383  18.720  0.00  0.00    +0.000 A 
ATOM     26  C   UNL     1       1.428   9.661  17.716  0.00  0.00    +0.000 A 
ATOM     27  C   UNL     1       2.031   8.443  18.008  0.00  0.00    +0.000 A 
ATOM     28  C   UNL     1       1.961   7.926  19.305  0.00  0.00    +0.000 A 
ATOM     29  C   UNL     1       1.296   8.632  20.312  0.00  0.00    +0.000 A 
ATOM     30  C   UNL     1       0.701   9.859  20.022  0.00  0.00    +0.000 A 
BRANCH  28  31
ATOM     31  C   UNL     1       2.580   6.674  19.609  0.00  0.00    +0.000 C 
ATOM     32  N   UNL     1       3.082   5.654  19.855  0.00  0.00    +0.000 NA
ENDBRANCH  28  31
ENDBRANCH  14  25
BRANCH   1  33
ATOM     33  C   UNL     1       3.929  14.360  19.873  0.00  0.00    +0.000 C 
BRANCH  33  35
ATOM     34  C   UNL     1       5.714  15.977  19.184  0.00  0.00    +0.000 C 
ATOM     35  C   UNL     1       4.343  15.407  18.818  0.00  0.00    +0.000 C 
ATOM     36  C   UNL     1       3.318  16.540  18.693  0.00  0.00    +0.000 C 
BRANCH  35  37
ATOM     37  O   UNL     1       4.462  14.752  17.548  0.00  0.00    +0.000 OA
ATOM     38  H   UNL     1       4.030  15.314  16.881  0.00  0.00    +0.000 HD
ENDBRANCH  35  37
ENDBRANCH  33  35
ENDBRANCH   1  33
TORSDOF 7
ENDMDL
MODEL 4
REMARK VINA RESULT:      -6.9      0.533      1.003
REMARK  Name = 
REMARK  9 active torsions:
REMARK  status: ('A' for Active; 'I' for Inactive)
REMARK    1  A    between atoms: C_1  and  C_2
REMARK    2  A    between atoms: C_2  and  C_3
REMARK    3  A    between atoms: C_2  and  O_4
REMARK    4  A    between atoms: C_2  and  C_5
REMARK    5  A    between atoms: C_5  and  N_6
REMARK    6  A    between atoms: N_12  and  C_13
REMARK    7  A    between atoms: C_17  and  C_18
REMARK    8  A    between atoms: C_28  and  C_29
REMARK    9  A    between atoms: C_32  and  C_33
REMARK                            x       y       z     vdW  Elec       q    Type
REMARK                         _______ _______ _______ _____ _____    ______ ____
ROOT
ATOM      1  N   UNL     1       1.696  14.001  20.764  0.00  0.00    +0.000 N 
ATOM      2  C   UNL     1       1.401  13.104  19.779  0.00  0.00    +0.000 C 
ATOM      3  O   UNL     1       2.296  12.654  19.065  0.00  0.00    +0.000 OA
ATOM      4  N   UNL     1       0.056  12.713  19.677  0.00  0.00    +0.000 N 
ATOM      5  C   UNL     1      -0.957  13.262  20.479  0.00  0.00    +0.000 C 
ATOM      6  O   UNL     1      -0.712  14.091  21.364  0.00  0.00    +0.000 OA
ATOM      7  N   UNL     1      -2.287  12.828  20.255  0.00  0.00    +0.000 N 
ATOM      8  C   UNL     1      -2.599  11.923  19.267  0.00  0.00    +0.000 C 
ATOM      9  C   UNL     1      -1.640  11.441  18.489  0.00  0.00    +0.000 C 
ATOM     10  C   UNL     1      -2.292  10.578  17.508  0.00  0.00    +0.000 C 
ATOM     11  O   UNL     1      -1.697  10.006  16.610  0.00  0.00    +0.000 OA
ATOM     12  C   UNL     1      -3.771  10.496  17.750  0.00  0.00    +0.000 C 
ATOM     13  C   UNL     1      -3.978  11.456  18.921  0.00  0.00    +0.000 C 
ATOM     14  C   UNL     1      -0.200  11.707  18.628  0.00  0.00    +0.000 C 
ATOM     15  H   UNL     1       0.944  14.610  21.087  0.00  0.00    +0.000 HD
ENDROOT
BRANCH   7  16
ATOM     16  C   UNL     1      -3.298  13.426  21.068  0.00  0.00    +0.000 A 
ATOM     17  C   UNL     1      -3.842  14.666  20.707  0.00  0.00    +0.000 A 
ATOM     18  C   UNL     1      -4.772  15.294  21.532  0.00  0.00    +0.000 A 
ATOM     19  C   UNL     1      -5.156  14.693  22.730  0.00  0.00    +0.000 A 
ATOM     20  C   UNL     1      -4.632  13.446  23.103  0.00  0.00    +0.000 A 
ATOM     21  C   UNL     1      -3.704  12.814  22.259  0.00  0.00    +0.000 A 
BRANCH  20  22
ATOM     22  C   UNL     1      -5.005  12.827  24.423  0.00  0.00    +0.000 C 
ATOM     23  F   UNL     1      -6.270  12.322  24.435  0.00  0.00    +0.000 F 
ATOM     24  F   UNL     1      -4.190  11.790  24.768  0.00  0.00    +0.000 F 
ENDBRANCH  20  22
ENDBRANCH   7  16
BRANCH  14  25
ATOM     25  C   UNL     1       0.539  10.396  18.893  0.00  0.00    +0.000 A 
ATOM     26  C   UNL     1       1.310   9.818  17.869  0.00  0.00    +0.000 A 
ATOM     27  C   UNL     1       1.989   8.624  18.086  0.00  0.00    +0.000 A 
ATOM     28  C   UNL     1       1.896   7.988  19.327  0.00  0.00    +0.000 A 
ATOM     29  C   UNL     1       1.131   8.550  20.354  0.00  0.00    +0.000 A 
ATOM     30  C   UNL     1       0.460   9.753  20.139  0.00  0.00    +0.000 A 
BRANCH  28  31
ATOM     31  C   UNL     1       2.592   6.760  19.554  0.00  0.00    +0.000 C 
ATOM     32  N   UNL     1       3.160   5.762  19.740  0.00  0.00    +0.000 NA
ENDBRANCH  28  31
ENDBRANCH  14  25
BRANCH   1  33
ATOM     33  C   UNL     1       3.044  14.407  21.093  0.00  0.00    +0.000 C 
BRANCH  33  35
ATOM     34  C   UNL     1       2.270  16.787  20.975  0.00  0.00    +0.000 C 
ATOM     35  C   UNL     1       3.082  15.782  21.793  0.00  0.00    +0.000 C 
ATOM     36  C   UNL     1       4.513  16.295  21.986  0.00  0.00    +0.000 C 
BRANCH  35  37
ATOM     37  O   UNL     1       2.461  15.655  23.079  0.00  0.00    +0.000 OA
ATOM     38  H   UNL     1       2.590  16.495  23.556  0.00  0.00    +0.000 HD
ENDBRANCH  35  37
ENDBRANCH  33  35
ENDBRANCH   1  33
TORSDOF 7
ENDMDL
MODEL 5
REMARK VINA RESULT:      -6.9      0.961      1.215
REMARK  Name = 
REMARK  9 active torsions:
REMARK  status: ('A' for Active; 'I' for Inactive)
REMARK    1  A    between atoms: C_1  and  C_2
REMARK    2  A    between atoms: C_2  and  C_3
REMARK    3  A    between atoms: C_2  and  O_4
REMARK    4  A    between atoms: C_2  and  C_5
REMARK    5  A    between atoms: C_5  and  N_6
REMARK    6  A    between atoms: N_12  and  C_13
REMARK    7  A    between atoms: C_17  and  C_18
REMARK    8  A    between atoms: C_28  and  C_29
REMARK    9  A    between atoms: C_32  and  C_33
REMARK                            x       y       z     vdW  Elec       q    Type
REMARK                         _______ _______ _______ _____ _____    ______ ____
ROOT
ATOM      1  N   UNL     1       2.164  13.848  20.260  0.00  0.00    +0.000 N 
ATOM      2  C   UNL     1       1.760  12.903  19.362  0.00  0.00    +0.000 C 
ATOM      3  O   UNL     1       2.580  12.369  18.616  0.00  0.00    +0.000 OA
ATOM      4  N   UNL     1       0.398  12.565  19.387  0.00  0.00    +0.000 N 
ATOM      5  C   UNL     1      -0.529  13.208  20.223  0.00  0.00    +0.000 C 
ATOM      6  O   UNL     1      -0.185  14.081  21.029  0.00  0.00    +0.000 OA
ATOM      7  N   UNL     1      -1.888  12.818  20.128  0.00  0.00    +0.000 N 
ATOM      8  C   UNL     1      -2.309  11.866  19.229  0.00  0.00    +0.000 C 
ATOM      9  C   UNL     1      -1.432  11.294  18.417  0.00  0.00    +0.000 C 
ATOM     10  C   UNL     1      -2.190  10.398  17.547  0.00  0.00    +0.000 C 
ATOM     11  O   UNL     1      -1.688   9.743  16.649  0.00  0.00    +0.000 OA
ATOM     12  C   UNL     1      -3.648  10.396  17.904  0.00  0.00    +0.000 C 
ATOM     13  C   UNL     1      -3.728  11.438  19.019  0.00  0.00    +0.000 C 
ATOM     14  C   UNL     1       0.024  11.505  18.430  0.00  0.00    +0.000 C 
ATOM     15  H   UNL     1       1.463  14.508  20.595  0.00  0.00    +0.000 HD
ENDROOT
BRANCH   7  16
ATOM     16  C   UNL     1      -2.810  13.511  20.970  0.00  0.00    +0.000 A 
ATOM     17  C   UNL     1      -3.361  14.729  20.550  0.00  0.00    +0.000 A 
ATOM     18  C   UNL     1      -4.201  15.451  21.396  0.00  0.00    +0.000 A 
ATOM     19  C   UNL     1      -4.486  14.966  22.672  0.00  0.00    +0.000 A 
ATOM     20  C   UNL     1      -3.953  13.743  23.106  0.00  0.00    +0.000 A 
ATOM     21  C   UNL     1      -3.117  13.016  22.242  0.00  0.00    +0.000 A 
BRANCH  20  22
ATOM     22  C   UNL     1      -4.216  13.250  24.503  0.00  0.00    +0.000 C 
ATOM     23  F   UNL     1      -4.078  11.901  24.627  0.00  0.00    +0.000 F 
ATOM     24  F   UNL     1      -3.370  13.794  25.422  0.00  0.00    +0.000 F 
ENDBRANCH  20  22
ENDBRANCH   7  16
BRANCH  14  25
ATOM     25  C   UNL     1       0.730  10.183  18.728  0.00  0.00    +0.000 A 
ATOM     26  C   UNL     1       0.649   9.632  20.019  0.00  0.00    +0.000 A 
ATOM     27  C   UNL     1       1.286   8.432  20.315  0.00  0.00    +0.000 A 
ATOM     28  C   UNL     1       2.020   7.773  19.325  0.00  0.00    +0.000 A 
ATOM     29  C   UNL     1       2.112   8.311  18.037  0.00  0.00    +0.000 A 
ATOM     30  C   UNL     1       1.463   9.508  17.738  0.00  0.00    +0.000 A 
BRANCH  28  31
ATOM     31  C   UNL     1       2.677   6.539  19.624  0.00  0.00    +0.000 C 
ATOM     32  N   UNL     1       3.212   5.535  19.866  0.00  0.00    +0.000 NA
ENDBRANCH  28  31
ENDBRANCH  14  25
BRANCH   1  33
ATOM     33  C   UNL     1       3.549  14.216  20.460  0.00  0.00    +0.000 C 
BRANCH  33  35
ATOM     34  C   UNL     1       2.667  16.436  19.704  0.00  0.00    +0.000 C 
ATOM     35  C   UNL     1       3.906  15.540  19.751  0.00  0.00    +0.000 C 
ATOM     36  C   UNL     1       4.445  15.312  18.335  0.00  0.00    +0.000 C 
BRANCH  35  37
ATOM     37  O   UNL     1       4.909  16.214  20.524  0.00  0.00    +0.000 OA
ATOM     38  H   UNL     1       4.478  16.951  20.991  0.00  0.00    +0.000 HD
ENDBRANCH  35  37
ENDBRANCH  33  35
ENDBRANCH   1  33
TORSDOF 7
ENDMDL
MODEL 6
REMARK VINA RESULT:      -6.6      1.645      2.048
REMARK  Name = 
REMARK  9 active torsions:
REMARK  status: ('A' for Active; 'I' for Inactive)
REMARK    1  A    between atoms: C_1  and  C_2
REMARK    2  A    between atoms: C_2  and  C_3
REMARK    3  A    between atoms: C_2  and  O_4
REMARK    4  A    between atoms: C_2  and  C_5
REMARK    5  A    between atoms: C_5  and  N_6
REMARK    6  A    between atoms: N_12  and  C_13
REMARK    7  A    between atoms: C_17  and  C_18
REMARK    8  A    between atoms: C_28  and  C_29
REMARK    9  A    between atoms: C_32  and  C_33
REMARK                            x       y       z     vdW  Elec       q    Type
REMARK                         _______ _______ _______ _____ _____    ______ ____
ROOT
ATOM      1  N   UNL     1       2.681  14.201  19.795  0.00  0.00    +0.000 N 
ATOM      2  C   UNL     1       2.076  13.244  19.034  0.00  0.00    +0.000 C 
ATOM      3  O   UNL     1       2.737  12.574  18.242  0.00  0.00    +0.000 OA
ATOM      4  N   UNL     1       0.701  13.056  19.251  0.00  0.00    +0.000 N 
ATOM      5  C   UNL     1      -0.044  13.852  20.136  0.00  0.00    +0.000 C 
ATOM      6  O   UNL     1       0.484  14.738  20.819  0.00  0.00    +0.000 OA
ATOM      7  N   UNL     1      -1.435  13.604  20.238  0.00  0.00    +0.000 N 
ATOM      8  C   UNL     1      -2.058  12.640  19.479  0.00  0.00    +0.000 C 
ATOM      9  C   UNL     1      -1.352  11.922  18.617  0.00  0.00    +0.000 C 
ATOM     10  C   UNL     1      -2.300  11.053  17.924  0.00  0.00    +0.000 C 
ATOM     11  O   UNL     1      -1.983  10.286  17.029  0.00  0.00    +0.000 OA
ATOM     12  C   UNL     1      -3.693  11.232  18.452  0.00  0.00    +0.000 C 
ATOM     13  C   UNL     1      -3.527  12.353  19.478  0.00  0.00    +0.000 C 
ATOM     14  C   UNL     1       0.106  11.977  18.438  0.00  0.00    +0.000 C 
ATOM     15  H   UNL     1       2.097  14.955  20.156  0.00  0.00    +0.000 HD
ENDROOT
BRANCH   7  16
ATOM     16  C   UNL     1      -2.169  14.449  21.125  0.00  0.00    +0.000 A 
ATOM     17  C   UNL     1      -2.786  15.608  20.635  0.00  0.00    +0.000 A 
ATOM     18  C   UNL     1      -3.439  16.479  21.504  0.00  0.00    +0.000 A 
ATOM     19  C   UNL     1      -3.469  16.204  22.871  0.00  0.00    +0.000 A 
ATOM     20  C   UNL     1      -2.868  15.042  23.379  0.00  0.00    +0.000 A 
ATOM     21  C   UNL     1      -2.222  14.163  22.494  0.00  0.00    +0.000 A 
BRANCH  20  22
ATOM     22  C   UNL     1      -2.853  14.778  24.860  0.00  0.00    +0.000 C 
ATOM     23  F   UNL     1      -1.597  14.761  25.385  0.00  0.00    +0.000 F 
ATOM     24  F   UNL     1      -3.538  15.717  25.570  0.00  0.00    +0.000 F 
ENDBRANCH  20  22
ENDBRANCH   7  16
BRANCH  14  25
ATOM     25  C   UNL     1       0.713  10.611  18.758  0.00  0.00    +0.000 A 
ATOM     26  C   UNL     1       0.619  10.103  20.066  0.00  0.00    +0.000 A 
ATOM     27  C   UNL     1       1.166   8.864  20.381  0.00  0.00    +0.000 A 
ATOM     28  C   UNL     1       1.823   8.123  19.395  0.00  0.00    +0.000 A 
ATOM     29  C   UNL     1       1.927   8.618  18.091  0.00  0.00    +0.000 A 
ATOM     30  C   UNL     1       1.368   9.855  17.772  0.00  0.00    +0.000 A 
BRANCH  28  31
ATOM     31  C   UNL     1       2.387   6.849  19.715  0.00  0.00    +0.000 C 
ATOM     32  N   UNL     1       2.847   5.813  19.974  0.00  0.00    +0.000 NA
ENDBRANCH  28  31
ENDBRANCH  14  25
BRANCH   1  33
ATOM     33  C   UNL     1       4.109  14.432  19.795  0.00  0.00    +0.000 C 
BRANCH  33  35
ATOM     34  C   UNL     1       5.864  16.081  19.104  0.00  0.00    +0.000 C 
ATOM     35  C   UNL     1       4.535  15.439  18.705  0.00  0.00    +0.000 C 
ATOM     36  C   UNL     1       3.476  16.521  18.471  0.00  0.00    +0.000 C 
BRANCH  35  37
ATOM     37  O   UNL     1       4.741  14.723  17.479  0.00  0.00    +0.000 OA
ATOM     38  H   UNL     1       4.941  13.798  17.705  0.00  0.00    +0.000 HD
ENDBRANCH  35  37
ENDBRANCH  33  35
ENDBRANCH   1  33
TORSDOF 7
ENDMDL
MODEL 7
REMARK VINA RESULT:      -6.5      1.621      2.054
REMARK  Name = 
REMARK  9 active torsions:
REMARK  status: ('A' for Active; 'I' for Inactive)
REMARK    1  A    between atoms: C_1  and  C_2
REMARK    2  A    between atoms: C_2  and  C_3
REMARK    3  A    between atoms: C_2  and  O_4
REMARK    4  A    between atoms: C_2  and  C_5
REMARK    5  A    between atoms: C_5  and  N_6
REMARK    6  A    between atoms: N_12  and  C_13
REMARK    7  A    between atoms: C_17  and  C_18
REMARK    8  A    between atoms: C_28  and  C_29
REMARK    9  A    between atoms: C_32  and  C_33
REMARK                            x       y       z     vdW  Elec       q    Type
REMARK                         _______ _______ _______ _____ _____    ______ ____
ROOT
ATOM      1  N   UNL     1       0.343  14.536  21.393  0.00  0.00    +0.000 N 
ATOM      2  C   UNL     1       0.254  13.690  20.326  0.00  0.00    +0.000 C 
ATOM      3  O   UNL     1       1.268  13.370  19.706  0.00  0.00    +0.000 OA
ATOM      4  N   UNL     1      -1.025  13.195  20.030  0.00  0.00    +0.000 N 
ATOM      5  C   UNL     1      -2.176  13.596  20.728  0.00  0.00    +0.000 C 
ATOM      6  O   UNL     1      -2.118  14.378  21.686  0.00  0.00    +0.000 OA
ATOM      7  N   UNL     1      -3.422  13.068  20.310  0.00  0.00    +0.000 N 
ATOM      8  C   UNL     1      -3.525  12.213  19.238  0.00  0.00    +0.000 C 
ATOM      9  C   UNL     1      -2.438  11.872  18.560  0.00  0.00    +0.000 C 
ATOM     10  C   UNL     1      -2.883  11.030  17.453  0.00  0.00    +0.000 C 
ATOM     11  O   UNL     1      -2.133  10.576  16.605  0.00  0.00    +0.000 OA
ATOM     12  C   UNL     1      -4.366  10.805  17.500  0.00  0.00    +0.000 C 
ATOM     13  C   UNL     1      -4.803  11.657  18.691  0.00  0.00    +0.000 C 
ATOM     14  C   UNL     1      -1.057  12.249  18.897  0.00  0.00    +0.000 C 
ATOM     15  H   UNL     1      -0.496  15.053  21.654  0.00  0.00    +0.000 HD
ENDROOT
BRANCH   7  16
ATOM     16  C   UNL     1      -4.575  13.518  21.023  0.00  0.00    +0.000 A 
ATOM     17  C   UNL     1      -5.238  14.684  20.615  0.00  0.00    +0.000 A 
ATOM     18  C   UNL     1      -6.316  15.173  21.348  0.00  0.00    +0.000 A 
ATOM     19  C   UNL     1      -6.733  14.508  22.500  0.00  0.00    +0.000 A 
ATOM     20  C   UNL     1      -6.091  13.333  22.917  0.00  0.00    +0.000 A 
ATOM     21  C   UNL     1      -5.012  12.839  22.166  0.00  0.00    +0.000 A 
BRANCH  20  22
ATOM     22  C   UNL     1      -6.506  12.649  24.191  0.00  0.00    +0.000 C 
ATOM     23  F   UNL     1      -7.373  11.618  23.984  0.00  0.00    +0.000 F 
ATOM     24  F   UNL     1      -5.453  12.114  24.871  0.00  0.00    +0.000 F 
ENDBRANCH  20  22
ENDBRANCH   7  16
BRANCH  14  25
ATOM     25  C   UNL     1      -0.236  10.989  19.174  0.00  0.00    +0.000 A 
ATOM     26  C   UNL     1       0.700  10.551  18.221  0.00  0.00    +0.000 A 
ATOM     27  C   UNL     1       1.456   9.407  18.450  0.00  0.00    +0.000 A 
ATOM     28  C   UNL     1       1.276   8.681  19.630  0.00  0.00    +0.000 A 
ATOM     29  C   UNL     1       0.346   9.102  20.585  0.00  0.00    +0.000 A 
ATOM     30  C   UNL     1      -0.403  10.257  20.361  0.00  0.00    +0.000 A 
BRANCH  28  31
ATOM     31  C   UNL     1       2.051   7.503  19.869  0.00  0.00    +0.000 C 
ATOM     32  N   UNL     1       2.682   6.546  20.065  0.00  0.00    +0.000 NA
ENDBRANCH  28  31
ENDBRANCH  14  25
BRANCH   1  33
ATOM     33  C   UNL     1       1.598  15.030  21.915  0.00  0.00    +0.000 C 
BRANCH  33  35
ATOM     34  C   UNL     1       0.075  16.371  23.385  0.00  0.00    +0.000 C 
ATOM     35  C   UNL     1       1.427  16.366  22.669  0.00  0.00    +0.000 C 
ATOM     36  C   UNL     1       1.533  17.576  21.735  0.00  0.00    +0.000 C 
BRANCH  35  37
ATOM     37  O   UNL     1       2.454  16.462  23.665  0.00  0.00    +0.000 OA
ATOM     38  H   UNL     1       2.054  16.246  24.526  0.00  0.00    +0.000 HD
ENDBRANCH  35  37
ENDBRANCH  33  35
ENDBRANCH   1  33
TORSDOF 7
ENDMDL
MODEL 8
REMARK VINA RESULT:      -6.4      1.683      2.181
REMARK  Name = 
REMARK  9 active torsions:
REMARK  status: ('A' for Active; 'I' for Inactive)
REMARK    1  A    between atoms: C_1  and  C_2
REMARK    2  A    between atoms: C_2  and  C_3
REMARK    3  A    between atoms: C_2  and  O_4
REMARK    4  A    between atoms: C_2  and  C_5
REMARK    5  A    between atoms: C_5  and  N_6
REMARK    6  A    between atoms: N_12  and  C_13
REMARK    7  A    between atoms: C_17  and  C_18
REMARK    8  A    between atoms: C_28  and  C_29
REMARK    9  A    between atoms: C_32  and  C_33
REMARK                            x       y       z     vdW  Elec       q    Type
REMARK                         _______ _______ _______ _____ _____    ______ ____
ROOT
ATOM      1  N   UNL     1       1.910  13.872  20.679  0.00  0.00    +0.000 N 
ATOM      2  C   UNL     1       1.569  12.983  19.703  0.00  0.00    +0.000 C 
ATOM      3  O   UNL     1       2.433  12.515  18.963  0.00  0.00    +0.000 OA
ATOM      4  N   UNL     1       0.214  12.618  19.640  0.00  0.00    +0.000 N 
ATOM      5  C   UNL     1      -0.764  13.187  20.473  0.00  0.00    +0.000 C 
ATOM      6  O   UNL     1      -0.476  14.010  21.350  0.00  0.00    +0.000 OA
ATOM      7  N   UNL     1      -2.108  12.779  20.287  0.00  0.00    +0.000 N 
ATOM      8  C   UNL     1      -2.467  11.882  19.309  0.00  0.00    +0.000 C 
ATOM      9  C   UNL     1      -1.541  11.382  18.502  0.00  0.00    +0.000 C 
ATOM     10  C   UNL     1      -2.239  10.533  17.540  0.00  0.00    +0.000 C 
ATOM     11  O   UNL     1      -1.682   9.950  16.625  0.00  0.00    +0.000 OA
ATOM     12  C   UNL     1      -3.711  10.480  17.826  0.00  0.00    +0.000 C 
ATOM     13  C   UNL     1      -3.865  11.443  19.003  0.00  0.00    +0.000 C 
ATOM     14  C   UNL     1      -0.093  11.619  18.599  0.00  0.00    +0.000 C 
ATOM     15  H   UNL     1       1.181  14.495  21.025  0.00  0.00    +0.000 HD
ENDROOT
BRANCH   7  16
ATOM     16  C   UNL     1      -3.083  13.397  21.130  0.00  0.00    +0.000 A 
ATOM     17  C   UNL     1      -3.495  12.757  22.306  0.00  0.00    +0.000 A 
ATOM     18  C   UNL     1      -4.500  13.314  23.094  0.00  0.00    +0.000 A 
ATOM     19  C   UNL     1      -5.107  14.508  22.707  0.00  0.00    +0.000 A 
ATOM     20  C   UNL     1      -4.699  15.169  21.539  0.00  0.00    +0.000 A 
ATOM     21  C   UNL     1      -3.677  14.607  20.756  0.00  0.00    +0.000 A 
BRANCH  20  22
ATOM     22  C   UNL     1      -5.395  16.427  21.094  0.00  0.00    +0.000 C 
ATOM     23  F   UNL     1      -4.827  17.557  21.600  0.00  0.00    +0.000 F 
ATOM     24  F   UNL     1      -5.385  16.584  19.740  0.00  0.00    +0.000 F 
ENDBRANCH  20  22
ENDBRANCH   7  16
BRANCH  14  25
ATOM     25  C   UNL     1       0.628  10.293  18.842  0.00  0.00    +0.000 A 
ATOM     26  C   UNL     1       0.530   9.674  20.100  0.00  0.00    +0.000 A 
ATOM     27  C   UNL     1       1.179   8.468  20.345  0.00  0.00    +0.000 A 
ATOM     28  C   UNL     1       1.942   7.873  19.337  0.00  0.00    +0.000 A 
ATOM     29  C   UNL     1       2.051   8.479  18.082  0.00  0.00    +0.000 A 
ATOM     30  C   UNL     1       1.390   9.681  17.833  0.00  0.00    +0.000 A 
BRANCH  28  31
ATOM     31  C   UNL     1       2.611   6.634  19.585  0.00  0.00    +0.000 C 
ATOM     32  N   UNL     1       3.154   5.626  19.788  0.00  0.00    +0.000 NA
ENDBRANCH  28  31
ENDBRANCH  14  25
BRANCH   1  33
ATOM     33  C   UNL     1       3.276  14.251  20.969  0.00  0.00    +0.000 C 
BRANCH  33  35
ATOM     34  C   UNL     1       4.934  16.125  20.841  0.00  0.00    +0.000 C 
ATOM     35  C   UNL     1       3.717  15.492  20.164  0.00  0.00    +0.000 C 
ATOM     36  C   UNL     1       2.593  16.525  20.030  0.00  0.00    +0.000 C 
BRANCH  35  37
ATOM     37  O   UNL     1       4.113  15.068  18.852  0.00  0.00    +0.000 OA
ATOM     38  H   UNL     1       3.798  15.736  18.217  0.00  0.00    +0.000 HD
ENDBRANCH  35  37
ENDBRANCH  33  35
ENDBRANCH   1  33
TORSDOF 7
ENDMDL
MODEL 9
REMARK VINA RESULT:      -6.4      3.316      6.509
REMARK  Name = 
REMARK  9 active torsions:
REMARK  status: ('A' for Active; 'I' for Inactive)
REMARK    1  A    between atoms: C_1  and  C_2
REMARK    2  A    between atoms: C_2  and  C_3
REMARK    3  A    between atoms: C_2  and  O_4
REMARK    4  A    between atoms: C_2  and  C_5
REMARK    5  A    between atoms: C_5  and  N_6
REMARK    6  A    between atoms: N_12  and  C_13
REMARK    7  A    between atoms: C_17  and  C_18
REMARK    8  A    between atoms: C_28  and  C_29
REMARK    9  A    between atoms: C_32  and  C_33
REMARK                            x       y       z     vdW  Elec       q    Type
REMARK                         _______ _______ _______ _____ _____    ______ ____
ROOT
ATOM      1  N   UNL     1      -0.236  11.649  21.546  0.00  0.00    +0.000 N 
ATOM      2  C   UNL     1       0.052  12.958  21.803  0.00  0.00    +0.000 C 
ATOM      3  O   UNL     1       1.208  13.367  21.704  0.00  0.00    +0.000 OA
ATOM      4  N   UNL     1      -1.037  13.782  22.129  0.00  0.00    +0.000 N 
ATOM      5  C   UNL     1      -2.345  13.291  22.269  0.00  0.00    +0.000 C 
ATOM      6  O   UNL     1      -2.623  12.104  22.060  0.00  0.00    +0.000 OA
ATOM      7  N   UNL     1      -3.358  14.206  22.649  0.00  0.00    +0.000 N 
ATOM      8  C   UNL     1      -3.082  15.528  22.909  0.00  0.00    +0.000 C 
ATOM      9  C   UNL     1      -1.837  15.972  22.813  0.00  0.00    +0.000 C 
ATOM     10  C   UNL     1      -1.862  17.375  23.218  0.00  0.00    +0.000 C 
ATOM     11  O   UNL     1      -0.866  18.077  23.285  0.00  0.00    +0.000 OA
ATOM     12  C   UNL     1      -3.256  17.826  23.539  0.00  0.00    +0.000 C 
ATOM     13  C   UNL     1      -4.076  16.547  23.374  0.00  0.00    +0.000 C 
ATOM     14  C   UNL     1      -0.677  15.196  22.350  0.00  0.00    +0.000 C 
ATOM     15  H   UNL     1      -1.082  11.263  21.964  0.00  0.00    +0.000 HD
ENDROOT
BRANCH   7  16
ATOM     16  C   UNL     1      -4.672  13.670  22.811  0.00  0.00    +0.000 A 
ATOM     17  C   UNL     1      -5.054  13.113  24.039  0.00  0.00    +0.000 A 
ATOM     18  C   UNL     1      -6.305  12.518  24.183  0.00  0.00    +0.000 A 
ATOM     19  C   UNL     1      -7.180  12.466  23.098  0.00  0.00    +0.000 A 
ATOM     20  C   UNL     1      -6.820  13.029  21.865  0.00  0.00    +0.000 A 
ATOM     21  C   UNL     1      -5.561  13.637  21.731  0.00  0.00    +0.000 A 
BRANCH  20  22
ATOM     22  C   UNL     1      -7.743  12.921  20.681  0.00  0.00    +0.000 C 
ATOM     23  F   UNL     1      -7.596  13.946  19.796  0.00  0.00    +0.000 F 
ATOM     24  F   UNL     1      -7.545  11.781  19.961  0.00  0.00    +0.000 F 
ENDBRANCH  20  22
ENDBRANCH   7  16
BRANCH  14  25
ATOM     25  C   UNL     1      -0.094  15.846  21.095  0.00  0.00    +0.000 A 
ATOM     26  C   UNL     1      -0.820  15.799  19.892  0.00  0.00    +0.000 A 
ATOM     27  C   UNL     1      -0.310  16.381  18.737  0.00  0.00    +0.000 A 
ATOM     28  C   UNL     1       0.939  17.008  18.769  0.00  0.00    +0.000 A 
ATOM     29  C   UNL     1       1.674  17.060  19.958  0.00  0.00    +0.000 A 
ATOM     30  C   UNL     1       1.156  16.486  21.118  0.00  0.00    +0.000 A 
BRANCH  28  31
ATOM     31  C   UNL     1       1.468  17.607  17.584  0.00  0.00    +0.000 C 
ATOM     32  N   UNL     1       1.899  18.093  16.619  0.00  0.00    +0.000 NA
ENDBRANCH  28  31
ENDBRANCH  14  25
BRANCH   1  33
ATOM     33  C   UNL     1       0.743  10.698  21.068  0.00  0.00    +0.000 C 
BRANCH  33  35
ATOM     34  C   UNL     1       0.994   8.205  21.092  0.00  0.00    +0.000 C 
ATOM     35  C   UNL     1       0.825   9.447  21.969  0.00  0.00    +0.000 C 
ATOM     36  C   UNL     1      -0.410   9.296  22.863  0.00  0.00    +0.000 C 
BRANCH  35  37
ATOM     37  O   UNL     1       1.986   9.561  22.802  0.00  0.00    +0.000 OA
ATOM     38  H   UNL     1       1.701   9.449  23.726  0.00  0.00    +0.000 HD
ENDBRANCH  35  37
ENDBRANCH  33  35
ENDBRANCH   1  33
TORSDOF 7
ENDMDL
