MODEL 1
REMARK VINA RESULT:      -6.9      0.000      0.000
REMARK  Name = 
REMARK  7 active torsions:
REMARK  status: ('A' for Active; 'I' for Inactive)
REMARK    1  A    between atoms: C_1  and  C_2
REMARK    2  A    between atoms: N_4  and  C_5
REMARK    3  A    between atoms: C_5  and  C_6
REMARK    4  A    between atoms: C_6  and  S_7
REMARK    5  A    between atoms: S_7  and  C_8
REMARK    6  A    between atoms: C_11  and  S_12
REMARK    7  A    between atoms: S_12  and  N_15
REMARK                            x       y       z     vdW  Elec       q    Type
REMARK                         _______ _______ _______ _____ _____    ______ ____
ROOT
ATOM      1  C   UNL     1       1.314   9.464  18.998  0.00  0.00    +0.000 A 
ATOM      2  C   UNL     1       1.924   8.801  17.938  0.00  0.00    +0.000 A 
ATOM      3  C   UNL     1       2.448   7.526  18.152  0.00  0.00    +0.000 A 
ATOM      4  C   UNL     1       2.322   6.948  19.412  0.00  0.00    +0.000 A 
ATOM      5  C   UNL     1       1.709   7.674  20.414  0.00  0.00    +0.000 A 
ATOM      6  N   UNL     1       1.184   8.910  20.226  0.00  0.00    +0.000 NA
ENDROOT
BRANCH   4   7
ATOM      7  S   UNL     1       3.070   5.395  19.796  0.00  0.00    +0.000 S 
ATOM      8  O   UNL     1       4.493   5.550  19.593  0.00  0.00    +0.000 OA
ATOM      9  O   UNL     1       2.538   4.972  21.074  0.00  0.00    +0.000 OA
BRANCH   7  10
ATOM     10  N   UNL     1       2.486   4.350  18.618  0.00  0.00    +0.000 NA
ATOM     11  C   UNL     1       1.182   3.693  18.788  0.00  0.00    +0.000 C 
ATOM     12  C   UNL     1       1.464   2.218  18.567  0.00  0.00    +0.000 C 
ATOM     13  C   UNL     1       2.619   2.203  17.584  0.00  0.00    +0.000 C 
ATOM     14  C   UNL     1       3.415   3.465  17.893  0.00  0.00    +0.000 C 
ENDBRANCH   7  10
ENDBRANCH   4   7
BRANCH   1  15
ATOM     15  S   UNL     1       0.721  11.128  18.770  0.00  0.00    +0.000 S 
BRANCH  15  16
ATOM     16  C   UNL     1      -1.085  10.862  18.922  0.00  0.00    +0.000 C 
BRANCH  16  17
ATOM     17  C   UNL     1      -1.881  11.665  17.891  0.00  0.00    +0.000 C 
BRANCH  17  21
ATOM     18  C   UNL     1      -3.028  10.122  14.633  0.00  0.00    +0.000 C 
ATOM     19  C   UNL     1      -3.147  10.903  15.911  0.00  0.00    +0.000 C 
ATOM     20  O   UNL     1      -4.201  11.402  16.288  0.00  0.00    +0.000 OA
ATOM     21  N   UNL     1      -1.964  10.999  16.604  0.00  0.00    +0.000 N 
ATOM     22  H   UNL     1      -1.120  10.595  16.214  0.00  0.00    +0.000 HD
ENDBRANCH  17  21
ENDBRANCH  16  17
ENDBRANCH  15  16
ENDBRANCH   1  15
TORSDOF 6
ENDMDL
MODEL 2
REMARK VINA RESULT:      -6.8      5.796      7.573
REMARK  Name = 
REMARK  7 active torsions:
REMARK  status: ('A' for Active; 'I' for Inactive)
REMARK    1  A    between atoms: C_1  and  C_2
REMARK    2  A    between atoms: N_4  and  C_5
REMARK    3  A    between atoms: C_5  and  C_6
REMARK    4  A    between atoms: C_6  and  S_7
REMARK    5  A    between atoms: S_7  and  C_8
REMARK    6  A    between atoms: C_11  and  S_12
REMARK    7  A    between atoms: S_12  and  N_15
REMARK                            x       y       z     vdW  Elec       q    Type
REMARK                         _______ _______ _______ _____ _____    ______ ____
ROOT
ATOM      1  C   UNL     1       6.375   5.602  18.334  0.00  0.00    +0.000 A 
ATOM      2  C   UNL     1       5.521   5.813  17.256  0.00  0.00    +0.000 A 
ATOM      3  C   UNL     1       4.399   4.996  17.114  0.00  0.00    +0.000 A 
ATOM      4  C   UNL     1       4.158   4.011  18.068  0.00  0.00    +0.000 A 
ATOM      5  C   UNL     1       5.057   3.860  19.104  0.00  0.00    +0.000 A 
ATOM      6  N   UNL     1       6.148   4.650  19.268  0.00  0.00    +0.000 NA
ENDROOT
BRANCH   4   7
ATOM      7  S   UNL     1       2.834   2.856  17.890  0.00  0.00    +0.000 S 
ATOM      8  O   UNL     1       2.089   3.246  16.713  0.00  0.00    +0.000 OA
ATOM      9  O   UNL     1       3.406   1.532  18.008  0.00  0.00    +0.000 OA
BRANCH   7  10
ATOM     10  N   UNL     1       1.863   3.125  19.233  0.00  0.00    +0.000 NA
ATOM     11  C   UNL     1       1.532   4.496  19.648  0.00  0.00    +0.000 C 
ATOM     12  C   UNL     1       1.898   4.549  21.121  0.00  0.00    +0.000 C 
ATOM     13  C   UNL     1       1.671   3.132  21.612  0.00  0.00    +0.000 C 
ATOM     14  C   UNL     1       1.975   2.246  20.410  0.00  0.00    +0.000 C 
ENDBRANCH   7  10
ENDBRANCH   4   7
BRANCH   1  15
ATOM     15  S   UNL     1       7.860   6.573  18.481  0.00  0.00    +0.000 S 
BRANCH  15  16
ATOM     16  C   UNL     1       7.376   8.067  17.537  0.00  0.00    +0.000 C 
BRANCH  16  17
ATOM     17  C   UNL     1       8.449   9.157  17.582  0.00  0.00    +0.000 C 
BRANCH  17  21
ATOM     18  C   UNL     1       9.595  11.086  20.627  0.00  0.00    +0.000 C 
ATOM     19  C   UNL     1       9.372  10.812  19.167  0.00  0.00    +0.000 C 
ATOM     20  O   UNL     1       9.747  11.574  18.283  0.00  0.00    +0.000 OA
ATOM     21  N   UNL     1       8.711   9.631  18.928  0.00  0.00    +0.000 N 
ATOM     22  H   UNL     1       8.395   9.067  19.708  0.00  0.00    +0.000 HD
ENDBRANCH  17  21
ENDBRANCH  16  17
ENDBRANCH  15  16
ENDBRANCH   1  15
TORSDOF 6
ENDMDL
MODEL 3
REMARK VINA RESULT:      -6.8      1.956      2.528
REMARK  Name = 
REMARK  7 active torsions:
REMARK  status: ('A' for Active; 'I' for Inactive)
REMARK    1  A    between atoms: C_1  and  C_2
REMARK    2  A    between atoms: N_4  and  C_5
REMARK    3  A    between atoms: C_5  and  C_6
REMARK    4  A    between atoms: C_6  and  S_7
REMARK    5  A    between atoms: S_7  and  C_8
REMARK    6  A    between atoms: C_11  and  S_12
REMARK    7  A    between atoms: S_12  and  N_15
REMARK                            x       y       z     vdW  Elec       q    Type
REMARK                         _______ _______ _______ _____ _____    ______ ____
ROOT
ATOM      1  C   UNL     1       2.633   7.955  18.279  0.00  0.00    +0.000 A 
ATOM      2  C   UNL     1       2.345   7.268  19.455  0.00  0.00    +0.000 A 
ATOM      3  C   UNL     1       2.856   5.981  19.626  0.00  0.00    +0.000 A 
ATOM      4  C   UNL     1       3.657   5.435  18.627  0.00  0.00    +0.000 A 
ATOM      5  C   UNL     1       3.890   6.178  17.487  0.00  0.00    +0.000 A 
ATOM      6  N   UNL     1       3.412   7.435  17.304  0.00  0.00    +0.000 NA
ENDROOT
BRANCH   4   7
ATOM      7  S   UNL     1       4.234   3.768  18.712  0.00  0.00    +0.000 S 
ATOM      8  O   UNL     1       4.373   3.299  17.352  0.00  0.00    +0.000 OA
ATOM      9  O   UNL     1       5.356   3.754  19.627  0.00  0.00    +0.000 OA
BRANCH   7  10
ATOM     10  N   UNL     1       2.969   2.926  19.427  0.00  0.00    +0.000 NA
ATOM     11  C   UNL     1       1.621   2.972  18.841  0.00  0.00    +0.000 C 
ATOM     12  C   UNL     1       0.715   3.366  19.994  0.00  0.00    +0.000 C 
ATOM     13  C   UNL     1       1.398   2.787  21.218  0.00  0.00    +0.000 C 
ATOM     14  C   UNL     1       2.886   2.827  20.895  0.00  0.00    +0.000 C 
ENDBRANCH   7  10
ENDBRANCH   4   7
BRANCH   1  15
ATOM     15  S   UNL     1       1.915   9.561  18.002  0.00  0.00    +0.000 S 
BRANCH  15  16
ATOM     16  C   UNL     1       0.365   9.404  18.966  0.00  0.00    +0.000 C 
BRANCH  16  17
ATOM     17  C   UNL     1      -0.598  10.566  18.713  0.00  0.00    +0.000 C 
BRANCH  17  21
ATOM     18  C   UNL     1      -2.687  10.043  15.603  0.00  0.00    +0.000 C 
ATOM     19  C   UNL     1      -2.346   9.988  17.065  0.00  0.00    +0.000 C 
ATOM     20  O   UNL     1      -3.082   9.476  17.900  0.00  0.00    +0.000 OA
ATOM     21  N   UNL     1      -1.135  10.566  17.365  0.00  0.00    +0.000 N 
ATOM     22  H   UNL     1      -0.595  11.006  16.630  0.00  0.00    +0.000 HD
ENDBRANCH  17  21
ENDBRANCH  16  17
ENDBRANCH  15  16
ENDBRANCH   1  15
TORSDOF 6
ENDMDL
MODEL 4
REMARK VINA RESULT:      -6.7      4.433      6.839
REMARK  Name = 
REMARK  7 active torsions:
REMARK  status: ('A' for Active; 'I' for Inactive)
REMARK    1  A    between atoms: C_1  and  C_2
REMARK    2  A    between atoms: N_4  and  C_5
REMARK    3  A    between atoms: C_5  and  C_6
REMARK    4  A    between atoms: C_6  and  S_7
REMARK    5  A    between atoms: S_7  and  C_8
REMARK    6  A    between atoms: C_11  and  S_12
REMARK    7  A    between atoms: S_12  and  N_15
REMARK                            x       y       z     vdW  Elec       q    Type
REMARK                         _______ _______ _______ _____ _____    ______ ____
ROOT
ATOM      1  C   UNL     1       4.313   3.436  19.006  0.00  0.00    +0.000 A 
ATOM      2  C   UNL     1       3.835   3.241  17.714  0.00  0.00    +0.000 A 
ATOM      3  C   UNL     1       4.446   3.920  16.659  0.00  0.00    +0.000 A 
ATOM      4  C   UNL     1       5.530   4.750  16.930  0.00  0.00    +0.000 A 
ATOM      5  C   UNL     1       5.940   4.895  18.240  0.00  0.00    +0.000 A 
ATOM      6  N   UNL     1       5.367   4.238  19.279  0.00  0.00    +0.000 NA
ENDROOT
BRANCH   4   7
ATOM      7  S   UNL     1       6.274   5.739  15.671  0.00  0.00    +0.000 S 
ATOM      8  O   UNL     1       5.230   6.570  15.114  0.00  0.00    +0.000 OA
ATOM      9  O   UNL     1       7.471   6.323  16.240  0.00  0.00    +0.000 OA
BRANCH   7  10
ATOM     10  N   UNL     1       6.743   4.634  14.497  0.00  0.00    +0.000 NA
ATOM     11  C   UNL     1       7.843   4.952  13.574  0.00  0.00    +0.000 C 
ATOM     12  C   UNL     1       7.269   4.696  12.191  0.00  0.00    +0.000 C 
ATOM     13  C   UNL     1       6.258   3.586  12.408  0.00  0.00    +0.000 C 
ATOM     14  C   UNL     1       5.731   3.804  13.820  0.00  0.00    +0.000 C 
ENDBRANCH   7  10
ENDBRANCH   4   7
BRANCH   1  15
ATOM     15  S   UNL     1       3.488   2.651  20.375  0.00  0.00    +0.000 S 
BRANCH  15  16
ATOM     16  C   UNL     1       1.921   3.599  20.408  0.00  0.00    +0.000 C 
BRANCH  16  17
ATOM     17  C   UNL     1       2.145   5.086  20.688  0.00  0.00    +0.000 C 
BRANCH  17  21
ATOM     18  C   UNL     1       2.640   7.778  18.076  0.00  0.00    +0.000 C 
ATOM     19  C   UNL     1       2.306   7.202  19.423  0.00  0.00    +0.000 C 
ATOM     20  O   UNL     1       1.924   7.891  20.362  0.00  0.00    +0.000 OA
ATOM     21  N   UNL     1       2.470   5.839  19.490  0.00  0.00    +0.000 N 
ATOM     22  H   UNL     1       2.826   5.337  18.686  0.00  0.00    +0.000 HD
ENDBRANCH  17  21
ENDBRANCH  16  17
ENDBRANCH  15  16
ENDBRANCH   1  15
TORSDOF 6
ENDMDL
MODEL 5
REMARK VINA RESULT:      -6.7      5.387      7.682
REMARK  Name = 
REMARK  7 active torsions:
REMARK  status: ('A' for Active; 'I' for Inactive)
REMARK    1  A    between atoms: C_1  and  C_2
REMARK    2  A    between atoms: N_4  and  C_5
REMARK    3  A    between atoms: C_5  and  C_6
REMARK    4  A    between atoms: C_6  and  S_7
REMARK    5  A    between atoms: S_7  and  C_8
REMARK    6  A    between atoms: C_11  and  S_12
REMARK    7  A    between atoms: S_12  and  N_15
REMARK                            x       y       z     vdW  Elec       q    Type
REMARK                         _______ _______ _______ _____ _____    ______ ____
ROOT
ATOM      1  C   UNL     1       2.440   4.823  18.693  0.00  0.00    +0.000 A 
ATOM      2  C   UNL     1       3.172   6.003  18.773  0.00  0.00    +0.000 A 
ATOM      3  C   UNL     1       4.206   6.218  17.860  0.00  0.00    +0.000 A 
ATOM      4  C   UNL     1       4.456   5.256  16.886  0.00  0.00    +0.000 A 
ATOM      5  C   UNL     1       3.689   4.108  16.878  0.00  0.00    +0.000 A 
ATOM      6  N   UNL     1       2.673   3.883  17.748  0.00  0.00    +0.000 NA
ENDROOT
BRANCH   4   7
ATOM      7  S   UNL     1       5.824   5.396  15.779  0.00  0.00    +0.000 S 
ATOM      8  O   UNL     1       6.017   4.095  15.179  0.00  0.00    +0.000 OA
ATOM      9  O   UNL     1       5.592   6.569  14.963  0.00  0.00    +0.000 OA
BRANCH   7  10
ATOM     10  N   UNL     1       7.137   5.710  16.778  0.00  0.00    +0.000 NA
ATOM     11  C   UNL     1       7.490   4.775  17.856  0.00  0.00    +0.000 C 
ATOM     12  C   UNL     1       7.585   5.641  19.099  0.00  0.00    +0.000 C 
ATOM     13  C   UNL     1       8.039   6.991  18.578  0.00  0.00    +0.000 C 
ATOM     14  C   UNL     1       7.443   7.094  17.180  0.00  0.00    +0.000 C 
ENDBRANCH   7  10
ENDBRANCH   4   7
BRANCH   1  15
ATOM     15  S   UNL     1       1.179   4.488  19.905  0.00  0.00    +0.000 S 
BRANCH  15  16
ATOM     16  C   UNL     1       2.204   4.301  21.412  0.00  0.00    +0.000 C 
BRANCH  16  17
ATOM     17  C   UNL     1       2.690   2.863  21.611  0.00  0.00    +0.000 C 
BRANCH  17  21
ATOM     18  C   UNL     1       3.995   1.062  18.550  0.00  0.00    +0.000 C 
ATOM     19  C   UNL     1       4.061   1.738  19.891  0.00  0.00    +0.000 C 
ATOM     20  O   UNL     1       5.112   1.907  20.498  0.00  0.00    +0.000 OA
ATOM     21  N   UNL     1       2.833   2.142  20.360  0.00  0.00    +0.000 N 
ATOM     22  H   UNL     1       1.999   1.934  19.823  0.00  0.00    +0.000 HD
ENDBRANCH  17  21
ENDBRANCH  16  17
ENDBRANCH  15  16
ENDBRANCH   1  15
TORSDOF 6
ENDMDL
MODEL 6
REMARK VINA RESULT:      -6.6      5.565      7.040
REMARK  Name = 
REMARK  7 active torsions:
REMARK  status: ('A' for Active; 'I' for Inactive)
REMARK    1  A    between atoms: C_1  and  C_2
REMARK    2  A    between atoms: N_4  and  C_5
REMARK    3  A    between atoms: C_5  and  C_6
REMARK    4  A    between atoms: C_6  and  S_7
REMARK    5  A    between atoms: S_7  and  C_8
REMARK    6  A    between atoms: C_11  and  S_12
REMARK    7  A    between atoms: S_12  and  N_15
REMARK                            x       y       z     vdW  Elec       q    Type
REMARK                         _______ _______ _______ _____ _____    ______ ____
ROOT
ATOM      1  C   UNL     1       3.612   5.099  19.664  0.00  0.00    +0.000 A 
ATOM      2  C   UNL     1       3.504   6.166  18.778  0.00  0.00    +0.000 A 
ATOM      3  C   UNL     1       4.521   6.371  17.843  0.00  0.00    +0.000 A 
ATOM      4  C   UNL     1       5.596   5.488  17.813  0.00  0.00    +0.000 A 
ATOM      5  C   UNL     1       5.632   4.458  18.732  0.00  0.00    +0.000 A 
ATOM      6  N   UNL     1       4.651   4.234  19.641  0.00  0.00    +0.000 NA
ENDROOT
BRANCH   4   7
ATOM      7  S   UNL     1       6.980   5.754  16.749  0.00  0.00    +0.000 S 
ATOM      8  O   UNL     1       7.302   7.162  16.819  0.00  0.00    +0.000 OA
ATOM      9  O   UNL     1       7.966   4.744  17.074  0.00  0.00    +0.000 OA
BRANCH   7  10
ATOM     10  N   UNL     1       6.391   5.429  15.211  0.00  0.00    +0.000 NA
ATOM     11  C   UNL     1       5.145   4.668  15.037  0.00  0.00    +0.000 C 
ATOM     12  C   UNL     1       5.507   3.556  14.069  0.00  0.00    +0.000 C 
ATOM     13  C   UNL     1       6.596   4.158  13.201  0.00  0.00    +0.000 C 
ATOM     14  C   UNL     1       7.326   5.138  14.110  0.00  0.00    +0.000 C 
ENDBRANCH   7  10
ENDBRANCH   4   7
BRANCH   1  15
ATOM     15  S   UNL     1       2.372   4.875  20.923  0.00  0.00    +0.000 S 
BRANCH  15  16
ATOM     16  C   UNL     1       0.923   4.436  19.890  0.00  0.00    +0.000 C 
BRANCH  16  17
ATOM     17  C   UNL     1       0.753   2.923  19.739  0.00  0.00    +0.000 C 
BRANCH  17  21
ATOM     18  C   UNL     1       3.822   1.149  18.418  0.00  0.00    +0.000 C 
ATOM     19  C   UNL     1       2.536   1.923  18.351  0.00  0.00    +0.000 C 
ATOM     20  O   UNL     1       2.009   2.246  17.293  0.00  0.00    +0.000 OA
ATOM     21  N   UNL     1       2.018   2.228  19.588  0.00  0.00    +0.000 N 
ATOM     22  H   UNL     1       2.527   1.964  20.423  0.00  0.00    +0.000 HD
ENDBRANCH  17  21
ENDBRANCH  16  17
ENDBRANCH  15  16
ENDBRANCH   1  15
TORSDOF 6
ENDMDL
MODEL 7
REMARK VINA RESULT:      -6.6      1.140      1.612
REMARK  Name = 
REMARK  7 active torsions:
REMARK  status: ('A' for Active; 'I' for Inactive)
REMARK    1  A    between atoms: C_1  and  C_2
REMARK    2  A    between atoms: N_4  and  C_5
REMARK    3  A    between atoms: C_5  and  C_6
REMARK    4  A    between atoms: C_6  and  S_7
REMARK    5  A    between atoms: S_7  and  C_8
REMARK    6  A    between atoms: C_11  and  S_12
REMARK    7  A    between atoms: S_12  and  N_15
REMARK                            x       y       z     vdW  Elec       q    Type
REMARK                         _______ _______ _______ _____ _____    ______ ____
ROOT
ATOM      1  C   UNL     1       1.356   9.377  19.124  0.00  0.00    +0.000 A 
ATOM      2  C   UNL     1       1.347   8.496  20.201  0.00  0.00    +0.000 A 
ATOM      3  C   UNL     1       2.053   7.297  20.096  0.00  0.00    +0.000 A 
ATOM      4  C   UNL     1       2.762   7.032  18.928  0.00  0.00    +0.000 A 
ATOM      5  C   UNL     1       2.714   7.954  17.902  0.00  0.00    +0.000 A 
ATOM      6  N   UNL     1       2.044   9.131  17.986  0.00  0.00    +0.000 NA
ENDROOT
BRANCH   4   7
ATOM      7  S   UNL     1       3.572   5.484  18.670  0.00  0.00    +0.000 S 
ATOM      8  O   UNL     1       3.733   5.325  17.242  0.00  0.00    +0.000 OA
ATOM      9  O   UNL     1       4.714   5.449  19.560  0.00  0.00    +0.000 OA
BRANCH   7  10
ATOM     10  N   UNL     1       2.464   4.340  19.201  0.00  0.00    +0.000 NA
ATOM     11  C   UNL     1       2.910   3.186  19.994  0.00  0.00    +0.000 C 
ATOM     12  C   UNL     1       2.332   1.980  19.274  0.00  0.00    +0.000 C 
ATOM     13  C   UNL     1       1.049   2.498  18.652  0.00  0.00    +0.000 C 
ATOM     14  C   UNL     1       1.325   3.964  18.344  0.00  0.00    +0.000 C 
ENDBRANCH   7  10
ENDBRANCH   4   7
BRANCH   1  15
ATOM     15  S   UNL     1       0.387  10.870  19.203  0.00  0.00    +0.000 S 
BRANCH  15  16
ATOM     16  C   UNL     1      -1.224  10.255  18.585  0.00  0.00    +0.000 C 
BRANCH  16  17
ATOM     17  C   UNL     1      -1.920  11.264  17.670  0.00  0.00    +0.000 C 
BRANCH  17  21
ATOM     18  C   UNL     1      -3.263  10.171  14.306  0.00  0.00    +0.000 C 
ATOM     19  C   UNL     1      -3.302  10.780  15.679  0.00  0.00    +0.000 C 
ATOM     20  O   UNL     1      -4.326  11.234  16.175  0.00  0.00    +0.000 OA
ATOM     21  N   UNL     1      -2.082  10.773  16.313  0.00  0.00    +0.000 N 
ATOM     22  H   UNL     1      -1.267  10.416  15.829  0.00  0.00    +0.000 HD
ENDBRANCH  17  21
ENDBRANCH  16  17
ENDBRANCH  15  16
ENDBRANCH   1  15
TORSDOF 6
ENDMDL
MODEL 8
REMARK VINA RESULT:      -6.5      1.668      2.149
REMARK  Name = 
REMARK  7 active torsions:
REMARK  status: ('A' for Active; 'I' for Inactive)
REMARK    1  A    between atoms: C_1  and  C_2
REMARK    2  A    between atoms: N_4  and  C_5
REMARK    3  A    between atoms: C_5  and  C_6
REMARK    4  A    between atoms: C_6  and  S_7
REMARK    5  A    between atoms: S_7  and  C_8
REMARK    6  A    between atoms: C_11  and  S_12
REMARK    7  A    between atoms: S_12  and  N_15
REMARK                            x       y       z     vdW  Elec       q    Type
REMARK                         _______ _______ _______ _____ _____    ______ ____
ROOT
ATOM      1  C   UNL     1       2.060   7.973  19.433  0.00  0.00    +0.000 A 
ATOM      2  C   UNL     1       2.176   6.897  20.308  0.00  0.00    +0.000 A 
ATOM      3  C   UNL     1       2.970   5.811  19.939  0.00  0.00    +0.000 A 
ATOM      4  C   UNL     1       3.639   5.848  18.719  0.00  0.00    +0.000 A 
ATOM      5  C   UNL     1       3.467   6.949  17.904  0.00  0.00    +0.000 A 
ATOM      6  N   UNL     1       2.709   8.021  18.247  0.00  0.00    +0.000 NA
ENDROOT
BRANCH   4   7
ATOM      7  S   UNL     1       4.558   4.462  18.125  0.00  0.00    +0.000 S 
ATOM      8  O   UNL     1       4.937   4.758  16.762  0.00  0.00    +0.000 OA
ATOM      9  O   UNL     1       5.555   4.153  19.128  0.00  0.00    +0.000 OA
BRANCH   7  10
ATOM     10  N   UNL     1       3.444   3.206  18.096  0.00  0.00    +0.000 NA
ATOM     11  C   UNL     1       2.143   3.383  17.433  0.00  0.00    +0.000 C 
ATOM     12  C   UNL     1       1.122   2.960  18.475  0.00  0.00    +0.000 C 
ATOM     13  C   UNL     1       1.842   1.905  19.294  0.00  0.00    +0.000 C 
ATOM     14  C   UNL     1       3.308   2.313  19.260  0.00  0.00    +0.000 C 
ENDBRANCH   7  10
ENDBRANCH   4   7
BRANCH   1  15
ATOM     15  S   UNL     1       0.980   9.327  19.845  0.00  0.00    +0.000 S 
BRANCH  15  16
ATOM     16  C   UNL     1       0.429   9.835  18.173  0.00  0.00    +0.000 C 
BRANCH  16  17
ATOM     17  C   UNL     1      -1.025  10.311  18.158  0.00  0.00    +0.000 C 
BRANCH  17  21
ATOM     18  C   UNL     1      -3.238  10.230  15.091  0.00  0.00    +0.000 C 
ATOM     19  C   UNL     1      -2.893  10.137  16.550  0.00  0.00    +0.000 C 
ATOM     20  O   UNL     1      -3.718   9.851  17.410  0.00  0.00    +0.000 OA
ATOM     21  N   UNL     1      -1.571  10.403  16.816  0.00  0.00    +0.000 N 
ATOM     22  H   UNL     1      -0.952  10.672  16.060  0.00  0.00    +0.000 HD
ENDBRANCH  17  21
ENDBRANCH  16  17
ENDBRANCH  15  16
ENDBRANCH   1  15
TORSDOF 6
ENDMDL
MODEL 9
REMARK VINA RESULT:      -6.5      3.300      4.022
REMARK  Name = 
REMARK  7 active torsions:
REMARK  status: ('A' for Active; 'I' for Inactive)
REMARK    1  A    between atoms: C_1  and  C_2
REMARK    2  A    between atoms: N_4  and  C_5
REMARK    3  A    between atoms: C_5  and  C_6
REMARK    4  A    between atoms: C_6  and  S_7
REMARK    5  A    between atoms: S_7  and  C_8
REMARK    6  A    between atoms: C_11  and  S_12
REMARK    7  A    between atoms: S_12  and  N_15
REMARK                            x       y       z     vdW  Elec       q    Type
REMARK                         _______ _______ _______ _____ _____    ______ ____
ROOT
ATOM      1  C   UNL     1       2.358   7.974  18.558  0.00  0.00    +0.000 A 
ATOM      2  C   UNL     1       2.238   7.144  19.668  0.00  0.00    +0.000 A 
ATOM      3  C   UNL     1       2.931   5.932  19.681  0.00  0.00    +0.000 A 
ATOM      4  C   UNL     1       3.737   5.605  18.594  0.00  0.00    +0.000 A 
ATOM      5  C   UNL     1       3.797   6.480  17.528  0.00  0.00    +0.000 A 
ATOM      6  N   UNL     1       3.140   7.667  17.498  0.00  0.00    +0.000 NA
ENDROOT
BRANCH   4   7
ATOM      7  S   UNL     1       4.541   4.037  18.479  0.00  0.00    +0.000 S 
ATOM      8  O   UNL     1       4.803   3.799  17.077  0.00  0.00    +0.000 OA
ATOM      9  O   UNL     1       5.615   4.039  19.451  0.00  0.00    +0.000 OA
BRANCH   7  10
ATOM     10  N   UNL     1       3.381   2.936  18.988  0.00  0.00    +0.000 NA
ATOM     11  C   UNL     1       2.162   2.721  18.195  0.00  0.00    +0.000 C 
ATOM     12  C   UNL     1       1.025   2.891  19.187  0.00  0.00    +0.000 C 
ATOM     13  C   UNL     1       1.612   2.430  20.508  0.00  0.00    +0.000 C 
ATOM     14  C   UNL     1       3.091   2.782  20.425  0.00  0.00    +0.000 C 
ENDBRANCH   7  10
ENDBRANCH   4   7
BRANCH   1  15
ATOM     15  S   UNL     1       1.410   9.481  18.483  0.00  0.00    +0.000 S 
BRANCH  15  16
ATOM     16  C   UNL     1       1.120   9.782  20.266  0.00  0.00    +0.000 C 
BRANCH  16  17
ATOM     17  C   UNL     1      -0.367   9.776  20.624  0.00  0.00    +0.000 C 
BRANCH  17  21
ATOM     18  C   UNL     1      -1.303  12.574  22.992  0.00  0.00    +0.000 C 
ATOM     19  C   UNL     1      -0.742  11.244  22.576  0.00  0.00    +0.000 C 
ATOM     20  O   UNL     1      -0.277  10.440  23.375  0.00  0.00    +0.000 OA
ATOM     21  N   UNL     1      -0.805  11.025  21.220  0.00  0.00    +0.000 N 
ATOM     22  H   UNL     1      -1.167  11.750  20.612  0.00  0.00    +0.000 HD
ENDBRANCH  17  21
ENDBRANCH  16  17
ENDBRANCH  15  16
ENDBRANCH   1  15
TORSDOF 6
ENDMDL
