MODEL 1
REMARK VINA RESULT:      -8.8      0.000      0.000
REMARK  Name = 
REMARK  2 active torsions:
REMARK  status: ('A' for Active; 'I' for Inactive)
REMARK    1  A    between atoms: C_4  and  N_5
REMARK    2  A    between atoms: C_13  and  C_14
REMARK                            x       y       z     vdW  Elec       q    Type
REMARK                         _______ _______ _______ _____ _____    ______ ____
ROOT
ATOM      1  O   UNL     1       4.716   1.490  20.674  0.00  0.00    +0.000 OA
ATOM      2  C   UNL     1       4.576   2.610  20.206  0.00  0.00    +0.000 A 
ATOM      3  C   UNL     1       5.614   3.210  19.360  0.00  0.00    +0.000 A 
ATOM      4  C   UNL     1       5.500   4.480  18.948  0.00  0.00    +0.000 A 
ATOM      5  O   UNL     1       4.429   5.278  19.349  0.00  0.00    +0.000 OA
ATOM      6  C   UNL     1       3.295   4.698  19.881  0.00  0.00    +0.000 A 
ATOM      7  C   UNL     1       2.092   5.448  19.921  0.00  0.00    +0.000 A 
ATOM      8  C   UNL     1       0.961   4.777  20.439  0.00  0.00    +0.000 A 
ATOM      9  C   UNL     1       1.036   3.503  21.012  0.00  0.00    +0.000 A 
ATOM     10  C   UNL     1       2.235   2.806  20.985  0.00  0.00    +0.000 A 
ATOM     11  C   UNL     1       3.345   3.392  20.379  0.00  0.00    +0.000 A 
ENDROOT
BRANCH   7  12
ATOM     12  C   UNL     1       1.979   6.861  19.410  0.00  0.00    +0.000 A 
ATOM     13  C   UNL     1       2.378   7.132  18.081  0.00  0.00    +0.000 A 
ATOM     14  C   UNL     1       2.356   8.415  17.541  0.00  0.00    +0.000 A 
ATOM     15  C   UNL     1       1.858   9.467  18.293  0.00  0.00    +0.000 A 
ATOM     16  C   UNL     1       1.382   9.254  19.588  0.00  0.00    +0.000 A 
ATOM     17  C   UNL     1       0.818  10.341  20.282  0.00  0.00    +0.000 A 
ATOM     18  C   UNL     1       0.315  10.193  21.570  0.00  0.00    +0.000 A 
ATOM     19  C   UNL     1       0.422   8.968  22.202  0.00  0.00    +0.000 A 
ATOM     20  C   UNL     1       1.018   7.890  21.537  0.00  0.00    +0.000 A 
ATOM     21  C   UNL     1       1.464   7.965  20.189  0.00  0.00    +0.000 A 
ENDBRANCH   7  12
BRANCH   4  22
ATOM     22  N   UNL     1       6.411   5.111  18.099  0.00  0.00    +0.000 N 
ATOM     23  C   UNL     1       7.349   6.148  18.582  0.00  0.00    +0.000 C 
ATOM     24  C   UNL     1       7.493   7.270  17.543  0.00  0.00    +0.000 C 
ATOM     25  O   UNL     1       7.885   6.760  16.258  0.00  0.00    +0.000 OA
ATOM     26  C   UNL     1       6.915   5.813  15.788  0.00  0.00    +0.000 C 
ATOM     27  C   UNL     1       6.777   4.624  16.751  0.00  0.00    +0.000 C 
ENDBRANCH   4  22
TORSDOF 2
ENDMDL
MODEL 2
REMARK VINA RESULT:      -8.4      0.993      1.115
REMARK  Name = 
REMARK  2 active torsions:
REMARK  status: ('A' for Active; 'I' for Inactive)
REMARK    1  A    between atoms: C_4  and  N_5
REMARK    2  A    between atoms: C_13  and  C_14
REMARK                            x       y       z     vdW  Elec       q    Type
REMARK                         _______ _______ _______ _____ _____    ______ ____
ROOT
ATOM      1  O   UNL     1       4.783   1.579  20.239  0.00  0.00    +0.000 OA
ATOM      2  C   UNL     1       4.554   2.678  19.756  0.00  0.00    +0.000 A 
ATOM      3  C   UNL     1       5.325   3.174  18.610  0.00  0.00    +0.000 A 
ATOM      4  C   UNL     1       5.143   4.424  18.164  0.00  0.00    +0.000 A 
ATOM      5  O   UNL     1       4.263   5.300  18.800  0.00  0.00    +0.000 OA
ATOM      6  C   UNL     1       3.312   4.813  19.673  0.00  0.00    +0.000 A 
ATOM      7  C   UNL     1       2.200   5.627  20.004  0.00  0.00    +0.000 A 
ATOM      8  C   UNL     1       1.243   5.049  20.869  0.00  0.00    +0.000 A 
ATOM      9  C   UNL     1       1.435   3.805  21.481  0.00  0.00    +0.000 A 
ATOM     10  C   UNL     1       2.548   3.043  21.159  0.00  0.00    +0.000 A 
ATOM     11  C   UNL     1       3.456   3.534  20.221  0.00  0.00    +0.000 A 
ENDROOT
BRANCH   7  12
ATOM     12  C   UNL     1       1.996   7.015  19.454  0.00  0.00    +0.000 A 
ATOM     13  C   UNL     1       2.300   7.252  18.093  0.00  0.00    +0.000 A 
ATOM     14  C   UNL     1       2.190   8.512  17.512  0.00  0.00    +0.000 A 
ATOM     15  C   UNL     1       1.696   9.571  18.257  0.00  0.00    +0.000 A 
ATOM     16  C   UNL     1       1.311   9.388  19.587  0.00  0.00    +0.000 A 
ATOM     17  C   UNL     1       0.746  10.476  20.278  0.00  0.00    +0.000 A 
ATOM     18  C   UNL     1       0.331  10.356  21.599  0.00  0.00    +0.000 A 
ATOM     19  C   UNL     1       0.529   9.161  22.265  0.00  0.00    +0.000 A 
ATOM     20  C   UNL     1       1.127   8.083  21.601  0.00  0.00    +0.000 A 
ATOM     21  C   UNL     1       1.484   8.126  20.225  0.00  0.00    +0.000 A 
ENDBRANCH   7  12
BRANCH   4  22
ATOM     22  N   UNL     1       5.792   4.958  17.048  0.00  0.00    +0.000 N 
ATOM     23  C   UNL     1       5.401   6.257  16.457  0.00  0.00    +0.000 C 
ATOM     24  C   UNL     1       5.472   6.193  14.924  0.00  0.00    +0.000 C 
ATOM     25  O   UNL     1       6.767   5.772  14.467  0.00  0.00    +0.000 OA
ATOM     26  C   UNL     1       7.081   4.478  15.000  0.00  0.00    +0.000 C 
ATOM     27  C   UNL     1       7.098   4.492  16.536  0.00  0.00    +0.000 C 
ENDBRANCH   4  22
TORSDOF 2
ENDMDL
MODEL 3
REMARK VINA RESULT:      -8.2      2.034      6.123
REMARK  Name = 
REMARK  2 active torsions:
REMARK  status: ('A' for Active; 'I' for Inactive)
REMARK    1  A    between atoms: C_4  and  N_5
REMARK    2  A    between atoms: C_13  and  C_14
REMARK                            x       y       z     vdW  Elec       q    Type
REMARK                         _______ _______ _______ _____ _____    ______ ____
ROOT
ATOM      1  O   UNL     1       0.706   3.304  21.349  0.00  0.00    +0.000 OA
ATOM      2  C   UNL     1       1.511   4.004  20.751  0.00  0.00    +0.000 A 
ATOM      3  C   UNL     1       1.253   5.432  20.533  0.00  0.00    +0.000 A 
ATOM      4  C   UNL     1       2.086   6.161  19.778  0.00  0.00    +0.000 A 
ATOM      5  O   UNL     1       3.183   5.581  19.140  0.00  0.00    +0.000 OA
ATOM      6  C   UNL     1       3.639   4.341  19.540  0.00  0.00    +0.000 A 
ATOM      7  C   UNL     1       4.948   3.938  19.175  0.00  0.00    +0.000 A 
ATOM      8  C   UNL     1       5.365   2.676  19.654  0.00  0.00    +0.000 A 
ATOM      9  C   UNL     1       4.503   1.803  20.330  0.00  0.00    +0.000 A 
ATOM     10  C   UNL     1       3.217   2.215  20.647  0.00  0.00    +0.000 A 
ATOM     11  C   UNL     1       2.809   3.499  20.290  0.00  0.00    +0.000 A 
ENDROOT
BRANCH   7  12
ATOM     12  C   UNL     1       5.882   4.796  18.361  0.00  0.00    +0.000 A 
ATOM     13  C   UNL     1       6.699   5.732  19.038  0.00  0.00    +0.000 A 
ATOM     14  C   UNL     1       7.554   6.600  18.365  0.00  0.00    +0.000 A 
ATOM     15  C   UNL     1       7.679   6.509  16.987  0.00  0.00    +0.000 A 
ATOM     16  C   UNL     1       6.953   5.559  16.267  0.00  0.00    +0.000 A 
ATOM     17  C   UNL     1       7.172   5.458  14.880  0.00  0.00    +0.000 A 
ATOM     18  C   UNL     1       6.490   4.524  14.108  0.00  0.00    +0.000 A 
ATOM     19  C   UNL     1       5.537   3.718  14.704  0.00  0.00    +0.000 A 
ATOM     20  C   UNL     1       5.282   3.837  16.075  0.00  0.00    +0.000 A 
ATOM     21  C   UNL     1       6.016   4.711  16.924  0.00  0.00    +0.000 A 
ENDBRANCH   7  12
BRANCH   4  22
ATOM     22  N   UNL     1       1.947   7.534  19.563  0.00  0.00    +0.000 N 
ATOM     23  C   UNL     1       1.579   8.467  20.651  0.00  0.00    +0.000 C 
ATOM     24  C   UNL     1       0.611   9.542  20.133  0.00  0.00    +0.000 C 
ATOM     25  O   UNL     1       1.147  10.240  18.997  0.00  0.00    +0.000 OA
ATOM     26  C   UNL     1       1.423   9.313  17.936  0.00  0.00    +0.000 C 
ATOM     27  C   UNL     1       2.443   8.250  18.369  0.00  0.00    +0.000 C 
ENDBRANCH   4  22
TORSDOF 2
ENDMDL
MODEL 4
REMARK VINA RESULT:      -8.0      2.167      5.662
REMARK  Name = 
REMARK  2 active torsions:
REMARK  status: ('A' for Active; 'I' for Inactive)
REMARK    1  A    between atoms: C_4  and  N_5
REMARK    2  A    between atoms: C_13  and  C_14
REMARK                            x       y       z     vdW  Elec       q    Type
REMARK                         _______ _______ _______ _____ _____    ______ ____
ROOT
ATOM      1  O   UNL     1       0.401   2.879  20.868  0.00  0.00    +0.000 OA
ATOM      2  C   UNL     1       1.166   3.567  20.208  0.00  0.00    +0.000 A 
ATOM      3  C   UNL     1       1.111   5.032  20.274  0.00  0.00    +0.000 A 
ATOM      4  C   UNL     1       1.875   5.774  19.460  0.00  0.00    +0.000 A 
ATOM      5  O   UNL     1       2.698   5.184  18.500  0.00  0.00    +0.000 OA
ATOM      6  C   UNL     1       3.013   3.843  18.590  0.00  0.00    +0.000 A 
ATOM      7  C   UNL     1       4.128   3.349  17.866  0.00  0.00    +0.000 A 
ATOM      8  C   UNL     1       4.419   1.977  18.038  0.00  0.00    +0.000 A 
ATOM      9  C   UNL     1       3.587   1.114  18.760  0.00  0.00    +0.000 A 
ATOM     10  C   UNL     1       2.486   1.622  19.433  0.00  0.00    +0.000 A 
ATOM     11  C   UNL     1       2.233   2.992  19.380  0.00  0.00    +0.000 A 
ENDROOT
BRANCH   7  12
ATOM     12  C   UNL     1       4.998   4.214  16.992  0.00  0.00    +0.000 A 
ATOM     13  C   UNL     1       4.776   4.200  15.595  0.00  0.00    +0.000 A 
ATOM     14  C   UNL     1       5.563   4.927  14.707  0.00  0.00    +0.000 A 
ATOM     15  C   UNL     1       6.558   5.760  15.194  0.00  0.00    +0.000 A 
ATOM     16  C   UNL     1       6.782   5.874  16.568  0.00  0.00    +0.000 A 
ATOM     17  C   UNL     1       7.753   6.790  17.016  0.00  0.00    +0.000 A 
ATOM     18  C   UNL     1       8.015   6.959  18.370  0.00  0.00    +0.000 A 
ATOM     19  C   UNL     1       7.349   6.173  19.293  0.00  0.00    +0.000 A 
ATOM     20  C   UNL     1       6.410   5.231  18.857  0.00  0.00    +0.000 A 
ATOM     21  C   UNL     1       6.040   5.083  17.492  0.00  0.00    +0.000 A 
ENDBRANCH   7  12
BRANCH   4  22
ATOM     22  N   UNL     1       1.926   7.169  19.494  0.00  0.00    +0.000 N 
ATOM     23  C   UNL     1       1.666   7.937  20.731  0.00  0.00    +0.000 C 
ATOM     24  C   UNL     1       0.862   9.208  20.417  0.00  0.00    +0.000 C 
ATOM     25  O   UNL     1       1.510  10.015  19.420  0.00  0.00    +0.000 OA
ATOM     26  C   UNL     1       1.679   9.262  18.210  0.00  0.00    +0.000 C 
ATOM     27  C   UNL     1       2.539   8.010  18.443  0.00  0.00    +0.000 C 
ENDBRANCH   4  22
TORSDOF 2
ENDMDL
MODEL 5
REMARK VINA RESULT:      -7.9      7.370     10.759
REMARK  Name = 
REMARK  2 active torsions:
REMARK  status: ('A' for Active; 'I' for Inactive)
REMARK    1  A    between atoms: C_4  and  N_5
REMARK    2  A    between atoms: C_13  and  C_14
REMARK                            x       y       z     vdW  Elec       q    Type
REMARK                         _______ _______ _______ _____ _____    ______ ____
ROOT
ATOM      1  O   UNL     1      -6.613  12.227  17.081  0.00  0.00    +0.000 OA
ATOM      2  C   UNL     1      -5.677  12.163  17.865  0.00  0.00    +0.000 A 
ATOM      3  C   UNL     1      -5.832  12.587  19.261  0.00  0.00    +0.000 A 
ATOM      4  C   UNL     1      -4.770  12.620  20.079  0.00  0.00    +0.000 A 
ATOM      5  O   UNL     1      -3.491  12.307  19.619  0.00  0.00    +0.000 OA
ATOM      6  C   UNL     1      -3.331  11.628  18.428  0.00  0.00    +0.000 A 
ATOM      7  C   UNL     1      -2.096  10.983  18.164  0.00  0.00    +0.000 A 
ATOM      8  C   UNL     1      -2.017  10.271  16.946  0.00  0.00    +0.000 A 
ATOM      9  C   UNL     1      -3.033  10.306  15.984  0.00  0.00    +0.000 A 
ATOM     10  C   UNL     1      -4.219  10.971  16.260  0.00  0.00    +0.000 A 
ATOM     11  C   UNL     1      -4.377  11.589  17.499  0.00  0.00    +0.000 A 
ENDROOT
BRANCH   7  12
ATOM     12  C   UNL     1      -0.932  10.999  19.120  0.00  0.00    +0.000 A 
ATOM     13  C   UNL     1      -0.668   9.836  19.881  0.00  0.00    +0.000 A 
ATOM     14  C   UNL     1       0.354   9.777  20.824  0.00  0.00    +0.000 A 
ATOM     15  C   UNL     1       1.202  10.861  20.986  0.00  0.00    +0.000 A 
ATOM     16  C   UNL     1       1.039  12.014  20.215  0.00  0.00    +0.000 A 
ATOM     17  C   UNL     1       1.972  13.058  20.365  0.00  0.00    +0.000 A 
ATOM     18  C   UNL     1       1.873  14.227  19.619  0.00  0.00    +0.000 A 
ATOM     19  C   UNL     1       0.806  14.391  18.755  0.00  0.00    +0.000 A 
ATOM     20  C   UNL     1      -0.150  13.376  18.627  0.00  0.00    +0.000 A 
ATOM     21  C   UNL     1      -0.045  12.127  19.298  0.00  0.00    +0.000 A 
ENDBRANCH   7  12
BRANCH   4  22
ATOM     22  N   UNL     1      -4.837  12.957  21.432  0.00  0.00    +0.000 N 
ATOM     23  C   UNL     1      -3.624  13.121  22.263  0.00  0.00    +0.000 C 
ATOM     24  C   UNL     1      -3.852  12.542  23.668  0.00  0.00    +0.000 C 
ATOM     25  O   UNL     1      -5.007  13.117  24.300  0.00  0.00    +0.000 OA
ATOM     26  C   UNL     1      -6.175  12.875  23.503  0.00  0.00    +0.000 C 
ATOM     27  C   UNL     1      -6.040  13.494  22.104  0.00  0.00    +0.000 C 
ENDBRANCH   4  22
TORSDOF 2
ENDMDL
MODEL 6
REMARK VINA RESULT:      -7.8      7.375     10.810
REMARK  Name = 
REMARK  2 active torsions:
REMARK  status: ('A' for Active; 'I' for Inactive)
REMARK    1  A    between atoms: C_4  and  N_5
REMARK    2  A    between atoms: C_13  and  C_14
REMARK                            x       y       z     vdW  Elec       q    Type
REMARK                         _______ _______ _______ _____ _____    ______ ____
ROOT
ATOM      1  O   UNL     1      -6.590  12.181  17.011  0.00  0.00    +0.000 OA
ATOM      2  C   UNL     1      -5.666  12.115  17.809  0.00  0.00    +0.000 A 
ATOM      3  C   UNL     1      -5.850  12.504  19.211  0.00  0.00    +0.000 A 
ATOM      4  C   UNL     1      -4.803  12.537  20.047  0.00  0.00    +0.000 A 
ATOM      5  O   UNL     1      -3.511  12.255  19.601  0.00  0.00    +0.000 OA
ATOM      6  C   UNL     1      -3.321  11.605  18.399  0.00  0.00    +0.000 A 
ATOM      7  C   UNL     1      -2.071  10.986  18.141  0.00  0.00    +0.000 A 
ATOM      8  C   UNL     1      -1.961  10.303  16.909  0.00  0.00    +0.000 A 
ATOM      9  C   UNL     1      -2.962  10.343  15.931  0.00  0.00    +0.000 A 
ATOM     10  C   UNL     1      -4.163  10.982  16.202  0.00  0.00    +0.000 A 
ATOM     11  C   UNL     1      -4.351  11.570  17.452  0.00  0.00    +0.000 A 
ENDROOT
BRANCH   7  12
ATOM     12  C   UNL     1      -0.923  11.000  19.116  0.00  0.00    +0.000 A 
ATOM     13  C   UNL     1      -0.677   9.838  19.884  0.00  0.00    +0.000 A 
ATOM     14  C   UNL     1       0.329   9.777  20.845  0.00  0.00    +0.000 A 
ATOM     15  C   UNL     1       1.179  10.857  21.018  0.00  0.00    +0.000 A 
ATOM     16  C   UNL     1       1.034  12.009  20.241  0.00  0.00    +0.000 A 
ATOM     17  C   UNL     1       1.969  13.049  20.404  0.00  0.00    +0.000 A 
ATOM     18  C   UNL     1       1.888  14.217  19.653  0.00  0.00    +0.000 A 
ATOM     19  C   UNL     1       0.836  14.383  18.771  0.00  0.00    +0.000 A 
ATOM     20  C   UNL     1      -0.123  13.372  18.630  0.00  0.00    +0.000 A 
ATOM     21  C   UNL     1      -0.034  12.124  19.306  0.00  0.00    +0.000 A 
ENDBRANCH   7  12
BRANCH   4  22
ATOM     22  N   UNL     1      -4.897  12.842  21.407  0.00  0.00    +0.000 N 
ATOM     23  C   UNL     1      -6.200  12.975  22.095  0.00  0.00    +0.000 C 
ATOM     24  C   UNL     1      -6.159  14.133  23.104  0.00  0.00    +0.000 C 
ATOM     25  O   UNL     1      -5.079  13.986  24.040  0.00  0.00    +0.000 OA
ATOM     26  C   UNL     1      -3.826  13.935  23.342  0.00  0.00    +0.000 C 
ATOM     27  C   UNL     1      -3.775  12.751  22.365  0.00  0.00    +0.000 C 
ENDBRANCH   4  22
TORSDOF 2
ENDMDL
MODEL 7
REMARK VINA RESULT:      -7.5      7.389     11.573
REMARK  Name = 
REMARK  2 active torsions:
REMARK  status: ('A' for Active; 'I' for Inactive)
REMARK    1  A    between atoms: C_4  and  N_5
REMARK    2  A    between atoms: C_13  and  C_14
REMARK                            x       y       z     vdW  Elec       q    Type
REMARK                         _______ _______ _______ _____ _____    ______ ____
ROOT
ATOM      1  O   UNL     1      -6.400  14.947  24.175  0.00  0.00    +0.000 OA
ATOM      2  C   UNL     1      -5.746  14.369  23.319  0.00  0.00    +0.000 A 
ATOM      3  C   UNL     1      -6.373  13.900  22.078  0.00  0.00    +0.000 A 
ATOM      4  C   UNL     1      -5.672  13.168  21.202  0.00  0.00    +0.000 A 
ATOM      5  O   UNL     1      -4.356  12.789  21.463  0.00  0.00    +0.000 OA
ATOM      6  C   UNL     1      -3.632  13.434  22.445  0.00  0.00    +0.000 A 
ATOM      7  C   UNL     1      -2.218  13.324  22.443  0.00  0.00    +0.000 A 
ATOM      8  C   UNL     1      -1.539  14.045  23.451  0.00  0.00    +0.000 A 
ATOM      9  C   UNL     1      -2.209  14.717  24.480  0.00  0.00    +0.000 A 
ATOM     10  C   UNL     1      -3.595  14.783  24.470  0.00  0.00    +0.000 A 
ATOM     11  C   UNL     1      -4.295  14.179  23.427  0.00  0.00    +0.000 A 
ENDROOT
BRANCH   7  12
ATOM     12  C   UNL     1      -1.450  12.529  21.419  0.00  0.00    +0.000 A 
ATOM     13  C   UNL     1      -1.347  13.044  20.106  0.00  0.00    +0.000 A 
ATOM     14  C   UNL     1      -0.700  12.355  19.083  0.00  0.00    +0.000 A 
ATOM     15  C   UNL     1      -0.065  11.154  19.358  0.00  0.00    +0.000 A 
ATOM     16  C   UNL     1      -0.070  10.626  20.651  0.00  0.00    +0.000 A 
ATOM     17  C   UNL     1       0.652   9.443  20.895  0.00  0.00    +0.000 A 
ATOM     18  C   UNL     1       0.698   8.872  22.162  0.00  0.00    +0.000 A 
ATOM     19  C   UNL     1      -0.027   9.447  23.190  0.00  0.00    +0.000 A 
ATOM     20  C   UNL     1      -0.782  10.602  22.950  0.00  0.00    +0.000 A 
ATOM     21  C   UNL     1      -0.788  11.274  21.697  0.00  0.00    +0.000 A 
ENDBRANCH   7  12
BRANCH   4  22
ATOM     22  N   UNL     1      -6.173  12.728  19.974  0.00  0.00    +0.000 N 
ATOM     23  C   UNL     1      -5.396  11.843  19.079  0.00  0.00    +0.000 C 
ATOM     24  C   UNL     1      -5.597  12.252  17.611  0.00  0.00    +0.000 C 
ATOM     25  O   UNL     1      -6.987  12.279  17.251  0.00  0.00    +0.000 OA
ATOM     26  C   UNL     1      -7.696  13.202  18.091  0.00  0.00    +0.000 C 
ATOM     27  C   UNL     1      -7.594  12.806  19.572  0.00  0.00    +0.000 C 
ENDBRANCH   4  22
TORSDOF 2
ENDMDL
MODEL 8
REMARK VINA RESULT:      -7.3      7.332     10.714
REMARK  Name = 
REMARK  2 active torsions:
REMARK  status: ('A' for Active; 'I' for Inactive)
REMARK    1  A    between atoms: C_4  and  N_5
REMARK    2  A    between atoms: C_13  and  C_14
REMARK                            x       y       z     vdW  Elec       q    Type
REMARK                         _______ _______ _______ _____ _____    ______ ____
ROOT
ATOM      1  O   UNL     1      -7.100  11.613  17.919  0.00  0.00    +0.000 OA
ATOM      2  C   UNL     1      -6.031  11.813  18.478  0.00  0.00    +0.000 A 
ATOM      3  C   UNL     1      -5.980  12.181  19.898  0.00  0.00    +0.000 A 
ATOM      4  C   UNL     1      -4.812  12.509  20.468  0.00  0.00    +0.000 A 
ATOM      5  O   UNL     1      -3.632  12.562  19.726  0.00  0.00    +0.000 OA
ATOM      6  C   UNL     1      -3.564  11.951  18.491  0.00  0.00    +0.000 A 
ATOM      7  C   UNL     1      -2.292  11.673  17.929  0.00  0.00    +0.000 A 
ATOM      8  C   UNL     1      -2.297  11.008  16.683  0.00  0.00    +0.000 A 
ATOM      9  C   UNL     1      -3.472  10.758  15.966  0.00  0.00    +0.000 A 
ATOM     10  C   UNL     1      -4.701  11.068  16.529  0.00  0.00    +0.000 A 
ATOM     11  C   UNL     1      -4.740  11.621  17.808  0.00  0.00    +0.000 A 
ENDROOT
BRANCH   7  12
ATOM     12  C   UNL     1      -0.993  12.014  18.612  0.00  0.00    +0.000 A 
ATOM     13  C   UNL     1      -0.363  13.239  18.291  0.00  0.00    +0.000 A 
ATOM     14  C   UNL     1       0.862  13.614  18.835  0.00  0.00    +0.000 A 
ATOM     15  C   UNL     1       1.469  12.805  19.782  0.00  0.00    +0.000 A 
ATOM     16  C   UNL     1       0.865  11.615  20.195  0.00  0.00    +0.000 A 
ATOM     17  C   UNL     1       1.484  10.867  21.214  0.00  0.00    +0.000 A 
ATOM     18  C   UNL     1       0.928   9.681  21.679  0.00  0.00    +0.000 A 
ATOM     19  C   UNL     1      -0.226   9.197  21.089  0.00  0.00    +0.000 A 
ATOM     20  C   UNL     1      -0.829   9.912  20.048  0.00  0.00    +0.000 A 
ATOM     21  C   UNL     1      -0.351  11.174  19.599  0.00  0.00    +0.000 A 
ENDBRANCH   7  12
BRANCH   4  22
ATOM     22  N   UNL     1      -4.664  12.818  21.822  0.00  0.00    +0.000 N 
ATOM     23  C   UNL     1      -5.818  13.160  22.683  0.00  0.00    +0.000 C 
ATOM     24  C   UNL     1      -5.447  14.289  23.656  0.00  0.00    +0.000 C 
ATOM     25  O   UNL     1      -4.286  13.961  24.436  0.00  0.00    +0.000 OA
ATOM     26  C   UNL     1      -3.168  13.708  23.572  0.00  0.00    +0.000 C 
ATOM     27  C   UNL     1      -3.449  12.537  22.617  0.00  0.00    +0.000 C 
ENDBRANCH   4  22
TORSDOF 2
ENDMDL
MODEL 9
REMARK VINA RESULT:      -7.3      7.932     11.455
REMARK  Name = 
REMARK  2 active torsions:
REMARK  status: ('A' for Active; 'I' for Inactive)
REMARK    1  A    between atoms: C_4  and  N_5
REMARK    2  A    between atoms: C_13  and  C_14
REMARK                            x       y       z     vdW  Elec       q    Type
REMARK                         _______ _______ _______ _____ _____    ______ ____
ROOT
ATOM      1  O   UNL     1      -3.846  12.958  25.354  0.00  0.00    +0.000 OA
ATOM      2  C   UNL     1      -3.966  12.874  24.140  0.00  0.00    +0.000 A 
ATOM      3  C   UNL     1      -2.806  12.599  23.285  0.00  0.00    +0.000 A 
ATOM      4  C   UNL     1      -2.929  12.624  21.951  0.00  0.00    +0.000 A 
ATOM      5  O   UNL     1      -4.137  12.961  21.341  0.00  0.00    +0.000 OA
ATOM      6  C   UNL     1      -5.310  12.934  22.067  0.00  0.00    +0.000 A 
ATOM      7  C   UNL     1      -6.548  12.892  21.377  0.00  0.00    +0.000 A 
ATOM      8  C   UNL     1      -7.706  12.823  22.183  0.00  0.00    +0.000 A 
ATOM      9  C   UNL     1      -7.661  12.931  23.578  0.00  0.00    +0.000 A 
ATOM     10  C   UNL     1      -6.436  13.001  24.224  0.00  0.00    +0.000 A 
ATOM     11  C   UNL     1      -5.267  12.956  23.466  0.00  0.00    +0.000 A 
ENDROOT
BRANCH   7  12
ATOM     12  C   UNL     1      -6.657  12.877  19.874  0.00  0.00    +0.000 A 
ATOM     13  C   UNL     1      -6.771  11.629  19.218  0.00  0.00    +0.000 A 
ATOM     14  C   UNL     1      -6.827  11.516  17.832  0.00  0.00    +0.000 A 
ATOM     15  C   UNL     1      -6.848  12.660  17.051  0.00  0.00    +0.000 A 
ATOM     16  C   UNL     1      -6.810  13.926  17.639  0.00  0.00    +0.000 A 
ATOM     17  C   UNL     1      -6.909  15.057  16.807  0.00  0.00    +0.000 A 
ATOM     18  C   UNL     1      -6.890  16.344  17.331  0.00  0.00    +0.000 A 
ATOM     19  C   UNL     1      -6.713  16.518  18.691  0.00  0.00    +0.000 A 
ATOM     20  C   UNL     1      -6.572  15.403  19.525  0.00  0.00    +0.000 A 
ATOM     21  C   UNL     1      -6.677  14.066  19.051  0.00  0.00    +0.000 A 
ENDBRANCH   7  12
BRANCH   4  22
ATOM     22  N   UNL     1      -1.893  12.322  21.064  0.00  0.00    +0.000 N 
ATOM     23  C   UNL     1      -2.131  12.099  19.621  0.00  0.00    +0.000 C 
ATOM     24  C   UNL     1      -1.249  10.954  19.101  0.00  0.00    +0.000 C 
ATOM     25  O   UNL     1       0.142  11.184  19.377  0.00  0.00    +0.000 OA
ATOM     26  C   UNL     1       0.346  11.322  20.791  0.00  0.00    +0.000 C 
ATOM     27  C   UNL     1      -0.456  12.500  21.363  0.00  0.00    +0.000 C 
ENDBRANCH   4  22
TORSDOF 2
ENDMDL
