MODEL 1
REMARK VINA RESULT:      -7.1      0.000      0.000
REMARK  Name = 
REMARK  3 active torsions:
REMARK  status: ('A' for Active; 'I' for Inactive)
REMARK    1  A    between atoms: C_1  and  C_2
REMARK    2  A    between atoms: C_5  and  N_6
REMARK    3  A    between atoms: C_12  and  C_13
REMARK                            x       y       z     vdW  Elec       q    Type
REMARK                         _______ _______ _______ _____ _____    ______ ____
ROOT
ATOM      1  N   UNL     1       1.791   9.468  18.257  0.00  0.00    +0.000 NA
ATOM      2  C   UNL     1       2.206   8.308  18.631  0.00  0.00    +0.000 C 
ATOM      3  N   UNL     1       1.790   7.557  19.687  0.00  0.00    +0.000 N 
ATOM      4  C   UNL     1       2.348   6.329  19.874  0.00  0.00    +0.000 C 
ATOM      5  O   UNL     1       2.047   5.545  20.758  0.00  0.00    +0.000 OA
ATOM      6  C   UNL     1       3.365   6.088  18.818  0.00  0.00    +0.000 C 
ATOM      7  C   UNL     1       4.053   4.942  18.745  0.00  0.00    +0.000 C 
ATOM      8  S   UNL     1       3.460   7.454  17.762  0.00  0.00    +0.000 S 
ATOM      9  H   UNL     1       1.049   7.898  20.289  0.00  0.00    +0.000 HD
ENDROOT
BRANCH   7  10
ATOM     10  C   UNL     1       5.044   4.651  17.705  0.00  0.00    +0.000 A 
ATOM     11  C   UNL     1       4.591   4.109  16.493  0.00  0.00    +0.000 A 
ATOM     12  C   UNL     1       5.481   3.880  15.443  0.00  0.00    +0.000 A 
ATOM     13  C   UNL     1       6.832   4.188  15.594  0.00  0.00    +0.000 A 
ATOM     14  C   UNL     1       7.298   4.711  16.801  0.00  0.00    +0.000 A 
ATOM     15  C   UNL     1       6.411   4.939  17.855  0.00  0.00    +0.000 A 
ATOM     16 CL   UNL     1       7.048   5.581  19.329  0.00  0.00    +0.000 Cl
ENDBRANCH   7  10
BRANCH   1  21
ATOM     17  C   UNL     1      -0.585  11.267  22.071  0.00  0.00    +0.000 C 
ATOM     18  C   UNL     1      -0.421  10.882  20.647  0.00  0.00    +0.000 A 
ATOM     19  C   UNL     1      -1.359  10.974  19.642  0.00  0.00    +0.000 A 
ATOM     20  S   UNL     1      -0.707  10.381  18.174  0.00  0.00    +0.000 S 
ATOM     21  C   UNL     1       0.787  10.036  18.972  0.00  0.00    +0.000 A 
ATOM     22  N   UNL     1       0.797  10.359  20.253  0.00  0.00    +0.000 NA
ENDBRANCH   1  21
TORSDOF 2
ENDMDL
MODEL 2
REMARK VINA RESULT:      -6.9      1.083      1.347
REMARK  Name = 
REMARK  3 active torsions:
REMARK  status: ('A' for Active; 'I' for Inactive)
REMARK    1  A    between atoms: C_1  and  C_2
REMARK    2  A    between atoms: C_5  and  N_6
REMARK    3  A    between atoms: C_12  and  C_13
REMARK                            x       y       z     vdW  Elec       q    Type
REMARK                         _______ _______ _______ _____ _____    ______ ____
ROOT
ATOM      1  N   UNL     1       1.910   9.622  17.648  0.00  0.00    +0.000 NA
ATOM      2  C   UNL     1       2.287   8.500  18.156  0.00  0.00    +0.000 C 
ATOM      3  N   UNL     1       1.794   7.853  19.247  0.00  0.00    +0.000 N 
ATOM      4  C   UNL     1       2.325   6.646  19.585  0.00  0.00    +0.000 C 
ATOM      5  O   UNL     1       1.957   5.950  20.517  0.00  0.00    +0.000 OA
ATOM      6  C   UNL     1       3.407   6.302  18.626  0.00  0.00    +0.000 C 
ATOM      7  C   UNL     1       4.085   5.150  18.707  0.00  0.00    +0.000 C 
ATOM      8  S   UNL     1       3.585   7.562  17.456  0.00  0.00    +0.000 S 
ATOM      9  H   UNL     1       1.019   8.254  19.763  0.00  0.00    +0.000 HD
ENDROOT
BRANCH   7  10
ATOM     10  C   UNL     1       5.139   4.758  17.767  0.00  0.00    +0.000 A 
ATOM     11  C   UNL     1       4.755   4.219  16.530  0.00  0.00    +0.000 A 
ATOM     12  C   UNL     1       5.715   3.896  15.569  0.00  0.00    +0.000 A 
ATOM     13  C   UNL     1       7.066   4.106  15.836  0.00  0.00    +0.000 A 
ATOM     14  C   UNL     1       7.462   4.626  17.068  0.00  0.00    +0.000 A 
ATOM     15  C   UNL     1       6.505   4.947  18.034  0.00  0.00    +0.000 A 
ATOM     16 CL   UNL     1       7.057   5.581  19.546  0.00  0.00    +0.000 Cl
ENDBRANCH   7  10
BRANCH   1  21
ATOM     17  C   UNL     1      -2.662  10.922  18.560  0.00  0.00    +0.000 C 
ATOM     18  C   UNL     1      -1.191  10.951  18.752  0.00  0.00    +0.000 A 
ATOM     19  C   UNL     1      -0.476  11.747  19.622  0.00  0.00    +0.000 A 
ATOM     20  S   UNL     1       1.200  11.436  19.459  0.00  0.00    +0.000 S 
ATOM     21  C   UNL     1       0.868  10.259  18.238  0.00  0.00    +0.000 A 
ATOM     22  N   UNL     1      -0.419  10.102  17.982  0.00  0.00    +0.000 NA
ENDBRANCH   1  21
TORSDOF 2
ENDMDL
MODEL 3
REMARK VINA RESULT:      -6.9      4.781      7.045
REMARK  Name = 
REMARK  3 active torsions:
REMARK  status: ('A' for Active; 'I' for Inactive)
REMARK    1  A    between atoms: C_1  and  C_2
REMARK    2  A    between atoms: C_5  and  N_6
REMARK    3  A    between atoms: C_12  and  C_13
REMARK                            x       y       z     vdW  Elec       q    Type
REMARK                         _______ _______ _______ _____ _____    ______ ____
ROOT
ATOM      1  N   UNL     1      -4.532  10.771  17.445  0.00  0.00    +0.000 NA
ATOM      2  C   UNL     1      -3.426  11.089  18.024  0.00  0.00    +0.000 C 
ATOM      3  N   UNL     1      -3.117  12.229  18.698  0.00  0.00    +0.000 N 
ATOM      4  C   UNL     1      -1.885  12.336  19.268  0.00  0.00    +0.000 C 
ATOM      5  O   UNL     1      -1.492  13.287  19.923  0.00  0.00    +0.000 OA
ATOM      6  C   UNL     1      -1.106  11.103  18.986  0.00  0.00    +0.000 C 
ATOM      7  C   UNL     1       0.136  10.927  19.454  0.00  0.00    +0.000 C 
ATOM      8  S   UNL     1      -2.052  10.009  18.038  0.00  0.00    +0.000 S 
ATOM      9  H   UNL     1      -3.813  12.959  18.801  0.00  0.00    +0.000 HD
ENDROOT
BRANCH   7  10
ATOM     10  C   UNL     1       0.929   9.716  19.223  0.00  0.00    +0.000 A 
ATOM     11  C   UNL     1       1.563   9.568  17.980  0.00  0.00    +0.000 A 
ATOM     12  C   UNL     1       2.389   8.470  17.732  0.00  0.00    +0.000 A 
ATOM     13  C   UNL     1       2.586   7.509  18.722  0.00  0.00    +0.000 A 
ATOM     14  C   UNL     1       1.947   7.636  19.955  0.00  0.00    +0.000 A 
ATOM     15  C   UNL     1       1.118   8.731  20.206  0.00  0.00    +0.000 A 
ATOM     16 CL   UNL     1       0.347   8.830  21.751  0.00  0.00    +0.000 Cl
ENDBRANCH   7  10
BRANCH   1  21
ATOM     17  C   UNL     1      -7.196  14.693  16.469  0.00  0.00    +0.000 C 
ATOM     18  C   UNL     1      -6.871  13.428  17.175  0.00  0.00    +0.000 A 
ATOM     19  C   UNL     1      -7.576  12.837  18.201  0.00  0.00    +0.000 A 
ATOM     20  S   UNL     1      -6.790  11.402  18.703  0.00  0.00    +0.000 S 
ATOM     21  C   UNL     1      -5.556  11.658  17.520  0.00  0.00    +0.000 A 
ATOM     22  N   UNL     1      -5.734  12.744  16.789  0.00  0.00    +0.000 NA
ENDBRANCH   1  21
TORSDOF 2
ENDMDL
MODEL 4
REMARK VINA RESULT:      -6.8      2.618      3.160
REMARK  Name = 
REMARK  3 active torsions:
REMARK  status: ('A' for Active; 'I' for Inactive)
REMARK    1  A    between atoms: C_1  and  C_2
REMARK    2  A    between atoms: C_5  and  N_6
REMARK    3  A    between atoms: C_12  and  C_13
REMARK                            x       y       z     vdW  Elec       q    Type
REMARK                         _______ _______ _______ _____ _____    ______ ____
ROOT
ATOM      1  N   UNL     1       0.746   8.966  21.721  0.00  0.00    +0.000 NA
ATOM      2  C   UNL     1       1.214   8.502  20.614  0.00  0.00    +0.000 C 
ATOM      3  N   UNL     1       1.434   9.159  19.443  0.00  0.00    +0.000 N 
ATOM      4  C   UNL     1       1.977   8.471  18.401  0.00  0.00    +0.000 C 
ATOM      5  O   UNL     1       2.253   8.944  17.311  0.00  0.00    +0.000 OA
ATOM      6  C   UNL     1       2.201   7.060  18.810  0.00  0.00    +0.000 C 
ATOM      7  C   UNL     1       2.753   6.162  17.985  0.00  0.00    +0.000 C 
ATOM      8  S   UNL     1       1.682   6.827  20.443  0.00  0.00    +0.000 S 
ATOM      9  H   UNL     1       1.232  10.150  19.375  0.00  0.00    +0.000 HD
ENDROOT
BRANCH   7  10
ATOM     10  C   UNL     1       3.017   4.769  18.356  0.00  0.00    +0.000 A 
ATOM     11  C   UNL     1       2.035   3.810  18.066  0.00  0.00    +0.000 A 
ATOM     12  C   UNL     1       2.263   2.459  18.332  0.00  0.00    +0.000 A 
ATOM     13  C   UNL     1       3.473   2.054  18.891  0.00  0.00    +0.000 A 
ATOM     14  C   UNL     1       4.452   3.000  19.200  0.00  0.00    +0.000 A 
ATOM     15  C   UNL     1       4.226   4.353  18.938  0.00  0.00    +0.000 A 
ATOM     16 CL   UNL     1       5.471   5.480  19.349  0.00  0.00    +0.000 Cl
ENDBRANCH   7  10
BRANCH   1  21
ATOM     17  C   UNL     1       1.165  13.727  20.955  0.00  0.00    +0.000 C 
ATOM     18  C   UNL     1       0.527  12.502  21.498  0.00  0.00    +0.000 A 
ATOM     19  C   UNL     1      -0.595  12.427  22.296  0.00  0.00    +0.000 A 
ATOM     20  S   UNL     1      -0.928  10.794  22.688  0.00  0.00    +0.000 S 
ATOM     21  C   UNL     1       0.446  10.288  21.769  0.00  0.00    +0.000 A 
ATOM     22  N   UNL     1       1.101  11.282  21.196  0.00  0.00    +0.000 NA
ENDBRANCH   1  21
TORSDOF 2
ENDMDL
MODEL 5
REMARK VINA RESULT:      -6.7      2.902      3.533
REMARK  Name = 
REMARK  3 active torsions:
REMARK  status: ('A' for Active; 'I' for Inactive)
REMARK    1  A    between atoms: C_1  and  C_2
REMARK    2  A    between atoms: C_5  and  N_6
REMARK    3  A    between atoms: C_12  and  C_13
REMARK                            x       y       z     vdW  Elec       q    Type
REMARK                         _______ _______ _______ _____ _____    ______ ____
ROOT
ATOM      1  N   UNL     1       0.747   9.275  21.921  0.00  0.00    +0.000 NA
ATOM      2  C   UNL     1       1.202   8.915  20.770  0.00  0.00    +0.000 C 
ATOM      3  N   UNL     1       1.202   9.611  19.602  0.00  0.00    +0.000 N 
ATOM      4  C   UNL     1       1.777   9.044  18.505  0.00  0.00    +0.000 C 
ATOM      5  O   UNL     1       1.873   9.569  17.408  0.00  0.00    +0.000 OA
ATOM      6  C   UNL     1       2.289   7.696  18.863  0.00  0.00    +0.000 C 
ATOM      7  C   UNL     1       2.928   6.923  17.977  0.00  0.00    +0.000 C 
ATOM      8  S   UNL     1       1.955   7.357  20.525  0.00  0.00    +0.000 S 
ATOM      9  H   UNL     1       0.817  10.548  19.572  0.00  0.00    +0.000 HD
ENDROOT
BRANCH   7  10
ATOM     10  C   UNL     1       3.474   5.599  18.294  0.00  0.00    +0.000 A 
ATOM     11  C   UNL     1       4.775   5.528  18.814  0.00  0.00    +0.000 A 
ATOM     12  C   UNL     1       5.317   4.301  19.201  0.00  0.00    +0.000 A 
ATOM     13  C   UNL     1       4.565   3.135  19.070  0.00  0.00    +0.000 A 
ATOM     14  C   UNL     1       3.276   3.191  18.538  0.00  0.00    +0.000 A 
ATOM     15  C   UNL     1       2.732   4.416  18.147  0.00  0.00    +0.000 A 
ATOM     16 CL   UNL     1       1.133   4.422  17.488  0.00  0.00    +0.000 Cl
ENDBRANCH   7  10
BRANCH   1  21
ATOM     17  C   UNL     1       0.268  14.052  21.304  0.00  0.00    +0.000 C 
ATOM     18  C   UNL     1      -0.118  12.717  21.825  0.00  0.00    +0.000 A 
ATOM     19  C   UNL     1      -1.178  12.416  22.653  0.00  0.00    +0.000 A 
ATOM     20  S   UNL     1      -1.195  10.739  22.999  0.00  0.00    +0.000 S 
ATOM     21  C   UNL     1       0.215  10.518  22.023  0.00  0.00    +0.000 A 
ATOM     22  N   UNL     1       0.657  11.631  21.464  0.00  0.00    +0.000 NA
ENDBRANCH   1  21
TORSDOF 2
ENDMDL
MODEL 6
REMARK VINA RESULT:      -6.5      2.155      2.729
REMARK  Name = 
REMARK  3 active torsions:
REMARK  status: ('A' for Active; 'I' for Inactive)
REMARK    1  A    between atoms: C_1  and  C_2
REMARK    2  A    between atoms: C_5  and  N_6
REMARK    3  A    between atoms: C_12  and  C_13
REMARK                            x       y       z     vdW  Elec       q    Type
REMARK                         _______ _______ _______ _____ _____    ______ ____
ROOT
ATOM      1  N   UNL     1       0.844  10.721  18.088  0.00  0.00    +0.000 NA
ATOM      2  C   UNL     1       1.240   9.676  18.728  0.00  0.00    +0.000 C 
ATOM      3  N   UNL     1       0.992   9.327  20.020  0.00  0.00    +0.000 N 
ATOM      4  C   UNL     1       1.484   8.145  20.482  0.00  0.00    +0.000 C 
ATOM      5  O   UNL     1       1.310   7.699  21.605  0.00  0.00    +0.000 OA
ATOM      6  C   UNL     1       2.245   7.474  19.396  0.00  0.00    +0.000 C 
ATOM      7  C   UNL     1       2.817   6.275  19.568  0.00  0.00    +0.000 C 
ATOM      8  S   UNL     1       2.224   8.448  17.968  0.00  0.00    +0.000 S 
ATOM      9  H   UNL     1       0.416   9.924  20.603  0.00  0.00    +0.000 HD
ENDROOT
BRANCH   7  10
ATOM     10  C   UNL     1       3.552   5.566  18.517  0.00  0.00    +0.000 A 
ATOM     11  C   UNL     1       4.896   5.908  18.305  0.00  0.00    +0.000 A 
ATOM     12  C   UNL     1       5.664   5.214  17.368  0.00  0.00    +0.000 A 
ATOM     13  C   UNL     1       5.096   4.177  16.632  0.00  0.00    +0.000 A 
ATOM     14  C   UNL     1       3.755   3.838  16.822  0.00  0.00    +0.000 A 
ATOM     15  C   UNL     1       2.983   4.531  17.756  0.00  0.00    +0.000 A 
ATOM     16 CL   UNL     1       1.326   4.073  17.942  0.00  0.00    +0.000 Cl
ENDBRANCH   7  10
BRANCH   1  21
ATOM     17  C   UNL     1      -3.135  12.561  20.139  0.00  0.00    +0.000 C 
ATOM     18  C   UNL     1      -1.711  12.566  19.721  0.00  0.00    +0.000 A 
ATOM     19  C   UNL     1      -0.796  13.585  19.881  0.00  0.00    +0.000 A 
ATOM     20  S   UNL     1       0.713  13.128  19.212  0.00  0.00    +0.000 S 
ATOM     21  C   UNL     1       0.051  11.600  18.750  0.00  0.00    +0.000 A 
ATOM     22  N   UNL     1      -1.216  11.441  19.090  0.00  0.00    +0.000 NA
ENDBRANCH   1  21
TORSDOF 2
ENDMDL
MODEL 7
REMARK VINA RESULT:      -6.5      1.621      2.243
REMARK  Name = 
REMARK  3 active torsions:
REMARK  status: ('A' for Active; 'I' for Inactive)
REMARK    1  A    between atoms: C_1  and  C_2
REMARK    2  A    between atoms: C_5  and  N_6
REMARK    3  A    between atoms: C_12  and  C_13
REMARK                            x       y       z     vdW  Elec       q    Type
REMARK                         _______ _______ _______ _____ _____    ______ ____
ROOT
ATOM      1  N   UNL     1       1.577   9.588  17.692  0.00  0.00    +0.000 NA
ATOM      2  C   UNL     1       2.012   8.557  18.331  0.00  0.00    +0.000 C 
ATOM      3  N   UNL     1       1.464   7.933  19.409  0.00  0.00    +0.000 N 
ATOM      4  C   UNL     1       2.082   6.825  19.904  0.00  0.00    +0.000 C 
ATOM      5  O   UNL     1       1.683   6.156  20.842  0.00  0.00    +0.000 OA
ATOM      6  C   UNL     1       3.304   6.547  19.105  0.00  0.00    +0.000 C 
ATOM      7  C   UNL     1       4.091   5.494  19.357  0.00  0.00    +0.000 C 
ATOM      8  S   UNL     1       3.482   7.736  17.862  0.00  0.00    +0.000 S 
ATOM      9  H   UNL     1       0.593   8.272  19.800  0.00  0.00    +0.000 HD
ENDROOT
BRANCH   7  10
ATOM     10  C   UNL     1       5.289   5.168  18.578  0.00  0.00    +0.000 A 
ATOM     11  C   UNL     1       6.530   5.616  19.055  0.00  0.00    +0.000 A 
ATOM     12  C   UNL     1       7.710   5.273  18.393  0.00  0.00    +0.000 A 
ATOM     13  C   UNL     1       7.660   4.482  17.247  0.00  0.00    +0.000 A 
ATOM     14  C   UNL     1       6.431   4.045  16.752  0.00  0.00    +0.000 A 
ATOM     15  C   UNL     1       5.248   4.388  17.411  0.00  0.00    +0.000 A 
ATOM     16 CL   UNL     1       3.754   3.824  16.747  0.00  0.00    +0.000 Cl
ENDBRANCH   7  10
BRANCH   1  21
ATOM     17  C   UNL     1      -3.183  10.432  17.928  0.00  0.00    +0.000 C 
ATOM     18  C   UNL     1      -1.762  10.625  18.309  0.00  0.00    +0.000 A 
ATOM     19  C   UNL     1      -1.254  11.526  19.220  0.00  0.00    +0.000 A 
ATOM     20  S   UNL     1       0.451  11.388  19.294  0.00  0.00    +0.000 S 
ATOM     21  C   UNL     1       0.406  10.134  18.106  0.00  0.00    +0.000 A 
ATOM     22  N   UNL     1      -0.812   9.832  17.692  0.00  0.00    +0.000 NA
ENDBRANCH   1  21
TORSDOF 2
ENDMDL
MODEL 8
REMARK VINA RESULT:      -6.4      1.336      1.674
REMARK  Name = 
REMARK  3 active torsions:
REMARK  status: ('A' for Active; 'I' for Inactive)
REMARK    1  A    between atoms: C_1  and  C_2
REMARK    2  A    between atoms: C_5  and  N_6
REMARK    3  A    between atoms: C_12  and  C_13
REMARK                            x       y       z     vdW  Elec       q    Type
REMARK                         _______ _______ _______ _____ _____    ______ ____
ROOT
ATOM      1  N   UNL     1       1.370   9.945  18.201  0.00  0.00    +0.000 NA
ATOM      2  C   UNL     1       1.837   8.829  18.644  0.00  0.00    +0.000 C 
ATOM      3  N   UNL     1       1.503   8.161  19.782  0.00  0.00    +0.000 N 
ATOM      4  C   UNL     1       2.103   6.965  20.035  0.00  0.00    +0.000 C 
ATOM      5  O   UNL     1       1.874   6.252  20.998  0.00  0.00    +0.000 OA
ATOM      6  C   UNL     1       3.061   6.656  18.942  0.00  0.00    +0.000 C 
ATOM      7  C   UNL     1       3.772   5.522  18.922  0.00  0.00    +0.000 C 
ATOM      8  S   UNL     1       3.057   7.931  17.773  0.00  0.00    +0.000 S 
ATOM      9  H   UNL     1       0.791   8.536  20.397  0.00  0.00    +0.000 HD
ENDROOT
BRANCH   7  10
ATOM     10  C   UNL     1       4.707   5.165  17.851  0.00  0.00    +0.000 A 
ATOM     11  C   UNL     1       5.944   5.825  17.807  0.00  0.00    +0.000 A 
ATOM     12  C   UNL     1       6.900   5.474  16.852  0.00  0.00    +0.000 A 
ATOM     13  C   UNL     1       6.628   4.463  15.933  0.00  0.00    +0.000 A 
ATOM     14  C   UNL     1       5.395   3.812  15.955  0.00  0.00    +0.000 A 
ATOM     15  C   UNL     1       4.434   4.162  16.907  0.00  0.00    +0.000 A 
ATOM     16 CL   UNL     1       2.921   3.324  16.881  0.00  0.00    +0.000 Cl
ENDBRANCH   7  10
BRANCH   1  21
ATOM     17  C   UNL     1      -0.801  12.058  21.976  0.00  0.00    +0.000 C 
ATOM     18  C   UNL     1      -0.723  11.528  20.592  0.00  0.00    +0.000 A 
ATOM     19  C   UNL     1      -1.735  11.478  19.656  0.00  0.00    +0.000 A 
ATOM     20  S   UNL     1      -1.164  10.753  18.213  0.00  0.00    +0.000 S 
ATOM     21  C   UNL     1       0.397  10.550  18.927  0.00  0.00    +0.000 A 
ATOM     22  N   UNL     1       0.484  11.010  20.162  0.00  0.00    +0.000 NA
ENDBRANCH   1  21
TORSDOF 2
ENDMDL
MODEL 9
REMARK VINA RESULT:      -6.4      3.092      7.863
REMARK  Name = 
REMARK  3 active torsions:
REMARK  status: ('A' for Active; 'I' for Inactive)
REMARK    1  A    between atoms: C_1  and  C_2
REMARK    2  A    between atoms: C_5  and  N_6
REMARK    3  A    between atoms: C_12  and  C_13
REMARK                            x       y       z     vdW  Elec       q    Type
REMARK                         _______ _______ _______ _____ _____    ______ ____
ROOT
ATOM      1  N   UNL     1       3.371   7.065  17.382  0.00  0.00    +0.000 NA
ATOM      2  C   UNL     1       2.656   7.615  18.302  0.00  0.00    +0.000 C 
ATOM      3  N   UNL     1       2.322   7.123  19.526  0.00  0.00    +0.000 N 
ATOM      4  C   UNL     1       1.581   7.901  20.362  0.00  0.00    +0.000 C 
ATOM      5  O   UNL     1       1.240   7.595  21.493  0.00  0.00    +0.000 OA
ATOM      6  C   UNL     1       1.274   9.189  19.687  0.00  0.00    +0.000 C 
ATOM      7  C   UNL     1       0.578  10.158  20.294  0.00  0.00    +0.000 C 
ATOM      8  S   UNL     1       1.964   9.208  18.102  0.00  0.00    +0.000 S 
ATOM      9  H   UNL     1       2.660   6.212  19.813  0.00  0.00    +0.000 HD
ENDROOT
BRANCH   7  10
ATOM     10  C   UNL     1       0.276  11.453  19.677  0.00  0.00    +0.000 A 
ATOM     11  C   UNL     1       1.094  12.546  20.001  0.00  0.00    +0.000 A 
ATOM     12  C   UNL     1       0.897  13.785  19.388  0.00  0.00    +0.000 A 
ATOM     13  C   UNL     1      -0.120  13.943  18.448  0.00  0.00    +0.000 A 
ATOM     14  C   UNL     1      -0.951  12.868  18.130  0.00  0.00    +0.000 A 
ATOM     15  C   UNL     1      -0.759  11.628  18.744  0.00  0.00    +0.000 A 
ATOM     16 CL   UNL     1      -1.825  10.336  18.315  0.00  0.00    +0.000 Cl
ENDBRANCH   7  10
BRANCH   1  21
ATOM     17  C   UNL     1       3.589   2.263  17.947  0.00  0.00    +0.000 C 
ATOM     18  C   UNL     1       4.132   3.644  17.948  0.00  0.00    +0.000 A 
ATOM     19  C   UNL     1       5.404   4.043  18.298  0.00  0.00    +0.000 A 
ATOM     20  S   UNL     1       5.544   5.744  18.162  0.00  0.00    +0.000 S 
ATOM     21  C   UNL     1       3.898   5.843  17.644  0.00  0.00    +0.000 A 
ATOM     22  N   UNL     1       3.291   4.673  17.566  0.00  0.00    +0.000 NA
ENDBRANCH   1  21
TORSDOF 2
ENDMDL
