MODEL 1
REMARK VINA RESULT:      -7.1      0.000      0.000
REMARK  Name = 
REMARK  6 active torsions:
REMARK  status: ('A' for Active; 'I' for Inactive)
REMARK    1  A    between atoms: C_1  and  C_2
REMARK    2  A    between atoms: C_2  and  O_3
REMARK    3  A    between atoms: O_3  and  C_4
REMARK    4  A    between atoms: C_6  and  N_7
REMARK    5  A    between atoms: N_10  and  C_11
REMARK    6  A    between atoms: C_16  and  C_17
REMARK                            x       y       z     vdW  Elec       q    Type
REMARK                         _______ _______ _______ _____ _____    ______ ____
ROOT
ATOM      1  N   UNL     1       1.524   7.398  21.170  0.00  0.00    +0.000 N 
ATOM      2  C   UNL     1       2.181   7.108  19.991  0.00  0.00    +0.000 C 
ATOM      3  O   UNL     1       2.167   7.894  19.048  0.00  0.00    +0.000 OA
ATOM      4  N   UNL     1       2.781   5.862  19.999  0.00  0.00    +0.000 N 
ATOM      5  H   UNL     1       1.893   6.942  21.995  0.00  0.00    +0.000 HD
ATOM      6  H   UNL     1       2.429   5.207  20.681  0.00  0.00    +0.000 HD
ENDROOT
BRANCH   4   7
ATOM      7  C   UNL     1       3.517   5.329  18.911  0.00  0.00    +0.000 A 
ATOM      8  C   UNL     1       2.980   4.370  18.047  0.00  0.00    +0.000 A 
ATOM      9  C   UNL     1       3.770   3.774  17.072  0.00  0.00    +0.000 A 
ATOM     10  C   UNL     1       5.100   4.149  16.939  0.00  0.00    +0.000 A 
ATOM     11  F   UNL     1       5.852   3.509  16.029  0.00  0.00    +0.000 F 
ATOM     12  C   UNL     1       5.674   5.148  17.738  0.00  0.00    +0.000 A 
ATOM     13  C   UNL     1       4.845   5.745  18.717  0.00  0.00    +0.000 A 
BRANCH  12  14
ATOM     14  C   UNL     1       7.142   5.491  17.628  0.00  0.00    +0.000 C 
ATOM     15  C   UNL     1       7.595   6.904  17.344  0.00  0.00    +0.000 C 
ATOM     16  C   UNL     1       7.824   6.307  18.698  0.00  0.00    +0.000 C 
ENDBRANCH  12  14
ENDBRANCH   4   7
BRANCH   1  19
ATOM     17  C   UNL     1      -0.279   9.942  22.659  0.00  0.00    +0.000 C 
ATOM     18  C   UNL     1      -0.593   8.672  21.836  0.00  0.00    +0.000 C 
ATOM     19  C   UNL     1       0.868   8.723  21.322  0.00  0.00    +0.000 C 
ATOM     20  C   UNL     1       1.209   9.498  22.610  0.00  0.00    +0.000 C 
BRANCH  17  21
ATOM     21  O   UNL     1      -0.584  11.212  22.033  0.00  0.00    +0.000 OA
BRANCH  21  23
ATOM     22  C   UNL     1      -2.566  11.878  23.221  0.00  0.00    +0.000 C 
ATOM     23  C   UNL     1      -1.122  12.212  22.900  0.00  0.00    +0.000 C 
ENDBRANCH  21  23
ENDBRANCH  17  21
ENDBRANCH   1  19
TORSDOF 5
ENDMDL
MODEL 2
REMARK VINA RESULT:      -6.7      0.894      1.020
REMARK  Name = 
REMARK  6 active torsions:
REMARK  status: ('A' for Active; 'I' for Inactive)
REMARK    1  A    between atoms: C_1  and  C_2
REMARK    2  A    between atoms: C_2  and  O_3
REMARK    3  A    between atoms: O_3  and  C_4
REMARK    4  A    between atoms: C_6  and  N_7
REMARK    5  A    between atoms: N_10  and  C_11
REMARK    6  A    between atoms: C_16  and  C_17
REMARK                            x       y       z     vdW  Elec       q    Type
REMARK                         _______ _______ _______ _____ _____    ______ ____
ROOT
ATOM      1  N   UNL     1       1.370   7.761  21.544  0.00  0.00    +0.000 N 
ATOM      2  C   UNL     1       2.009   7.408  20.372  0.00  0.00    +0.000 C 
ATOM      3  O   UNL     1       2.201   8.231  19.482  0.00  0.00    +0.000 OA
ATOM      4  N   UNL     1       2.341   6.067  20.320  0.00  0.00    +0.000 N 
ATOM      5  H   UNL     1       1.598   7.193  22.350  0.00  0.00    +0.000 HD
ATOM      6  H   UNL     1       1.830   5.462  20.946  0.00  0.00    +0.000 HD
ENDROOT
BRANCH   4   7
ATOM      7  C   UNL     1       3.003   5.454  19.227  0.00  0.00    +0.000 A 
ATOM      8  C   UNL     1       2.316   4.718  18.258  0.00  0.00    +0.000 A 
ATOM      9  C   UNL     1       3.008   4.024  17.274  0.00  0.00    +0.000 A 
ATOM     10  C   UNL     1       4.395   4.078  17.238  0.00  0.00    +0.000 A 
ATOM     11  F   UNL     1       5.036   3.346  16.313  0.00  0.00    +0.000 F 
ATOM     12  C   UNL     1       5.132   4.850  18.148  0.00  0.00    +0.000 A 
ATOM     13  C   UNL     1       4.402   5.554  19.134  0.00  0.00    +0.000 A 
BRANCH  12  14
ATOM     14  C   UNL     1       6.644   4.839  18.139  0.00  0.00    +0.000 C 
ATOM     15  C   UNL     1       7.430   6.041  17.669  0.00  0.00    +0.000 C 
ATOM     16  C   UNL     1       7.425   5.677  19.122  0.00  0.00    +0.000 C 
ENDBRANCH  12  14
ENDBRANCH   4   7
BRANCH   1  19
ATOM     17  C   UNL     1      -0.601  10.474  22.375  0.00  0.00    +0.000 C 
ATOM     18  C   UNL     1      -0.358   9.601  21.124  0.00  0.00    +0.000 C 
ATOM     19  C   UNL     1       0.992   9.183  21.758  0.00  0.00    +0.000 C 
ATOM     20  C   UNL     1       0.360   9.512  23.125  0.00  0.00    +0.000 C 
BRANCH  17  21
ATOM     21  O   UNL     1      -0.177  11.857  22.293  0.00  0.00    +0.000 OA
BRANCH  21  23
ATOM     22  C   UNL     1      -1.147  13.800  21.259  0.00  0.00    +0.000 C 
ATOM     23  C   UNL     1      -1.218  12.828  22.420  0.00  0.00    +0.000 C 
ENDBRANCH  21  23
ENDBRANCH  17  21
ENDBRANCH   1  19
TORSDOF 5
ENDMDL
MODEL 3
REMARK VINA RESULT:      -6.5      1.988      3.436
REMARK  Name = 
REMARK  6 active torsions:
REMARK  status: ('A' for Active; 'I' for Inactive)
REMARK    1  A    between atoms: C_1  and  C_2
REMARK    2  A    between atoms: C_2  and  O_3
REMARK    3  A    between atoms: O_3  and  C_4
REMARK    4  A    between atoms: C_6  and  N_7
REMARK    5  A    between atoms: N_10  and  C_11
REMARK    6  A    between atoms: C_16  and  C_17
REMARK                            x       y       z     vdW  Elec       q    Type
REMARK                         _______ _______ _______ _____ _____    ______ ____
ROOT
ATOM      1  N   UNL     1       1.380   9.614  19.137  0.00  0.00    +0.000 N 
ATOM      2  C   UNL     1       1.929   8.353  19.243  0.00  0.00    +0.000 C 
ATOM      3  O   UNL     1       2.037   7.797  20.333  0.00  0.00    +0.000 OA
ATOM      4  N   UNL     1       2.365   7.849  18.031  0.00  0.00    +0.000 N 
ATOM      5  H   UNL     1       0.962   9.831  18.241  0.00  0.00    +0.000 HD
ATOM      6  H   UNL     1       2.527   8.529  17.303  0.00  0.00    +0.000 HD
ENDROOT
BRANCH   4   7
ATOM      7  C   UNL     1       2.965   6.575  17.870  0.00  0.00    +0.000 A 
ATOM      8  C   UNL     1       4.280   6.423  17.420  0.00  0.00    +0.000 A 
ATOM      9  C   UNL     1       4.794   5.161  17.150  0.00  0.00    +0.000 A 
ATOM     10  C   UNL     1       4.002   4.037  17.349  0.00  0.00    +0.000 A 
ATOM     11  F   UNL     1       4.508   2.838  17.020  0.00  0.00    +0.000 F 
ATOM     12  C   UNL     1       2.698   4.128  17.857  0.00  0.00    +0.000 A 
ATOM     13  C   UNL     1       2.202   5.424  18.131  0.00  0.00    +0.000 A 
BRANCH  12  14
ATOM     14  C   UNL     1       1.827   2.900  17.998  0.00  0.00    +0.000 C 
ATOM     15  C   UNL     1       1.885   2.041  19.240  0.00  0.00    +0.000 C 
ATOM     16  C   UNL     1       0.675   2.883  18.973  0.00  0.00    +0.000 C 
ENDBRANCH  12  14
ENDBRANCH   4   7
BRANCH   1  19
ATOM     17  C   UNL     1      -0.430  11.853  21.048  0.00  0.00    +0.000 C 
ATOM     18  C   UNL     1       0.967  11.808  20.389  0.00  0.00    +0.000 C 
ATOM     19  C   UNL     1       0.829  10.265  20.355  0.00  0.00    +0.000 C 
ATOM     20  C   UNL     1      -0.697  10.482  20.370  0.00  0.00    +0.000 C 
BRANCH  17  21
ATOM     21  O   UNL     1      -0.463  11.862  22.496  0.00  0.00    +0.000 OA
BRANCH  21  23
ATOM     22  C   UNL     1      -2.679  12.362  23.287  0.00  0.00    +0.000 C 
ATOM     23  C   UNL     1      -1.269  12.883  23.087  0.00  0.00    +0.000 C 
ENDBRANCH  21  23
ENDBRANCH  17  21
ENDBRANCH   1  19
TORSDOF 5
ENDMDL
MODEL 4
REMARK VINA RESULT:      -6.5      4.816      7.660
REMARK  Name = 
REMARK  6 active torsions:
REMARK  status: ('A' for Active; 'I' for Inactive)
REMARK    1  A    between atoms: C_1  and  C_2
REMARK    2  A    between atoms: C_2  and  O_3
REMARK    3  A    between atoms: O_3  and  C_4
REMARK    4  A    between atoms: C_6  and  N_7
REMARK    5  A    between atoms: N_10  and  C_11
REMARK    6  A    between atoms: C_16  and  C_17
REMARK                            x       y       z     vdW  Elec       q    Type
REMARK                         _______ _______ _______ _____ _____    ______ ____
ROOT
ATOM      1  N   UNL     1       8.932   8.961  18.951  0.00  0.00    +0.000 N 
ATOM      2  C   UNL     1       8.000   8.310  18.168  0.00  0.00    +0.000 C 
ATOM      3  O   UNL     1       7.285   8.930  17.386  0.00  0.00    +0.000 OA
ATOM      4  N   UNL     1       7.948   6.949  18.408  0.00  0.00    +0.000 N 
ATOM      5  H   UNL     1       9.721   8.398  19.243  0.00  0.00    +0.000 HD
ATOM      6  H   UNL     1       8.330   6.642  19.290  0.00  0.00    +0.000 HD
ENDROOT
BRANCH   4   7
ATOM      7  C   UNL     1       7.077   6.057  17.735  0.00  0.00    +0.000 A 
ATOM      8  C   UNL     1       7.513   5.234  16.693  0.00  0.00    +0.000 A 
ATOM      9  C   UNL     1       6.607   4.467  15.970  0.00  0.00    +0.000 A 
ATOM     10  C   UNL     1       5.259   4.501  16.298  0.00  0.00    +0.000 A 
ATOM     11  F   UNL     1       4.403   3.797  15.541  0.00  0.00    +0.000 F 
ATOM     12  C   UNL     1       4.775   5.261  17.373  0.00  0.00    +0.000 A 
ATOM     13  C   UNL     1       5.719   6.025  18.098  0.00  0.00    +0.000 A 
BRANCH  12  14
ATOM     14  C   UNL     1       3.295   5.342  17.670  0.00  0.00    +0.000 C 
ATOM     15  C   UNL     1       2.616   4.309  18.539  0.00  0.00    +0.000 C 
ATOM     16  C   UNL     1       2.806   5.703  19.052  0.00  0.00    +0.000 C 
ENDBRANCH  12  14
ENDBRANCH   4   7
BRANCH   1  19
ATOM     17  C   UNL     1      10.556  12.011  18.947  0.00  0.00    +0.000 C 
ATOM     18  C   UNL     1       9.789  11.145  19.972  0.00  0.00    +0.000 C 
ATOM     19  C   UNL     1       9.129  10.423  18.771  0.00  0.00    +0.000 C 
ATOM     20  C   UNL     1      10.364  10.839  17.946  0.00  0.00    +0.000 C 
BRANCH  17  21
ATOM     21  O   UNL     1       9.943  13.270  18.576  0.00  0.00    +0.000 OA
BRANCH  21  23
ATOM     22  C   UNL     1      11.377  14.667  19.909  0.00  0.00    +0.000 C 
ATOM     23  C   UNL     1      10.827  14.392  18.524  0.00  0.00    +0.000 C 
ENDBRANCH  21  23
ENDBRANCH  17  21
ENDBRANCH   1  19
TORSDOF 5
ENDMDL
MODEL 5
REMARK VINA RESULT:      -6.4      5.837      7.650
REMARK  Name = 
REMARK  6 active torsions:
REMARK  status: ('A' for Active; 'I' for Inactive)
REMARK    1  A    between atoms: C_1  and  C_2
REMARK    2  A    between atoms: C_2  and  O_3
REMARK    3  A    between atoms: O_3  and  C_4
REMARK    4  A    between atoms: C_6  and  N_7
REMARK    5  A    between atoms: N_10  and  C_11
REMARK    6  A    between atoms: C_16  and  C_17
REMARK                            x       y       z     vdW  Elec       q    Type
REMARK                         _______ _______ _______ _____ _____    ______ ____
ROOT
ATOM      1  N   UNL     1       9.201   9.301  18.841  0.00  0.00    +0.000 N 
ATOM      2  C   UNL     1       8.163   8.550  18.327  0.00  0.00    +0.000 C 
ATOM      3  O   UNL     1       7.286   9.067  17.641  0.00  0.00    +0.000 OA
ATOM      4  N   UNL     1       8.215   7.222  18.710  0.00  0.00    +0.000 N 
ATOM      5  H   UNL     1      10.054   8.789  19.029  0.00  0.00    +0.000 HD
ATOM      6  H   UNL     1       8.772   7.020  19.527  0.00  0.00    +0.000 HD
ENDROOT
BRANCH   4   7
ATOM      7  C   UNL     1       7.268   6.245  18.316  0.00  0.00    +0.000 A 
ATOM      8  C   UNL     1       6.320   5.726  19.203  0.00  0.00    +0.000 A 
ATOM      9  C   UNL     1       5.492   4.677  18.821  0.00  0.00    +0.000 A 
ATOM     10  C   UNL     1       5.590   4.153  17.539  0.00  0.00    +0.000 A 
ATOM     11  F   UNL     1       4.820   3.101  17.223  0.00  0.00    +0.000 F 
ATOM     12  C   UNL     1       6.481   4.676  16.590  0.00  0.00    +0.000 A 
ATOM     13  C   UNL     1       7.306   5.748  17.002  0.00  0.00    +0.000 A 
BRANCH  12  14
ATOM     14  C   UNL     1       6.624   4.045  15.223  0.00  0.00    +0.000 C 
ATOM     15  C   UNL     1       5.631   4.334  14.122  0.00  0.00    +0.000 C 
ATOM     16  C   UNL     1       7.023   4.879  14.030  0.00  0.00    +0.000 C 
ENDBRANCH  12  14
ENDBRANCH   4   7
BRANCH   1  19
ATOM     17  C   UNL     1      10.448  12.523  18.772  0.00  0.00    +0.000 C 
ATOM     18  C   UNL     1       9.500  11.701  19.675  0.00  0.00    +0.000 C 
ATOM     19  C   UNL     1       9.299  10.739  18.478  0.00  0.00    +0.000 C 
ATOM     20  C   UNL     1      10.675  11.213  17.970  0.00  0.00    +0.000 C 
BRANCH  17  21
ATOM     21  O   UNL     1       9.853  13.621  18.038  0.00  0.00    +0.000 OA
BRANCH  21  23
ATOM     22  C   UNL     1      10.830  15.284  19.474  0.00  0.00    +0.000 C 
ATOM     23  C   UNL     1      10.598  14.840  18.043  0.00  0.00    +0.000 C 
ENDBRANCH  21  23
ENDBRANCH  17  21
ENDBRANCH   1  19
TORSDOF 5
ENDMDL
MODEL 6
REMARK VINA RESULT:      -6.4      2.800      3.859
REMARK  Name = 
REMARK  6 active torsions:
REMARK  status: ('A' for Active; 'I' for Inactive)
REMARK    1  A    between atoms: C_1  and  C_2
REMARK    2  A    between atoms: C_2  and  O_3
REMARK    3  A    between atoms: O_3  and  C_4
REMARK    4  A    between atoms: C_6  and  N_7
REMARK    5  A    between atoms: N_10  and  C_11
REMARK    6  A    between atoms: C_16  and  C_17
REMARK                            x       y       z     vdW  Elec       q    Type
REMARK                         _______ _______ _______ _____ _____    ______ ____
ROOT
ATOM      1  N   UNL     1       1.118   9.617  19.325  0.00  0.00    +0.000 N 
ATOM      2  C   UNL     1       1.844   8.843  18.444  0.00  0.00    +0.000 C 
ATOM      3  O   UNL     1       2.048   9.215  17.292  0.00  0.00    +0.000 OA
ATOM      4  N   UNL     1       2.246   7.636  18.988  0.00  0.00    +0.000 N 
ATOM      5  H   UNL     1       1.325   9.468  20.305  0.00  0.00    +0.000 HD
ATOM      6  H   UNL     1       1.730   7.324  19.797  0.00  0.00    +0.000 HD
ENDROOT
BRANCH   4   7
ATOM      7  C   UNL     1       3.004   6.664  18.289  0.00  0.00    +0.000 A 
ATOM      8  C   UNL     1       4.157   6.993  17.571  0.00  0.00    +0.000 A 
ATOM      9  C   UNL     1       4.803   6.041  16.793  0.00  0.00    +0.000 A 
ATOM     10  C   UNL     1       4.312   4.742  16.744  0.00  0.00    +0.000 A 
ATOM     11  F   UNL     1       4.923   3.863  15.935  0.00  0.00    +0.000 F 
ATOM     12  C   UNL     1       3.195   4.343  17.492  0.00  0.00    +0.000 A 
ATOM     13  C   UNL     1       2.562   5.330  18.282  0.00  0.00    +0.000 A 
BRANCH  12  14
ATOM     14  C   UNL     1       2.633   2.945  17.369  0.00  0.00    +0.000 C 
ATOM     15  C   UNL     1       3.110   1.829  18.270  0.00  0.00    +0.000 C 
ATOM     16  C   UNL     1       1.728   2.383  18.440  0.00  0.00    +0.000 C 
ENDBRANCH  12  14
ENDBRANCH   4   7
BRANCH   1  19
ATOM     17  C   UNL     1       0.085  12.904  19.592  0.00  0.00    +0.000 C 
ATOM     18  C   UNL     1      -0.574  11.508  19.659  0.00  0.00    +0.000 C 
ATOM     19  C   UNL     1       0.656  10.962  18.891  0.00  0.00    +0.000 C 
ATOM     20  C   UNL     1       1.442  12.159  19.461  0.00  0.00    +0.000 C 
BRANCH  17  21
ATOM     21  O   UNL     1      -0.288  13.744  18.473  0.00  0.00    +0.000 OA
BRANCH  21  23
ATOM     22  C   UNL     1      -0.905  15.491  20.006  0.00  0.00    +0.000 C 
ATOM     23  C   UNL     1      -0.205  15.151  18.705  0.00  0.00    +0.000 C 
ENDBRANCH  21  23
ENDBRANCH  17  21
ENDBRANCH   1  19
TORSDOF 5
ENDMDL
MODEL 7
REMARK VINA RESULT:      -6.3      4.428      9.116
REMARK  Name = 
REMARK  6 active torsions:
REMARK  status: ('A' for Active; 'I' for Inactive)
REMARK    1  A    between atoms: C_1  and  C_2
REMARK    2  A    between atoms: C_2  and  O_3
REMARK    3  A    between atoms: O_3  and  C_4
REMARK    4  A    between atoms: C_6  and  N_7
REMARK    5  A    between atoms: N_10  and  C_11
REMARK    6  A    between atoms: C_16  and  C_17
REMARK                            x       y       z     vdW  Elec       q    Type
REMARK                         _______ _______ _______ _____ _____    ______ ____
ROOT
ATOM      1  N   UNL     1       3.241   7.275  18.228  0.00  0.00    +0.000 N 
ATOM      2  C   UNL     1       2.422   8.373  18.059  0.00  0.00    +0.000 C 
ATOM      3  O   UNL     1       2.477   9.054  17.039  0.00  0.00    +0.000 OA
ATOM      4  N   UNL     1       1.614   8.619  19.154  0.00  0.00    +0.000 N 
ATOM      5  H   UNL     1       2.885   6.562  18.852  0.00  0.00    +0.000 HD
ATOM      6  H   UNL     1       1.913   8.205  20.025  0.00  0.00    +0.000 HD
ENDROOT
BRANCH   4   7
ATOM      7  C   UNL     1       0.684   9.685  19.232  0.00  0.00    +0.000 A 
ATOM      8  C   UNL     1       0.783  10.692  20.197  0.00  0.00    +0.000 A 
ATOM      9  C   UNL     1      -0.215  11.649  20.327  0.00  0.00    +0.000 A 
ATOM     10  C   UNL     1      -1.312  11.621  19.477  0.00  0.00    +0.000 A 
ATOM     11  F   UNL     1      -2.288  12.522  19.670  0.00  0.00    +0.000 F 
ATOM     12  C   UNL     1      -1.433  10.671  18.452  0.00  0.00    +0.000 A 
ATOM     13  C   UNL     1      -0.399   9.713  18.336  0.00  0.00    +0.000 A 
BRANCH  12  14
ATOM     14  C   UNL     1      -2.669  10.611  17.583  0.00  0.00    +0.000 C 
ATOM     15  C   UNL     1      -2.695  11.255  16.217  0.00  0.00    +0.000 C 
ATOM     16  C   UNL     1      -2.692   9.762  16.336  0.00  0.00    +0.000 C 
ENDBRANCH  12  14
ENDBRANCH   4   7
BRANCH   1  19
ATOM     17  C   UNL     1       5.860   5.694  16.623  0.00  0.00    +0.000 C 
ATOM     18  C   UNL     1       5.650   7.008  17.408  0.00  0.00    +0.000 C 
ATOM     19  C   UNL     1       4.136   6.865  17.114  0.00  0.00    +0.000 C 
ATOM     20  C   UNL     1       4.387   5.350  16.976  0.00  0.00    +0.000 C 
BRANCH  17  21
ATOM     21  O   UNL     1       6.160   5.823  15.211  0.00  0.00    +0.000 OA
BRANCH  21  23
ATOM     22  C   UNL     1       6.112   3.900  13.768  0.00  0.00    +0.000 C 
ATOM     23  C   UNL     1       6.967   4.783  14.656  0.00  0.00    +0.000 C 
ENDBRANCH  21  23
ENDBRANCH  17  21
ENDBRANCH   1  19
TORSDOF 5
ENDMDL
MODEL 8
REMARK VINA RESULT:      -6.3      4.730      7.805
REMARK  Name = 
REMARK  6 active torsions:
REMARK  status: ('A' for Active; 'I' for Inactive)
REMARK    1  A    between atoms: C_1  and  C_2
REMARK    2  A    between atoms: C_2  and  O_3
REMARK    3  A    between atoms: O_3  and  C_4
REMARK    4  A    between atoms: C_6  and  N_7
REMARK    5  A    between atoms: N_10  and  C_11
REMARK    6  A    between atoms: C_16  and  C_17
REMARK                            x       y       z     vdW  Elec       q    Type
REMARK                         _______ _______ _______ _____ _____    ______ ____
ROOT
ATOM      1  N   UNL     1       8.116   9.454  17.663  0.00  0.00    +0.000 N 
ATOM      2  C   UNL     1       7.746   8.138  17.850  0.00  0.00    +0.000 C 
ATOM      3  O   UNL     1       8.394   7.395  18.581  0.00  0.00    +0.000 OA
ATOM      4  N   UNL     1       6.638   7.777  17.106  0.00  0.00    +0.000 N 
ATOM      5  H   UNL     1       7.366  10.083  17.406  0.00  0.00    +0.000 HD
ATOM      6  H   UNL     1       6.427   8.366  16.314  0.00  0.00    +0.000 HD
ENDROOT
BRANCH   4   7
ATOM      7  C   UNL     1       6.058   6.484  17.121  0.00  0.00    +0.000 A 
ATOM      8  C   UNL     1       6.628   5.404  16.441  0.00  0.00    +0.000 A 
ATOM      9  C   UNL     1       5.968   4.184  16.369  0.00  0.00    +0.000 A 
ATOM     10  C   UNL     1       4.739   4.027  16.997  0.00  0.00    +0.000 A 
ATOM     11  F   UNL     1       4.099   2.856  16.855  0.00  0.00    +0.000 F 
ATOM     12  C   UNL     1       4.150   5.058  17.743  0.00  0.00    +0.000 A 
ATOM     13  C   UNL     1       4.848   6.287  17.808  0.00  0.00    +0.000 A 
BRANCH  12  14
ATOM     14  C   UNL     1       2.779   4.892  18.359  0.00  0.00    +0.000 C 
ATOM     15  C   UNL     1       2.614   4.382  19.771  0.00  0.00    +0.000 C 
ATOM     16  C   UNL     1       2.313   5.815  19.458  0.00  0.00    +0.000 C 
ENDBRANCH  12  14
ENDBRANCH   4   7
BRANCH   1  19
ATOM     17  C   UNL     1      10.182  11.800  19.136  0.00  0.00    +0.000 C 
ATOM     18  C   UNL     1      10.027  11.154  17.741  0.00  0.00    +0.000 C 
ATOM     19  C   UNL     1       9.267   9.995  18.432  0.00  0.00    +0.000 C 
ATOM     20  C   UNL     1       8.917  10.999  19.549  0.00  0.00    +0.000 C 
BRANCH  17  21
ATOM     21  O   UNL     1      11.396  11.488  19.863  0.00  0.00    +0.000 OA
BRANCH  21  23
ATOM     22  C   UNL     1      12.118  13.565  18.890  0.00  0.00    +0.000 C 
ATOM     23  C   UNL     1      12.316  12.571  20.017  0.00  0.00    +0.000 C 
ENDBRANCH  21  23
ENDBRANCH  17  21
ENDBRANCH   1  19
TORSDOF 5
ENDMDL
MODEL 9
REMARK VINA RESULT:      -6.3      6.283      9.092
REMARK  Name = 
REMARK  6 active torsions:
REMARK  status: ('A' for Active; 'I' for Inactive)
REMARK    1  A    between atoms: C_1  and  C_2
REMARK    2  A    between atoms: C_2  and  O_3
REMARK    3  A    between atoms: O_3  and  C_4
REMARK    4  A    between atoms: C_6  and  N_7
REMARK    5  A    between atoms: N_10  and  C_11
REMARK    6  A    between atoms: C_16  and  C_17
REMARK                            x       y       z     vdW  Elec       q    Type
REMARK                         _______ _______ _______ _____ _____    ______ ____
ROOT
ATOM      1  N   UNL     1       8.151   6.979  18.553  0.00  0.00    +0.000 N 
ATOM      2  C   UNL     1       8.186   8.347  18.370  0.00  0.00    +0.000 C 
ATOM      3  O   UNL     1       7.444   8.898  17.562  0.00  0.00    +0.000 OA
ATOM      4  N   UNL     1       9.151   8.970  19.141  0.00  0.00    +0.000 N 
ATOM      5  H   UNL     1       8.460   6.655  19.461  0.00  0.00    +0.000 HD
ATOM      6  H   UNL     1       9.893   8.378  19.483  0.00  0.00    +0.000 HD
ENDROOT
BRANCH   4   7
ATOM      7  C   UNL     1       9.388  10.367  19.137  0.00  0.00    +0.000 A 
ATOM      8  C   UNL     1       9.781  11.053  17.984  0.00  0.00    +0.000 A 
ATOM      9  C   UNL     1      10.131  12.396  18.043  0.00  0.00    +0.000 A 
ATOM     10  C   UNL     1      10.070  13.072  19.255  0.00  0.00    +0.000 A 
ATOM     11  F   UNL     1      10.474  14.351  19.291  0.00  0.00    +0.000 F 
ATOM     12  C   UNL     1       9.625  12.448  20.431  0.00  0.00    +0.000 A 
ATOM     13  C   UNL     1       9.267  11.083  20.340  0.00  0.00    +0.000 A 
BRANCH  12  14
ATOM     14  C   UNL     1       9.635  13.179  21.754  0.00  0.00    +0.000 C 
ATOM     15  C   UNL     1       8.442  13.988  22.208  0.00  0.00    +0.000 C 
ATOM     16  C   UNL     1       8.778  12.703  22.902  0.00  0.00    +0.000 C 
ENDBRANCH  12  14
ENDBRANCH   4   7
BRANCH   1  19
ATOM     17  C   UNL     1       5.953   4.394  17.897  0.00  0.00    +0.000 C 
ATOM     18  C   UNL     1       7.459   4.673  17.688  0.00  0.00    +0.000 C 
ATOM     19  C   UNL     1       7.133   6.181  17.821  0.00  0.00    +0.000 C 
ATOM     20  C   UNL     1       5.895   5.759  18.637  0.00  0.00    +0.000 C 
BRANCH  17  21
ATOM     21  O   UNL     1       5.142   4.285  16.702  0.00  0.00    +0.000 OA
BRANCH  21  23
ATOM     22  C   UNL     1       3.825   2.683  17.918  0.00  0.00    +0.000 C 
ATOM     23  C   UNL     1       3.810   3.809  16.903  0.00  0.00    +0.000 C 
ENDBRANCH  21  23
ENDBRANCH  17  21
ENDBRANCH   1  19
TORSDOF 5
ENDMDL
