MODEL 1
REMARK VINA RESULT:      -7.0      0.000      0.000
REMARK  Name = 
REMARK  5 active torsions:
REMARK  status: ('A' for Active; 'I' for Inactive)
REMARK    1  A    between atoms: C_1  and  N_2
REMARK    2  A    between atoms: N_2  and  N_3
REMARK    3  A    between atoms: C_4  and  C_5
REMARK    4  A    between atoms: C_8  and  O_9
REMARK    5  A    between atoms: O_9  and  C_10
REMARK                            x       y       z     vdW  Elec       q    Type
REMARK                         _______ _______ _______ _____ _____    ______ ____
ROOT
ATOM      1  C   UNL     1       7.420   6.842  17.941  0.00  0.00    +0.000 A 
ATOM      2  C   UNL     1       7.585   5.515  18.349  0.00  0.00    +0.000 A 
ATOM      3  C   UNL     1       6.701   4.534  17.894  0.00  0.00    +0.000 A 
ATOM      4  C   UNL     1       5.657   4.878  17.033  0.00  0.00    +0.000 A 
ATOM      5  C   UNL     1       5.539   6.193  16.571  0.00  0.00    +0.000 A 
ATOM      6  C   UNL     1       6.403   7.183  17.048  0.00  0.00    +0.000 A 
ENDROOT
BRANCH   1   8
ATOM      7  N   UNL     1       8.212   9.124  18.029  0.00  0.00    +0.000 NA
ATOM      8  C   UNL     1       8.315   7.899  18.441  0.00  0.00    +0.000 C 
BRANCH   7  10
ATOM      9  C   UNL     1       9.019  11.353  18.123  0.00  0.00    +0.000 C 
ATOM     10  N   UNL     1       9.104   9.974  18.587  0.00  0.00    +0.000 N 
ATOM     11  H   UNL     1       9.049   9.966  19.608  0.00  0.00    +0.000 HD
ENDBRANCH   7  10
ENDBRANCH   1   8
BRANCH   4  12
ATOM     12  O   UNL     1       4.834   3.845  16.648  0.00  0.00    +0.000 OA
BRANCH  12  13
ATOM     13  C   UNL     1       3.668   3.593  17.335  0.00  0.00    +0.000 A 
ATOM     14  C   UNL     1       3.548   2.305  17.867  0.00  0.00    +0.000 A 
ATOM     15  C   UNL     1       2.398   1.944  18.573  0.00  0.00    +0.000 A 
ATOM     16  C   UNL     1       1.378   2.870  18.740  0.00  0.00    +0.000 A 
ATOM     17  F   UNL     1       0.263   2.517  19.390  0.00  0.00    +0.000 F 
ATOM     18  C   UNL     1       1.500   4.166  18.245  0.00  0.00    +0.000 A 
ATOM     19  C   UNL     1       2.660   4.536  17.565  0.00  0.00    +0.000 A 
ENDBRANCH  12  13
ENDBRANCH   4  12
TORSDOF 4
ENDMDL
MODEL 2
REMARK VINA RESULT:      -7.0      0.767      1.243
REMARK  Name = 
REMARK  5 active torsions:
REMARK  status: ('A' for Active; 'I' for Inactive)
REMARK    1  A    between atoms: C_1  and  N_2
REMARK    2  A    between atoms: N_2  and  N_3
REMARK    3  A    between atoms: C_4  and  C_5
REMARK    4  A    between atoms: C_8  and  O_9
REMARK    5  A    between atoms: O_9  and  C_10
REMARK                            x       y       z     vdW  Elec       q    Type
REMARK                         _______ _______ _______ _____ _____    ______ ____
ROOT
ATOM      1  C   UNL     1       7.370   6.988  17.830  0.00  0.00    +0.000 A 
ATOM      2  C   UNL     1       7.678   5.715  18.317  0.00  0.00    +0.000 A 
ATOM      3  C   UNL     1       6.831   4.641  18.035  0.00  0.00    +0.000 A 
ATOM      4  C   UNL     1       5.681   4.839  17.269  0.00  0.00    +0.000 A 
ATOM      5  C   UNL     1       5.415   6.100  16.725  0.00  0.00    +0.000 A 
ATOM      6  C   UNL     1       6.243   7.184  17.029  0.00  0.00    +0.000 A 
ENDROOT
BRANCH   1   8
ATOM      7  N   UNL     1       7.931   9.338  17.744  0.00  0.00    +0.000 NA
ATOM      8  C   UNL     1       8.227   8.143  18.150  0.00  0.00    +0.000 C 
BRANCH   7  10
ATOM      9  C   UNL     1       9.293  10.176  19.497  0.00  0.00    +0.000 C 
ATOM     10  N   UNL     1       8.816  10.288  18.124  0.00  0.00    +0.000 N 
ATOM     11  H   UNL     1       9.623  10.327  17.497  0.00  0.00    +0.000 HD
ENDBRANCH   7  10
ENDBRANCH   1   8
BRANCH   4  12
ATOM     12  O   UNL     1       4.905   3.724  17.053  0.00  0.00    +0.000 OA
BRANCH  12  13
ATOM     13  C   UNL     1       3.833   3.455  17.873  0.00  0.00    +0.000 A 
ATOM     14  C   UNL     1       2.593   3.916  17.417  0.00  0.00    +0.000 A 
ATOM     15  C   UNL     1       1.444   3.704  18.181  0.00  0.00    +0.000 A 
ATOM     16  C   UNL     1       1.541   3.037  19.394  0.00  0.00    +0.000 A 
ATOM     17  F   UNL     1       0.445   2.860  20.142  0.00  0.00    +0.000 F 
ATOM     18  C   UNL     1       2.762   2.544  19.844  0.00  0.00    +0.000 A 
ATOM     19  C   UNL     1       3.906   2.729  19.067  0.00  0.00    +0.000 A 
ENDBRANCH  12  13
ENDBRANCH   4  12
TORSDOF 4
ENDMDL
MODEL 3
REMARK VINA RESULT:      -6.9      0.188      1.142
REMARK  Name = 
REMARK  5 active torsions:
REMARK  status: ('A' for Active; 'I' for Inactive)
REMARK    1  A    between atoms: C_1  and  N_2
REMARK    2  A    between atoms: N_2  and  N_3
REMARK    3  A    between atoms: C_4  and  C_5
REMARK    4  A    between atoms: C_8  and  O_9
REMARK    5  A    between atoms: O_9  and  C_10
REMARK                            x       y       z     vdW  Elec       q    Type
REMARK                         _______ _______ _______ _____ _____    ______ ____
ROOT
ATOM      1  C   UNL     1       7.447   6.946  18.010  0.00  0.00    +0.000 A 
ATOM      2  C   UNL     1       6.554   7.146  16.954  0.00  0.00    +0.000 A 
ATOM      3  C   UNL     1       5.719   6.103  16.545  0.00  0.00    +0.000 A 
ATOM      4  C   UNL     1       5.775   4.867  17.191  0.00  0.00    +0.000 A 
ATOM      5  C   UNL     1       6.619   4.694  18.294  0.00  0.00    +0.000 A 
ATOM      6  C   UNL     1       7.478   5.725  18.687  0.00  0.00    +0.000 A 
ENDROOT
BRANCH   1   8
ATOM      7  N   UNL     1       8.172   9.251  18.083  0.00  0.00    +0.000 NA
ATOM      8  C   UNL     1       8.367   8.018  18.431  0.00  0.00    +0.000 C 
BRANCH   7  10
ATOM      9  C   UNL     1       8.984  11.481  18.060  0.00  0.00    +0.000 C 
ATOM     10  N   UNL     1       9.103  10.113  18.552  0.00  0.00    +0.000 N 
ATOM     11  H   UNL     1       9.123  10.131  19.574  0.00  0.00    +0.000 HD
ENDBRANCH   7  10
ENDBRANCH   1   8
BRANCH   4  12
ATOM     12  O   UNL     1       4.922   3.901  16.712  0.00  0.00    +0.000 OA
BRANCH  12  13
ATOM     13  C   UNL     1       3.734   3.642  17.358  0.00  0.00    +0.000 A 
ATOM     14  C   UNL     1       3.582   2.339  17.845  0.00  0.00    +0.000 A 
ATOM     15  C   UNL     1       2.409   1.972  18.505  0.00  0.00    +0.000 A 
ATOM     16  C   UNL     1       1.395   2.905  18.673  0.00  0.00    +0.000 A 
ATOM     17  F   UNL     1       0.258   2.546  19.279  0.00  0.00    +0.000 F 
ATOM     18  C   UNL     1       1.547   4.214  18.223  0.00  0.00    +0.000 A 
ATOM     19  C   UNL     1       2.731   4.590  17.589  0.00  0.00    +0.000 A 
ENDBRANCH  12  13
ENDBRANCH   4  12
TORSDOF 4
ENDMDL
MODEL 4
REMARK VINA RESULT:      -6.9      0.823      1.681
REMARK  Name = 
REMARK  5 active torsions:
REMARK  status: ('A' for Active; 'I' for Inactive)
REMARK    1  A    between atoms: C_1  and  N_2
REMARK    2  A    between atoms: N_2  and  N_3
REMARK    3  A    between atoms: C_4  and  C_5
REMARK    4  A    between atoms: C_8  and  O_9
REMARK    5  A    between atoms: O_9  and  C_10
REMARK                            x       y       z     vdW  Elec       q    Type
REMARK                         _______ _______ _______ _____ _____    ______ ____
ROOT
ATOM      1  C   UNL     1       7.351   6.966  17.821  0.00  0.00    +0.000 A 
ATOM      2  C   UNL     1       6.175   7.130  17.083  0.00  0.00    +0.000 A 
ATOM      3  C   UNL     1       5.344   6.032  16.849  0.00  0.00    +0.000 A 
ATOM      4  C   UNL     1       5.687   4.775  17.350  0.00  0.00    +0.000 A 
ATOM      5  C   UNL     1       6.828   4.631  18.148  0.00  0.00    +0.000 A 
ATOM      6  C   UNL     1       7.677   5.720  18.360  0.00  0.00    +0.000 A 
ENDROOT
BRANCH   1   8
ATOM      7  N   UNL     1       7.880   9.324  17.851  0.00  0.00    +0.000 NA
ATOM      8  C   UNL     1       8.263   8.102  18.045  0.00  0.00    +0.000 C 
BRANCH   7  10
ATOM      9  C   UNL     1       9.306  10.291  19.483  0.00  0.00    +0.000 C 
ATOM     10  N   UNL     1       8.833  10.250  18.104  0.00  0.00    +0.000 N 
ATOM     11  H   UNL     1       9.638  10.146  17.483  0.00  0.00    +0.000 HD
ENDBRANCH   7  10
ENDBRANCH   1   8
BRANCH   4  12
ATOM     12  O   UNL     1       4.812   3.755  17.059  0.00  0.00    +0.000 OA
BRANCH  12  13
ATOM     13  C   UNL     1       3.779   3.460  17.920  0.00  0.00    +0.000 A 
ATOM     14  C   UNL     1       2.498   3.779  17.458  0.00  0.00    +0.000 A 
ATOM     15  C   UNL     1       1.383   3.530  18.260  0.00  0.00    +0.000 A 
ATOM     16  C   UNL     1       1.554   2.968  19.517  0.00  0.00    +0.000 A 
ATOM     17  F   UNL     1       0.490   2.756  20.299  0.00  0.00    +0.000 F 
ATOM     18  C   UNL     1       2.820   2.615  19.976  0.00  0.00    +0.000 A 
ATOM     19  C   UNL     1       3.933   2.836  19.163  0.00  0.00    +0.000 A 
ENDBRANCH  12  13
ENDBRANCH   4  12
TORSDOF 4
ENDMDL
MODEL 5
REMARK VINA RESULT:      -6.9      5.385      6.193
REMARK  Name = 
REMARK  5 active torsions:
REMARK  status: ('A' for Active; 'I' for Inactive)
REMARK    1  A    between atoms: C_1  and  N_2
REMARK    2  A    between atoms: N_2  and  N_3
REMARK    3  A    between atoms: C_4  and  C_5
REMARK    4  A    between atoms: C_8  and  O_9
REMARK    5  A    between atoms: O_9  and  C_10
REMARK                            x       y       z     vdW  Elec       q    Type
REMARK                         _______ _______ _______ _____ _____    ______ ____
ROOT
ATOM      1  C   UNL     1       0.833  10.111  19.154  0.00  0.00    +0.000 A 
ATOM      2  C   UNL     1       1.518   9.494  18.103  0.00  0.00    +0.000 A 
ATOM      3  C   UNL     1       2.174   8.280  18.320  0.00  0.00    +0.000 A 
ATOM      4  C   UNL     1       2.145   7.685  19.583  0.00  0.00    +0.000 A 
ATOM      5  C   UNL     1       1.400   8.270  20.612  0.00  0.00    +0.000 A 
ATOM      6  C   UNL     1       0.767   9.500  20.407  0.00  0.00    +0.000 A 
ENDROOT
BRANCH   1   8
ATOM      7  N   UNL     1      -0.852  11.538  18.171  0.00  0.00    +0.000 NA
ATOM      8  C   UNL     1       0.170  11.412  18.958  0.00  0.00    +0.000 C 
BRANCH   7  10
ATOM      9  C   UNL     1      -0.423  13.848  18.508  0.00  0.00    +0.000 C 
ATOM     10  N   UNL     1      -1.348  12.795  18.104  0.00  0.00    +0.000 N 
ATOM     11  H   UNL     1      -1.707  13.012  17.172  0.00  0.00    +0.000 HD
ENDBRANCH   7  10
ENDBRANCH   1   8
BRANCH   4  12
ATOM     12  O   UNL     1       2.828   6.497  19.701  0.00  0.00    +0.000 OA
BRANCH  12  13
ATOM     13  C   UNL     1       2.223   5.312  19.349  0.00  0.00    +0.000 A 
ATOM     14  C   UNL     1       1.546   4.650  20.378  0.00  0.00    +0.000 A 
ATOM     15  C   UNL     1       0.908   3.433  20.128  0.00  0.00    +0.000 A 
ATOM     16  C   UNL     1       0.953   2.886  18.853  0.00  0.00    +0.000 A 
ATOM     17  F   UNL     1       0.369   1.705  18.618  0.00  0.00    +0.000 F 
ATOM     18  C   UNL     1       1.595   3.550  17.812  0.00  0.00    +0.000 A 
ATOM     19  C   UNL     1       2.207   4.780  18.054  0.00  0.00    +0.000 A 
ENDBRANCH  12  13
ENDBRANCH   4  12
TORSDOF 4
ENDMDL
MODEL 6
REMARK VINA RESULT:      -6.9      1.152      1.618
REMARK  Name = 
REMARK  5 active torsions:
REMARK  status: ('A' for Active; 'I' for Inactive)
REMARK    1  A    between atoms: C_1  and  N_2
REMARK    2  A    between atoms: N_2  and  N_3
REMARK    3  A    between atoms: C_4  and  C_5
REMARK    4  A    between atoms: C_8  and  O_9
REMARK    5  A    between atoms: O_9  and  C_10
REMARK                            x       y       z     vdW  Elec       q    Type
REMARK                         _______ _______ _______ _____ _____    ______ ____
ROOT
ATOM      1  C   UNL     1       6.872   7.001  17.417  0.00  0.00    +0.000 A 
ATOM      2  C   UNL     1       5.535   6.983  17.008  0.00  0.00    +0.000 A 
ATOM      3  C   UNL     1       4.836   5.774  16.973  0.00  0.00    +0.000 A 
ATOM      4  C   UNL     1       5.471   4.588  17.346  0.00  0.00    +0.000 A 
ATOM      5  C   UNL     1       6.786   4.621  17.823  0.00  0.00    +0.000 A 
ATOM      6  C   UNL     1       7.498   5.824  17.831  0.00  0.00    +0.000 A 
ENDROOT
BRANCH   1   8
ATOM      7  N   UNL     1       8.361   8.606  18.441  0.00  0.00    +0.000 NA
ATOM      8  C   UNL     1       7.640   8.258  17.422  0.00  0.00    +0.000 C 
BRANCH   7  10
ATOM      9  C   UNL     1       9.325  10.483  19.526  0.00  0.00    +0.000 C 
ATOM     10  N   UNL     1       9.007   9.784  18.287  0.00  0.00    +0.000 N 
ATOM     11  H   UNL     1       9.863   9.679  17.739  0.00  0.00    +0.000 HD
ENDBRANCH   7  10
ENDBRANCH   1   8
BRANCH   4  12
ATOM     12  O   UNL     1       4.704   3.449  17.270  0.00  0.00    +0.000 OA
BRANCH  12  13
ATOM     13  C   UNL     1       3.655   3.259  18.139  0.00  0.00    +0.000 A 
ATOM     14  C   UNL     1       4.000   3.159  19.492  0.00  0.00    +0.000 A 
ATOM     15  C   UNL     1       3.010   2.955  20.454  0.00  0.00    +0.000 A 
ATOM     16  C   UNL     1       1.683   2.849  20.060  0.00  0.00    +0.000 A 
ATOM     17  F   UNL     1       0.736   2.623  20.977  0.00  0.00    +0.000 F 
ATOM     18  C   UNL     1       1.322   2.980  18.722  0.00  0.00    +0.000 A 
ATOM     19  C   UNL     1       2.308   3.214  17.763  0.00  0.00    +0.000 A 
ENDBRANCH  12  13
ENDBRANCH   4  12
TORSDOF 4
ENDMDL
MODEL 7
REMARK VINA RESULT:      -6.9      3.782      4.858
REMARK  Name = 
REMARK  5 active torsions:
REMARK  status: ('A' for Active; 'I' for Inactive)
REMARK    1  A    between atoms: C_1  and  N_2
REMARK    2  A    between atoms: N_2  and  N_3
REMARK    3  A    between atoms: C_4  and  C_5
REMARK    4  A    between atoms: C_8  and  O_9
REMARK    5  A    between atoms: O_9  and  C_10
REMARK                            x       y       z     vdW  Elec       q    Type
REMARK                         _______ _______ _______ _____ _____    ______ ____
ROOT
ATOM      1  C   UNL     1       6.215   4.574  15.503  0.00  0.00    +0.000 A 
ATOM      2  C   UNL     1       4.931   5.101  15.667  0.00  0.00    +0.000 A 
ATOM      3  C   UNL     1       4.487   5.463  16.941  0.00  0.00    +0.000 A 
ATOM      4  C   UNL     1       5.323   5.297  18.047  0.00  0.00    +0.000 A 
ATOM      5  C   UNL     1       6.632   4.836  17.868  0.00  0.00    +0.000 A 
ATOM      6  C   UNL     1       7.070   4.446  16.600  0.00  0.00    +0.000 A 
ENDROOT
BRANCH   1   8
ATOM      7  N   UNL     1       5.880   3.645  13.297  0.00  0.00    +0.000 NA
ATOM      8  C   UNL     1       6.689   4.148  14.175  0.00  0.00    +0.000 C 
BRANCH   7  10
ATOM      9  C   UNL     1       5.915   2.130  11.471  0.00  0.00    +0.000 C 
ATOM     10  N   UNL     1       6.470   3.307  12.128  0.00  0.00    +0.000 N 
ATOM     11  H   UNL     1       6.470   4.085  11.464  0.00  0.00    +0.000 HD
ENDBRANCH   7  10
ENDBRANCH   1   8
BRANCH   4  12
ATOM     12  O   UNL     1       4.793   5.672  19.259  0.00  0.00    +0.000 OA
BRANCH  12  13
ATOM     13  C   UNL     1       3.722   4.990  19.789  0.00  0.00    +0.000 A 
ATOM     14  C   UNL     1       3.926   3.624  20.013  0.00  0.00    +0.000 A 
ATOM     15  C   UNL     1       2.897   2.839  20.537  0.00  0.00    +0.000 A 
ATOM     16  C   UNL     1       1.673   3.422  20.832  0.00  0.00    +0.000 A 
ATOM     17  F   UNL     1       0.676   2.666  21.307  0.00  0.00    +0.000 F 
ATOM     18  C   UNL     1       1.467   4.786  20.647  0.00  0.00    +0.000 A 
ATOM     19  C   UNL     1       2.504   5.577  20.150  0.00  0.00    +0.000 A 
ENDBRANCH  12  13
ENDBRANCH   4  12
TORSDOF 4
ENDMDL
MODEL 8
REMARK VINA RESULT:      -6.8      1.289      1.332
REMARK  Name = 
REMARK  5 active torsions:
REMARK  status: ('A' for Active; 'I' for Inactive)
REMARK    1  A    between atoms: C_1  and  N_2
REMARK    2  A    between atoms: N_2  and  N_3
REMARK    3  A    between atoms: C_4  and  C_5
REMARK    4  A    between atoms: C_8  and  O_9
REMARK    5  A    between atoms: O_9  and  C_10
REMARK                            x       y       z     vdW  Elec       q    Type
REMARK                         _______ _______ _______ _____ _____    ______ ____
ROOT
ATOM      1  C   UNL     1       6.840   6.977  17.441  0.00  0.00    +0.000 A 
ATOM      2  C   UNL     1       7.286   5.877  18.179  0.00  0.00    +0.000 A 
ATOM      3  C   UNL     1       6.519   4.710  18.219  0.00  0.00    +0.000 A 
ATOM      4  C   UNL     1       5.310   4.644  17.523  0.00  0.00    +0.000 A 
ATOM      5  C   UNL     1       4.903   5.721  16.729  0.00  0.00    +0.000 A 
ATOM      6  C   UNL     1       5.653   6.901  16.710  0.00  0.00    +0.000 A 
ENDROOT
BRANCH   1   8
ATOM      7  N   UNL     1       8.314   8.612  18.440  0.00  0.00    +0.000 NA
ATOM      8  C   UNL     1       7.612   8.231  17.419  0.00  0.00    +0.000 C 
BRANCH   7  10
ATOM      9  C   UNL     1       9.389  10.452  19.484  0.00  0.00    +0.000 C 
ATOM     10  N   UNL     1       8.967   9.782  18.259  0.00  0.00    +0.000 N 
ATOM     11  H   UNL     1       9.778   9.674  17.646  0.00  0.00    +0.000 HD
ENDBRANCH   7  10
ENDBRANCH   1   8
BRANCH   4  12
ATOM     12  O   UNL     1       4.622   3.458  17.631  0.00  0.00    +0.000 OA
BRANCH  12  13
ATOM     13  C   UNL     1       3.607   3.326  18.552  0.00  0.00    +0.000 A 
ATOM     14  C   UNL     1       3.988   2.829  19.803  0.00  0.00    +0.000 A 
ATOM     15  C   UNL     1       3.031   2.647  20.804  0.00  0.00    +0.000 A 
ATOM     16  C   UNL     1       1.704   2.959  20.548  0.00  0.00    +0.000 A 
ATOM     17  F   UNL     1       0.781   2.757  21.495  0.00  0.00    +0.000 F 
ATOM     18  C   UNL     1       1.317   3.486  19.318  0.00  0.00    +0.000 A 
ATOM     19  C   UNL     1       2.277   3.696  18.328  0.00  0.00    +0.000 A 
ENDBRANCH  12  13
ENDBRANCH   4  12
TORSDOF 4
ENDMDL
MODEL 9
REMARK VINA RESULT:      -6.8      1.147      1.234
REMARK  Name = 
REMARK  5 active torsions:
REMARK  status: ('A' for Active; 'I' for Inactive)
REMARK    1  A    between atoms: C_1  and  N_2
REMARK    2  A    between atoms: N_2  and  N_3
REMARK    3  A    between atoms: C_4  and  C_5
REMARK    4  A    between atoms: C_8  and  O_9
REMARK    5  A    between atoms: O_9  and  C_10
REMARK                            x       y       z     vdW  Elec       q    Type
REMARK                         _______ _______ _______ _____ _____    ______ ____
ROOT
ATOM      1  C   UNL     1       7.437   7.444  17.881  0.00  0.00    +0.000 A 
ATOM      2  C   UNL     1       7.975   6.572  18.832  0.00  0.00    +0.000 A 
ATOM      3  C   UNL     1       7.382   5.325  19.043  0.00  0.00    +0.000 A 
ATOM      4  C   UNL     1       6.256   4.951  18.306  0.00  0.00    +0.000 A 
ATOM      5  C   UNL     1       5.765   5.797  17.307  0.00  0.00    +0.000 A 
ATOM      6  C   UNL     1       6.337   7.058  17.113  0.00  0.00    +0.000 A 
ENDROOT
BRANCH   1   8
ATOM      7  N   UNL     1       8.722   9.364  18.591  0.00  0.00    +0.000 NA
ATOM      8  C   UNL     1       8.020   8.780  17.671  0.00  0.00    +0.000 C 
BRANCH   7  10
ATOM      9  C   UNL     1       9.586  11.438  19.354  0.00  0.00    +0.000 C 
ATOM     10  N   UNL     1       9.190  10.584  18.241  0.00  0.00    +0.000 N 
ATOM     11  H   UNL     1       9.969  10.518  17.583  0.00  0.00    +0.000 HD
ENDBRANCH   7  10
ENDBRANCH   1   8
BRANCH   4  12
ATOM     12  O   UNL     1       5.739   3.709  18.592  0.00  0.00    +0.000 OA
BRANCH  12  13
ATOM     13  C   UNL     1       4.379   3.535  18.715  0.00  0.00    +0.000 A 
ATOM     14  C   UNL     1       3.817   2.563  17.881  0.00  0.00    +0.000 A 
ATOM     15  C   UNL     1       2.443   2.317  17.920  0.00  0.00    +0.000 A 
ATOM     16  C   UNL     1       1.641   3.045  18.788  0.00  0.00    +0.000 A 
ATOM     17  F   UNL     1       0.320   2.832  18.805  0.00  0.00    +0.000 F 
ATOM     18  C   UNL     1       2.192   3.992  19.647  0.00  0.00    +0.000 A 
ATOM     19  C   UNL     1       3.569   4.217  19.629  0.00  0.00    +0.000 A 
ENDBRANCH  12  13
ENDBRANCH   4  12
TORSDOF 4
ENDMDL
