MODEL 1
REMARK VINA RESULT:      -7.3      0.000      0.000
REMARK  Name = 
REMARK  7 active torsions:
REMARK  status: ('A' for Active; 'I' for Inactive)
REMARK    1  A    between atoms: C_1  and  C_2
REMARK    2  A    between atoms: C_5  and  C_6
REMARK    3  A    between atoms: C_6  and  O_8
REMARK    4  A    between atoms: O_8  and  N_9
REMARK    5  A    between atoms: C_10  and  C_12
REMARK    6  A    between atoms: C_12  and  C_13
REMARK    7  A    between atoms: C_16  and  N_17
REMARK                            x       y       z     vdW  Elec       q    Type
REMARK                         _______ _______ _______ _____ _____    ______ ____
ROOT
ATOM      1  N   UNL     1       4.020   6.538  19.085  0.00  0.00    +0.000 NA
ATOM      2  C   UNL     1       2.833   6.492  18.552  0.00  0.00    +0.000 C 
ATOM      3  N   UNL     1       2.143   5.325  18.310  0.00  0.00    +0.000 N 
ATOM      4  H   UNL     1       2.551   4.519  18.776  0.00  0.00    +0.000 HD
ATOM      5  H   UNL     1       1.136   5.369  18.406  0.00  0.00    +0.000 HD
ENDROOT
BRANCH   1   6
ATOM      6  O   UNL     1       4.489   5.231  19.348  0.00  0.00    +0.000 OA
BRANCH   6   7
ATOM      7  C   UNL     1       5.819   5.111  19.080  0.00  0.00    +0.000 C 
ATOM      8  O   UNL     1       6.756   5.219  19.855  0.00  0.00    +0.000 OA
BRANCH   7  13
ATOM      9  C   UNL     1       6.383   4.033  13.386  0.00  0.00    +0.000 C 
ATOM     10  C   UNL     1       6.239   4.313  14.854  0.00  0.00    +0.000 A 
ATOM     11  C   UNL     1       5.466   3.497  15.683  0.00  0.00    +0.000 A 
ATOM     12  C   UNL     1       5.353   3.784  17.051  0.00  0.00    +0.000 A 
ATOM     13  C   UNL     1       6.015   4.891  17.617  0.00  0.00    +0.000 A 
ATOM     14  C   UNL     1       6.771   5.721  16.778  0.00  0.00    +0.000 A 
ATOM     15 CL   UNL     1       7.561   7.171  17.297  0.00  0.00    +0.000 Cl
ATOM     16  C   UNL     1       6.885   5.422  15.412  0.00  0.00    +0.000 A 
ENDBRANCH   7  13
ENDBRANCH   6   7
ENDBRANCH   1   6
BRANCH   2  17
ATOM     17  C   UNL     1       2.177   7.805  18.134  0.00  0.00    +0.000 C 
BRANCH  17  18
ATOM     18  C   UNL     1       1.575   8.633  19.251  0.00  0.00    +0.000 A 
ATOM     19  C   UNL     1       1.012   9.893  18.987  0.00  0.00    +0.000 A 
ATOM     20  C   UNL     1       0.325  10.594  19.981  0.00  0.00    +0.000 A 
ATOM     21  C   UNL     1       0.200  10.038  21.261  0.00  0.00    +0.000 A 
ATOM     22  C   UNL     1       0.770   8.795  21.550  0.00  0.00    +0.000 A 
ATOM     23  C   UNL     1       1.452   8.098  20.546  0.00  0.00    +0.000 A 
BRANCH  21  24
ATOM     24  N   UNL     1      -0.561  10.752  22.298  0.00  0.00    +0.000 N 
ATOM     25  O   UNL     1      -0.311  10.487  23.483  0.00  0.00    +0.000 OA
ATOM     26  O   UNL     1      -1.407  11.576  21.925  0.00  0.00    +0.000 OA
ENDBRANCH  21  24
ENDBRANCH  17  18
ENDBRANCH   2  17
TORSDOF 6
ENDMDL
MODEL 2
REMARK VINA RESULT:      -7.3      4.246      4.773
REMARK  Name = 
REMARK  7 active torsions:
REMARK  status: ('A' for Active; 'I' for Inactive)
REMARK    1  A    between atoms: C_1  and  C_2
REMARK    2  A    between atoms: C_5  and  C_6
REMARK    3  A    between atoms: C_6  and  O_8
REMARK    4  A    between atoms: O_8  and  N_9
REMARK    5  A    between atoms: C_10  and  C_12
REMARK    6  A    between atoms: C_12  and  C_13
REMARK    7  A    between atoms: C_16  and  N_17
REMARK                            x       y       z     vdW  Elec       q    Type
REMARK                         _______ _______ _______ _____ _____    ______ ____
ROOT
ATOM      1  N   UNL     1       6.127   6.657  17.592  0.00  0.00    +0.000 NA
ATOM      2  C   UNL     1       5.042   7.052  16.992  0.00  0.00    +0.000 C 
ATOM      3  N   UNL     1       4.920   7.179  15.627  0.00  0.00    +0.000 N 
ATOM      4  H   UNL     1       5.680   6.735  15.118  0.00  0.00    +0.000 HD
ATOM      5  H   UNL     1       4.009   6.972  15.235  0.00  0.00    +0.000 HD
ENDROOT
BRANCH   1   6
ATOM      6  O   UNL     1       7.145   6.406  16.645  0.00  0.00    +0.000 OA
BRANCH   6   7
ATOM      7  C   UNL     1       7.409   5.074  16.533  0.00  0.00    +0.000 C 
ATOM      8  O   UNL     1       8.108   4.380  17.255  0.00  0.00    +0.000 OA
BRANCH   7  13
ATOM      9  C   UNL     1       5.124   3.077  11.563  0.00  0.00    +0.000 C 
ATOM     10  C   UNL     1       5.711   3.592  12.846  0.00  0.00    +0.000 A 
ATOM     11  C   UNL     1       6.907   4.313  12.867  0.00  0.00    +0.000 A 
ATOM     12  C   UNL     1       7.429   4.782  14.081  0.00  0.00    +0.000 A 
ATOM     13  C   UNL     1       6.762   4.540  15.298  0.00  0.00    +0.000 A 
ATOM     14  C   UNL     1       5.574   3.796  15.276  0.00  0.00    +0.000 A 
ATOM     15 CL   UNL     1       4.690   3.330  16.690  0.00  0.00    +0.000 Cl
ATOM     16  C   UNL     1       5.055   3.338  14.056  0.00  0.00    +0.000 A 
ENDBRANCH   7  13
ENDBRANCH   6   7
ENDBRANCH   1   6
BRANCH   2  17
ATOM     17  C   UNL     1       3.840   7.437  17.852  0.00  0.00    +0.000 C 
BRANCH  17  18
ATOM     18  C   UNL     1       3.011   6.287  18.388  0.00  0.00    +0.000 A 
ATOM     19  C   UNL     1       2.198   5.527  17.530  0.00  0.00    +0.000 A 
ATOM     20  C   UNL     1       1.549   4.378  17.988  0.00  0.00    +0.000 A 
ATOM     21  C   UNL     1       1.704   3.980  19.322  0.00  0.00    +0.000 A 
ATOM     22  C   UNL     1       2.492   4.733  20.198  0.00  0.00    +0.000 A 
ATOM     23  C   UNL     1       3.142   5.881  19.727  0.00  0.00    +0.000 A 
BRANCH  21  24
ATOM     24  N   UNL     1       1.059   2.747  19.798  0.00  0.00    +0.000 N 
ATOM     25  O   UNL     1       1.345   2.347  20.935  0.00  0.00    +0.000 OA
ATOM     26  O   UNL     1       0.268   2.180  19.031  0.00  0.00    +0.000 OA
ENDBRANCH  21  24
ENDBRANCH  17  18
ENDBRANCH   2  17
TORSDOF 6
ENDMDL
MODEL 3
REMARK VINA RESULT:      -7.2      3.187      8.532
REMARK  Name = 
REMARK  7 active torsions:
REMARK  status: ('A' for Active; 'I' for Inactive)
REMARK    1  A    between atoms: C_1  and  C_2
REMARK    2  A    between atoms: C_5  and  C_6
REMARK    3  A    between atoms: C_6  and  O_8
REMARK    4  A    between atoms: O_8  and  N_9
REMARK    5  A    between atoms: C_10  and  C_12
REMARK    6  A    between atoms: C_12  and  C_13
REMARK    7  A    between atoms: C_16  and  N_17
REMARK                            x       y       z     vdW  Elec       q    Type
REMARK                         _______ _______ _______ _____ _____    ______ ____
ROOT
ATOM      1  N   UNL     1       2.750   5.856  19.993  0.00  0.00    +0.000 NA
ATOM      2  C   UNL     1       2.413   4.601  20.069  0.00  0.00    +0.000 C 
ATOM      3  N   UNL     1       1.150   4.163  20.394  0.00  0.00    +0.000 N 
ATOM      4  H   UNL     1       0.453   4.902  20.363  0.00  0.00    +0.000 HD
ATOM      5  H   UNL     1       0.839   3.309  19.947  0.00  0.00    +0.000 HD
ENDROOT
BRANCH   1   6
ATOM      6  O   UNL     1       1.647   6.679  20.313  0.00  0.00    +0.000 OA
BRANCH   6   7
ATOM      7  C   UNL     1       1.765   7.916  19.756  0.00  0.00    +0.000 C 
ATOM      8  O   UNL     1       2.466   8.256  18.815  0.00  0.00    +0.000 OA
BRANCH   7  13
ATOM      9  C   UNL     1      -1.316  11.630  23.015  0.00  0.00    +0.000 C 
ATOM     10  C   UNL     1      -0.523  10.672  22.173  0.00  0.00    +0.000 A 
ATOM     11  C   UNL     1       0.342   9.737  22.745  0.00  0.00    +0.000 A 
ATOM     12  C   UNL     1       1.068   8.855  21.930  0.00  0.00    +0.000 A 
ATOM     13  C   UNL     1       0.939   8.891  20.528  0.00  0.00    +0.000 A 
ATOM     14  C   UNL     1       0.088   9.846  19.956  0.00  0.00    +0.000 A 
ATOM     15 CL   UNL     1      -0.104  10.085  18.253  0.00  0.00    +0.000 Cl
ATOM     16  C   UNL     1      -0.640  10.719  20.779  0.00  0.00    +0.000 A 
ENDBRANCH   7  13
ENDBRANCH   6   7
ENDBRANCH   1   6
BRANCH   2  17
ATOM     17  C   UNL     1       3.489   3.547  19.820  0.00  0.00    +0.000 C 
BRANCH  17  18
ATOM     18  C   UNL     1       4.394   3.790  18.629  0.00  0.00    +0.000 A 
ATOM     19  C   UNL     1       3.925   3.593  17.319  0.00  0.00    +0.000 A 
ATOM     20  C   UNL     1       4.704   3.956  16.217  0.00  0.00    +0.000 A 
ATOM     21  C   UNL     1       5.971   4.518  16.418  0.00  0.00    +0.000 A 
ATOM     22  C   UNL     1       6.464   4.703  17.713  0.00  0.00    +0.000 A 
ATOM     23  C   UNL     1       5.675   4.341  18.810  0.00  0.00    +0.000 A 
BRANCH  21  24
ATOM     24  N   UNL     1       6.775   4.942  15.262  0.00  0.00    +0.000 N 
ATOM     25  O   UNL     1       7.565   5.884  15.422  0.00  0.00    +0.000 OA
ATOM     26  O   UNL     1       6.613   4.333  14.195  0.00  0.00    +0.000 OA
ENDBRANCH  21  24
ENDBRANCH  17  18
ENDBRANCH   2  17
TORSDOF 6
ENDMDL
MODEL 4
REMARK VINA RESULT:      -7.2      4.033      4.754
REMARK  Name = 
REMARK  7 active torsions:
REMARK  status: ('A' for Active; 'I' for Inactive)
REMARK    1  A    between atoms: C_1  and  C_2
REMARK    2  A    between atoms: C_5  and  C_6
REMARK    3  A    between atoms: C_6  and  O_8
REMARK    4  A    between atoms: O_8  and  N_9
REMARK    5  A    between atoms: C_10  and  C_12
REMARK    6  A    between atoms: C_12  and  C_13
REMARK    7  A    between atoms: C_16  and  N_17
REMARK                            x       y       z     vdW  Elec       q    Type
REMARK                         _______ _______ _______ _____ _____    ______ ____
ROOT
ATOM      1  N   UNL     1       6.115   6.512  17.304  0.00  0.00    +0.000 NA
ATOM      2  C   UNL     1       5.013   6.915  16.741  0.00  0.00    +0.000 C 
ATOM      3  N   UNL     1       4.860   7.088  15.384  0.00  0.00    +0.000 N 
ATOM      4  H   UNL     1       5.614   6.673  14.844  0.00  0.00    +0.000 HD
ATOM      5  H   UNL     1       3.944   6.884  15.004  0.00  0.00    +0.000 HD
ENDROOT
BRANCH   1   6
ATOM      6  O   UNL     1       7.116   6.308  16.327  0.00  0.00    +0.000 OA
BRANCH   6   7
ATOM      7  C   UNL     1       7.404   4.986  16.173  0.00  0.00    +0.000 C 
ATOM      8  O   UNL     1       8.085   4.273  16.893  0.00  0.00    +0.000 OA
BRANCH   7  13
ATOM      9  C   UNL     1       4.861   2.964  11.340  0.00  0.00    +0.000 C 
ATOM     10  C   UNL     1       5.519   3.485  12.585  0.00  0.00    +0.000 A 
ATOM     11  C   UNL     1       4.988   3.239  13.853  0.00  0.00    +0.000 A 
ATOM     12  C   UNL     1       5.627   3.739  14.997  0.00  0.00    +0.000 A 
ATOM     13  C   UNL     1       6.812   4.493  14.894  0.00  0.00    +0.000 A 
ATOM     14  C   UNL     1       7.330   4.758  13.619  0.00  0.00    +0.000 A 
ATOM     15 CL   UNL     1       8.718   5.748  13.317  0.00  0.00    +0.000 Cl
ATOM     16  C   UNL     1       6.689   4.247  12.481  0.00  0.00    +0.000 A 
ENDBRANCH   7  13
ENDBRANCH   6   7
ENDBRANCH   1   6
BRANCH   2  17
ATOM     17  C   UNL     1       3.825   7.253  17.639  0.00  0.00    +0.000 C 
BRANCH  17  18
ATOM     18  C   UNL     1       3.296   6.121  18.496  0.00  0.00    +0.000 A 
ATOM     19  C   UNL     1       3.716   4.798  18.276  0.00  0.00    +0.000 A 
ATOM     20  C   UNL     1       3.349   3.774  19.154  0.00  0.00    +0.000 A 
ATOM     21  C   UNL     1       2.547   4.067  20.264  0.00  0.00    +0.000 A 
ATOM     22  C   UNL     1       2.103   5.373  20.490  0.00  0.00    +0.000 A 
ATOM     23  C   UNL     1       2.479   6.393  19.608  0.00  0.00    +0.000 A 
BRANCH  21  24
ATOM     24  N   UNL     1       2.196   3.001  21.215  0.00  0.00    +0.000 N 
ATOM     25  O   UNL     1       3.121   2.434  21.814  0.00  0.00    +0.000 OA
ATOM     26  O   UNL     1       0.995   2.733  21.359  0.00  0.00    +0.000 OA
ENDBRANCH  21  24
ENDBRANCH  17  18
ENDBRANCH   2  17
TORSDOF 6
ENDMDL
MODEL 5
REMARK VINA RESULT:      -7.1      0.987      1.562
REMARK  Name = 
REMARK  7 active torsions:
REMARK  status: ('A' for Active; 'I' for Inactive)
REMARK    1  A    between atoms: C_1  and  C_2
REMARK    2  A    between atoms: C_5  and  C_6
REMARK    3  A    between atoms: C_6  and  O_8
REMARK    4  A    between atoms: O_8  and  N_9
REMARK    5  A    between atoms: C_10  and  C_12
REMARK    6  A    between atoms: C_12  and  C_13
REMARK    7  A    between atoms: C_16  and  N_17
REMARK                            x       y       z     vdW  Elec       q    Type
REMARK                         _______ _______ _______ _____ _____    ______ ____
ROOT
ATOM      1  N   UNL     1       3.582   5.766  19.134  0.00  0.00    +0.000 NA
ATOM      2  C   UNL     1       2.629   6.293  18.422  0.00  0.00    +0.000 C 
ATOM      3  N   UNL     1       1.685   5.561  17.738  0.00  0.00    +0.000 N 
ATOM      4  H   UNL     1       1.670   4.581  18.008  0.00  0.00    +0.000 HD
ATOM      5  H   UNL     1       0.759   5.967  17.674  0.00  0.00    +0.000 HD
ENDROOT
BRANCH   1   6
ATOM      6  O   UNL     1       3.513   4.356  19.077  0.00  0.00    +0.000 OA
BRANCH   6   7
ATOM      7  C   UNL     1       4.752   3.792  19.055  0.00  0.00    +0.000 C 
ATOM      8  O   UNL     1       5.304   3.150  19.935  0.00  0.00    +0.000 OA
BRANCH   7  13
ATOM      9  C   UNL     1       7.172   5.032  13.906  0.00  0.00    +0.000 C 
ATOM     10  C   UNL     1       6.550   4.713  15.235  0.00  0.00    +0.000 A 
ATOM     11  C   UNL     1       5.346   4.012  15.331  0.00  0.00    +0.000 A 
ATOM     12  C   UNL     1       4.791   3.728  16.587  0.00  0.00    +0.000 A 
ATOM     13  C   UNL     1       5.434   4.137  17.772  0.00  0.00    +0.000 A 
ATOM     14  C   UNL     1       6.630   4.860  17.672  0.00  0.00    +0.000 A 
ATOM     15 CL   UNL     1       7.488   5.517  19.024  0.00  0.00    +0.000 Cl
ATOM     16  C   UNL     1       7.182   5.132  16.412  0.00  0.00    +0.000 A 
ENDBRANCH   7  13
ENDBRANCH   6   7
ENDBRANCH   1   6
BRANCH   2  17
ATOM     17  C   UNL     1       2.571   7.814  18.304  0.00  0.00    +0.000 C 
BRANCH  17  18
ATOM     18  C   UNL     1       1.671   8.524  19.295  0.00  0.00    +0.000 A 
ATOM     19  C   UNL     1       1.540   8.051  20.612  0.00  0.00    +0.000 A 
ATOM     20  C   UNL     1       0.832   8.781  21.569  0.00  0.00    +0.000 A 
ATOM     21  C   UNL     1       0.239   9.999  21.213  0.00  0.00    +0.000 A 
ATOM     22  C   UNL     1       0.340  10.478  19.903  0.00  0.00    +0.000 A 
ATOM     23  C   UNL     1       1.056   9.740  18.952  0.00  0.00    +0.000 A 
BRANCH  21  24
ATOM     24  N   UNL     1      -0.470  10.793  22.228  0.00  0.00    +0.000 N 
ATOM     25  O   UNL     1      -1.196  11.718  21.835  0.00  0.00    +0.000 OA
ATOM     26  O   UNL     1      -0.297  10.491  23.417  0.00  0.00    +0.000 OA
ENDBRANCH  21  24
ENDBRANCH  17  18
ENDBRANCH   2  17
TORSDOF 6
ENDMDL
MODEL 6
REMARK VINA RESULT:      -7.1      2.634      3.714
REMARK  Name = 
REMARK  7 active torsions:
REMARK  status: ('A' for Active; 'I' for Inactive)
REMARK    1  A    between atoms: C_1  and  C_2
REMARK    2  A    between atoms: C_5  and  C_6
REMARK    3  A    between atoms: C_6  and  O_8
REMARK    4  A    between atoms: O_8  and  N_9
REMARK    5  A    between atoms: C_10  and  C_12
REMARK    6  A    between atoms: C_12  and  C_13
REMARK    7  A    between atoms: C_16  and  N_17
REMARK                            x       y       z     vdW  Elec       q    Type
REMARK                         _______ _______ _______ _____ _____    ______ ____
ROOT
ATOM      1  N   UNL     1       4.848   4.586  19.677  0.00  0.00    +0.000 NA
ATOM      2  C   UNL     1       3.631   4.132  19.599  0.00  0.00    +0.000 C 
ATOM      3  N   UNL     1       3.262   3.043  18.842  0.00  0.00    +0.000 N 
ATOM      4  H   UNL     1       4.057   2.498  18.518  0.00  0.00    +0.000 HD
ATOM      5  H   UNL     1       2.515   2.469  19.212  0.00  0.00    +0.000 HD
ENDROOT
BRANCH   1   6
ATOM      6  O   UNL     1       5.709   3.817  18.862  0.00  0.00    +0.000 OA
BRANCH   6   7
ATOM      7  C   UNL     1       5.843   4.360  17.621  0.00  0.00    +0.000 C 
ATOM      8  O   UNL     1       5.550   3.863  16.544  0.00  0.00    +0.000 OA
BRANCH   7  13
ATOM      9  C   UNL     1       8.631   9.438  18.216  0.00  0.00    +0.000 C 
ATOM     10  C   UNL     1       7.910   8.130  18.061  0.00  0.00    +0.000 A 
ATOM     11  C   UNL     1       8.295   6.992  18.775  0.00  0.00    +0.000 A 
ATOM     12  C   UNL     1       7.600   5.786  18.609  0.00  0.00    +0.000 A 
ATOM     13  C   UNL     1       6.504   5.695  17.729  0.00  0.00    +0.000 A 
ATOM     14  C   UNL     1       6.135   6.831  16.997  0.00  0.00    +0.000 A 
ATOM     15 CL   UNL     1       4.879   6.858  15.806  0.00  0.00    +0.000 Cl
ATOM     16  C   UNL     1       6.830   8.037  17.175  0.00  0.00    +0.000 A 
ENDBRANCH   7  13
ENDBRANCH   6   7
ENDBRANCH   1   6
BRANCH   2  17
ATOM     17  C   UNL     1       2.534   4.871  20.362  0.00  0.00    +0.000 C 
BRANCH  17  18
ATOM     18  C   UNL     1       2.153   6.236  19.823  0.00  0.00    +0.000 A 
ATOM     19  C   UNL     1       1.601   7.212  20.669  0.00  0.00    +0.000 A 
ATOM     20  C   UNL     1       1.386   8.516  20.215  0.00  0.00    +0.000 A 
ATOM     21  C   UNL     1       1.720   8.855  18.898  0.00  0.00    +0.000 A 
ATOM     22  C   UNL     1       2.253   7.893  18.034  0.00  0.00    +0.000 A 
ATOM     23  C   UNL     1       2.468   6.591  18.500  0.00  0.00    +0.000 A 
BRANCH  21  24
ATOM     24  N   UNL     1       1.538  10.237  18.429  0.00  0.00    +0.000 N 
ATOM     25  O   UNL     1       2.383  10.698  17.648  0.00  0.00    +0.000 OA
ATOM     26  O   UNL     1       0.551  10.859  18.844  0.00  0.00    +0.000 OA
ENDBRANCH  21  24
ENDBRANCH  17  18
ENDBRANCH   2  17
TORSDOF 6
ENDMDL
MODEL 7
REMARK VINA RESULT:      -7.1      3.073      8.706
REMARK  Name = 
REMARK  7 active torsions:
REMARK  status: ('A' for Active; 'I' for Inactive)
REMARK    1  A    between atoms: C_1  and  C_2
REMARK    2  A    between atoms: C_5  and  C_6
REMARK    3  A    between atoms: C_6  and  O_8
REMARK    4  A    between atoms: O_8  and  N_9
REMARK    5  A    between atoms: C_10  and  C_12
REMARK    6  A    between atoms: C_12  and  C_13
REMARK    7  A    between atoms: C_16  and  N_17
REMARK                            x       y       z     vdW  Elec       q    Type
REMARK                         _______ _______ _______ _____ _____    ______ ____
ROOT
ATOM      1  N   UNL     1       3.327   6.208  19.701  0.00  0.00    +0.000 NA
ATOM      2  C   UNL     1       3.229   4.914  19.605  0.00  0.00    +0.000 C 
ATOM      3  N   UNL     1       2.059   4.215  19.794  0.00  0.00    +0.000 N 
ATOM      4  H   UNL     1       1.237   4.812  19.807  0.00  0.00    +0.000 HD
ATOM      5  H   UNL     1       1.934   3.384  19.229  0.00  0.00    +0.000 HD
ENDROOT
BRANCH   1   6
ATOM      6  O   UNL     1       2.076   6.768  20.046  0.00  0.00    +0.000 OA
BRANCH   6   7
ATOM      7  C   UNL     1       1.872   7.962  19.424  0.00  0.00    +0.000 C 
ATOM      8  O   UNL     1       2.303   8.333  18.343  0.00  0.00    +0.000 OA
BRANCH   7  13
ATOM      9  C   UNL     1      -1.270  11.226  23.083  0.00  0.00    +0.000 C 
ATOM     10  C   UNL     1      -0.460  10.386  22.137  0.00  0.00    +0.000 A 
ATOM     11  C   UNL     1      -0.146   9.055  22.424  0.00  0.00    +0.000 A 
ATOM     12  C   UNL     1       0.611   8.297  21.520  0.00  0.00    +0.000 A 
ATOM     13  C   UNL     1       1.065   8.854  20.309  0.00  0.00    +0.000 A 
ATOM     14  C   UNL     1       0.768  10.196  20.034  0.00  0.00    +0.000 A 
ATOM     15 CL   UNL     1       1.335  11.054  18.642  0.00  0.00    +0.000 Cl
ATOM     16  C   UNL     1       0.004  10.945  20.941  0.00  0.00    +0.000 A 
ENDBRANCH   7  13
ENDBRANCH   6   7
ENDBRANCH   1   6
BRANCH   2  17
ATOM     17  C   UNL     1       4.494   4.114  19.301  0.00  0.00    +0.000 C 
BRANCH  17  18
ATOM     18  C   UNL     1       5.170   4.418  17.979  0.00  0.00    +0.000 A 
ATOM     19  C   UNL     1       6.570   4.517  17.896  0.00  0.00    +0.000 A 
ATOM     20  C   UNL     1       7.207   4.648  16.659  0.00  0.00    +0.000 A 
ATOM     21  C   UNL     1       6.443   4.688  15.486  0.00  0.00    +0.000 A 
ATOM     22  C   UNL     1       5.048   4.610  15.549  0.00  0.00    +0.000 A 
ATOM     23  C   UNL     1       4.419   4.475  16.792  0.00  0.00    +0.000 A 
BRANCH  21  24
ATOM     24  N   UNL     1       7.111   4.780  14.180  0.00  0.00    +0.000 N 
ATOM     25  O   UNL     1       6.682   4.069  13.259  0.00  0.00    +0.000 OA
ATOM     26  O   UNL     1       8.065   5.564  14.077  0.00  0.00    +0.000 OA
ENDBRANCH  21  24
ENDBRANCH  17  18
ENDBRANCH   2  17
TORSDOF 6
ENDMDL
MODEL 8
REMARK VINA RESULT:      -7.0      2.618      3.627
REMARK  Name = 
REMARK  7 active torsions:
REMARK  status: ('A' for Active; 'I' for Inactive)
REMARK    1  A    between atoms: C_1  and  C_2
REMARK    2  A    between atoms: C_5  and  C_6
REMARK    3  A    between atoms: C_6  and  O_8
REMARK    4  A    between atoms: O_8  and  N_9
REMARK    5  A    between atoms: C_10  and  C_12
REMARK    6  A    between atoms: C_12  and  C_13
REMARK    7  A    between atoms: C_16  and  N_17
REMARK                            x       y       z     vdW  Elec       q    Type
REMARK                         _______ _______ _______ _____ _____    ______ ____
ROOT
ATOM      1  N   UNL     1       4.522   4.748  19.465  0.00  0.00    +0.000 NA
ATOM      2  C   UNL     1       3.373   4.198  19.728  0.00  0.00    +0.000 C 
ATOM      3  N   UNL     1       3.054   2.896  19.415  0.00  0.00    +0.000 N 
ATOM      4  H   UNL     1       3.864   2.340  19.153  0.00  0.00    +0.000 HD
ATOM      5  H   UNL     1       2.438   2.415  20.060  0.00  0.00    +0.000 HD
ENDROOT
BRANCH   1   6
ATOM      6  O   UNL     1       5.365   3.827  18.801  0.00  0.00    +0.000 OA
BRANCH   6   7
ATOM      7  C   UNL     1       5.741   4.285  17.575  0.00  0.00    +0.000 C 
ATOM      8  O   UNL     1       5.601   3.740  16.491  0.00  0.00    +0.000 OA
BRANCH   7  13
ATOM      9  C   UNL     1       8.745   9.215  18.341  0.00  0.00    +0.000 C 
ATOM     10  C   UNL     1       7.968   7.944  18.142  0.00  0.00    +0.000 A 
ATOM     11  C   UNL     1       8.290   6.774  18.833  0.00  0.00    +0.000 A 
ATOM     12  C   UNL     1       7.544   5.604  18.626  0.00  0.00    +0.000 A 
ATOM     13  C   UNL     1       6.460   5.585  17.727  0.00  0.00    +0.000 A 
ATOM     14  C   UNL     1       6.155   6.754  17.018  0.00  0.00    +0.000 A 
ATOM     15 CL   UNL     1       4.922   6.867  15.809  0.00  0.00    +0.000 Cl
ATOM     16  C   UNL     1       6.901   7.922  17.237  0.00  0.00    +0.000 A 
ENDBRANCH   7  13
ENDBRANCH   6   7
ENDBRANCH   1   6
BRANCH   2  17
ATOM     17  C   UNL     1       2.296   5.054  20.390  0.00  0.00    +0.000 C 
BRANCH  17  18
ATOM     18  C   UNL     1       2.181   6.480  19.890  0.00  0.00    +0.000 A 
ATOM     19  C   UNL     1       2.567   6.815  18.581  0.00  0.00    +0.000 A 
ATOM     20  C   UNL     1       2.326   8.091  18.066  0.00  0.00    +0.000 A 
ATOM     21  C   UNL     1       1.697   9.053  18.866  0.00  0.00    +0.000 A 
ATOM     22  C   UNL     1       1.322   8.747  20.178  0.00  0.00    +0.000 A 
ATOM     23  C   UNL     1       1.565   7.464  20.682  0.00  0.00    +0.000 A 
BRANCH  21  24
ATOM     24  N   UNL     1       1.401  10.384  18.314  0.00  0.00    +0.000 N 
ATOM     25  O   UNL     1       2.124  10.804  17.399  0.00  0.00    +0.000 OA
ATOM     26  O   UNL     1       0.446  11.007  18.798  0.00  0.00    +0.000 OA
ENDBRANCH  21  24
ENDBRANCH  17  18
ENDBRANCH   2  17
TORSDOF 6
ENDMDL
MODEL 9
REMARK VINA RESULT:      -7.0      3.610      8.648
REMARK  Name = 
REMARK  7 active torsions:
REMARK  status: ('A' for Active; 'I' for Inactive)
REMARK    1  A    between atoms: C_1  and  C_2
REMARK    2  A    between atoms: C_5  and  C_6
REMARK    3  A    between atoms: C_6  and  O_8
REMARK    4  A    between atoms: O_8  and  N_9
REMARK    5  A    between atoms: C_10  and  C_12
REMARK    6  A    between atoms: C_12  and  C_13
REMARK    7  A    between atoms: C_16  and  N_17
REMARK                            x       y       z     vdW  Elec       q    Type
REMARK                         _______ _______ _______ _____ _____    ______ ____
ROOT
ATOM      1  N   UNL     1       1.506   8.484  19.147  0.00  0.00    +0.000 NA
ATOM      2  C   UNL     1       1.811   7.593  20.045  0.00  0.00    +0.000 C 
ATOM      3  N   UNL     1       1.818   7.836  21.400  0.00  0.00    +0.000 N 
ATOM      4  H   UNL     1       1.361   8.709  21.648  0.00  0.00    +0.000 HD
ATOM      5  H   UNL     1       1.547   7.065  21.998  0.00  0.00    +0.000 HD
ENDROOT
BRANCH   1   6
ATOM      6  O   UNL     1       1.213   9.721  19.766  0.00  0.00    +0.000 OA
BRANCH   6   7
ATOM      7  C   UNL     1       1.008  10.705  18.848  0.00  0.00    +0.000 C 
ATOM      8  O   UNL     1       1.839  11.425  18.315  0.00  0.00    +0.000 OA
BRANCH   7  13
ATOM      9  C   UNL     1      -4.693  11.089  17.723  0.00  0.00    +0.000 C 
ATOM     10  C   UNL     1      -3.223  10.992  18.014  0.00  0.00    +0.000 A 
ATOM     11  C   UNL     1      -2.400  10.086  17.341  0.00  0.00    +0.000 A 
ATOM     12  C   UNL     1      -1.031  10.021  17.634  0.00  0.00    +0.000 A 
ATOM     13  C   UNL     1      -0.457  10.865  18.606  0.00  0.00    +0.000 A 
ATOM     14  C   UNL     1      -1.288  11.756  19.296  0.00  0.00    +0.000 A 
ATOM     15 CL   UNL     1      -0.759  12.786  20.582  0.00  0.00    +0.000 Cl
ATOM     16  C   UNL     1      -2.656  11.821  18.990  0.00  0.00    +0.000 A 
ENDBRANCH   7  13
ENDBRANCH   6   7
ENDBRANCH   1   6
BRANCH   2  17
ATOM     17  C   UNL     1       2.223   6.202  19.571  0.00  0.00    +0.000 C 
BRANCH  17  18
ATOM     18  C   UNL     1       3.587   6.099  18.918  0.00  0.00    +0.000 A 
ATOM     19  C   UNL     1       4.598   5.307  19.488  0.00  0.00    +0.000 A 
ATOM     20  C   UNL     1       5.804   5.090  18.816  0.00  0.00    +0.000 A 
ATOM     21  C   UNL     1       6.012   5.673  17.560  0.00  0.00    +0.000 A 
ATOM     22  C   UNL     1       5.027   6.480  16.984  0.00  0.00    +0.000 A 
ATOM     23  C   UNL     1       3.820   6.688  17.663  0.00  0.00    +0.000 A 
BRANCH  21  24
ATOM     24  N   UNL     1       7.261   5.411  16.830  0.00  0.00    +0.000 N 
ATOM     25  O   UNL     1       7.927   4.419  17.161  0.00  0.00    +0.000 OA
ATOM     26  O   UNL     1       7.574   6.198  15.926  0.00  0.00    +0.000 OA
ENDBRANCH  21  24
ENDBRANCH  17  18
ENDBRANCH   2  17
TORSDOF 6
ENDMDL
