MODEL 1
REMARK VINA RESULT:      -7.4      0.000      0.000
REMARK  Name = 
REMARK  9 active torsions:
REMARK  status: ('A' for Active; 'I' for Inactive)
REMARK    1  A    between atoms: C_1  and  C_2
REMARK    2  A    between atoms: C_2  and  C_3
REMARK    3  A    between atoms: N_5  and  C_6
REMARK    4  A    between atoms: C_6  and  C_7
REMARK    5  A    between atoms: C_7  and  O_8
REMARK    6  A    between atoms: C_11  and  O_12
REMARK    7  A    between atoms: O_12  and  C_13
REMARK    8  A    between atoms: C_16  and  C_17
REMARK    9  A    between atoms: C_19  and  C_20
REMARK                            x       y       z     vdW  Elec       q    Type
REMARK                         _______ _______ _______ _____ _____    ______ ____
ROOT
ATOM      1  O   UNL     1       3.162   6.673  18.972  0.00  0.00    +0.000 OA
ENDROOT
BRANCH   1   9
ATOM      2  C   UNL     1       1.510   4.004  18.072  0.00  0.00    +0.000 C 
ATOM      3  C   UNL     1       2.999   4.371  18.076  0.00  0.00    +0.000 C 
ATOM      4  C   UNL     1       3.663   3.903  19.385  0.00  0.00    +0.000 C 
ATOM      5  C   UNL     1       3.714   3.726  16.885  0.00  0.00    +0.000 C 
ATOM      6  N   UNL     1       4.808   4.626  16.597  0.00  0.00    +0.000 N 
ATOM      7  C   UNL     1       4.536   5.910  17.059  0.00  0.00    +0.000 C 
ATOM      8  O   UNL     1       5.247   6.895  16.926  0.00  0.00    +0.000 OA
ATOM      9  C   UNL     1       3.188   5.886  17.784  0.00  0.00    +0.000 C 
BRANCH   6  10
ATOM     10  C   UNL     1       6.137   4.085  16.304  0.00  0.00    +0.000 C 
BRANCH  10  11
ATOM     11  C   UNL     1       6.827   4.549  15.020  0.00  0.00    +0.000 C 
BRANCH  11  12
ATOM     12  O   UNL     1       7.595   5.731  15.234  0.00  0.00    +0.000 OA
ATOM     13  H   UNL     1       6.935   6.451  15.339  0.00  0.00    +0.000 HD
ENDBRANCH  11  12
ENDBRANCH  10  11
ENDBRANCH   6  10
ENDBRANCH   1   9
BRANCH   1  14
ATOM     14  C   UNL     1       2.310   7.745  19.033  0.00  0.00    +0.000 A 
ATOM     15  C   UNL     1       1.896   8.514  17.947  0.00  0.00    +0.000 A 
ATOM     16  C   UNL     1       0.949   9.520  18.116  0.00  0.00    +0.000 A 
ATOM     17  C   UNL     1       0.406   9.799  19.371  0.00  0.00    +0.000 A 
ATOM     18  C   UNL     1       0.834   9.074  20.493  0.00  0.00    +0.000 A 
ATOM     19  C   UNL     1       1.797   8.050  20.301  0.00  0.00    +0.000 A 
BRANCH  18  20
ATOM     20  C   UNL     1       0.300   9.313  21.888  0.00  0.00    +0.000 C 
ATOM     21  F   UNL     1      -0.871   8.690  22.173  0.00  0.00    +0.000 F 
ATOM     22  F   UNL     1       1.175   8.892  22.845  0.00  0.00    +0.000 F 
ATOM     23  F   UNL     1       0.084  10.633  22.138  0.00  0.00    +0.000 F 
ENDBRANCH  18  20
BRANCH  17  24
ATOM     24  C   UNL     1      -0.584  10.836  19.442  0.00  0.00    +0.000 C 
ATOM     25  N   UNL     1      -1.406  11.661  19.466  0.00  0.00    +0.000 NA
ENDBRANCH  17  24
ENDBRANCH   1  14
TORSDOF 7
ENDMDL
MODEL 2
REMARK VINA RESULT:      -7.2      0.801      1.146
REMARK  Name = 
REMARK  9 active torsions:
REMARK  status: ('A' for Active; 'I' for Inactive)
REMARK    1  A    between atoms: C_1  and  C_2
REMARK    2  A    between atoms: C_2  and  C_3
REMARK    3  A    between atoms: N_5  and  C_6
REMARK    4  A    between atoms: C_6  and  C_7
REMARK    5  A    between atoms: C_7  and  O_8
REMARK    6  A    between atoms: C_11  and  O_12
REMARK    7  A    between atoms: O_12  and  C_13
REMARK    8  A    between atoms: C_16  and  C_17
REMARK    9  A    between atoms: C_19  and  C_20
REMARK                            x       y       z     vdW  Elec       q    Type
REMARK                         _______ _______ _______ _____ _____    ______ ____
ROOT
ATOM      1  O   UNL     1       3.164   6.652  18.981  0.00  0.00    +0.000 OA
ENDROOT
BRANCH   1   9
ATOM      2  C   UNL     1       1.647   3.865  18.210  0.00  0.00    +0.000 C 
ATOM      3  C   UNL     1       3.106   4.329  18.126  0.00  0.00    +0.000 C 
ATOM      4  C   UNL     1       3.871   3.928  19.400  0.00  0.00    +0.000 C 
ATOM      5  C   UNL     1       3.795   3.712  16.904  0.00  0.00    +0.000 C 
ATOM      6  N   UNL     1       4.809   4.678  16.544  0.00  0.00    +0.000 N 
ATOM      7  C   UNL     1       4.477   5.949  17.004  0.00  0.00    +0.000 C 
ATOM      8  O   UNL     1       5.113   6.976  16.817  0.00  0.00    +0.000 OA
ATOM      9  C   UNL     1       3.176   5.848  17.803  0.00  0.00    +0.000 C 
BRANCH   6  10
ATOM     10  C   UNL     1       6.152   4.220  16.183  0.00  0.00    +0.000 C 
BRANCH  10  11
ATOM     11  C   UNL     1       7.313   4.636  17.088  0.00  0.00    +0.000 C 
BRANCH  11  12
ATOM     12  O   UNL     1       7.151   4.137  18.414  0.00  0.00    +0.000 OA
ATOM     13  H   UNL     1       7.508   3.222  18.389  0.00  0.00    +0.000 HD
ENDBRANCH  11  12
ENDBRANCH  10  11
ENDBRANCH   6  10
ENDBRANCH   1   9
BRANCH   1  14
ATOM     14  C   UNL     1       2.312   7.723  19.038  0.00  0.00    +0.000 A 
ATOM     15  C   UNL     1       1.877   8.471  17.944  0.00  0.00    +0.000 A 
ATOM     16  C   UNL     1       0.932   9.479  18.112  0.00  0.00    +0.000 A 
ATOM     17  C   UNL     1       0.411   9.781  19.372  0.00  0.00    +0.000 A 
ATOM     18  C   UNL     1       0.861   9.078  20.499  0.00  0.00    +0.000 A 
ATOM     19  C   UNL     1       1.822   8.052  20.308  0.00  0.00    +0.000 A 
BRANCH  18  20
ATOM     20  C   UNL     1       0.353   9.343  21.899  0.00  0.00    +0.000 C 
ATOM     21  F   UNL     1       1.170   8.926  22.898  0.00  0.00    +0.000 F 
ATOM     22  F   UNL     1       0.155  10.673  22.123  0.00  0.00    +0.000 F 
ATOM     23  F   UNL     1      -0.847   8.745  22.133  0.00  0.00    +0.000 F 
ENDBRANCH  18  20
BRANCH  17  24
ATOM     24  C   UNL     1      -0.578  10.818  19.441  0.00  0.00    +0.000 C 
ATOM     25  N   UNL     1      -1.406  11.635  19.521  0.00  0.00    +0.000 NA
ENDBRANCH  17  24
ENDBRANCH   1  14
TORSDOF 7
ENDMDL
MODEL 3
REMARK VINA RESULT:      -6.9      5.614      8.363
REMARK  Name = 
REMARK  9 active torsions:
REMARK  status: ('A' for Active; 'I' for Inactive)
REMARK    1  A    between atoms: C_1  and  C_2
REMARK    2  A    between atoms: C_2  and  C_3
REMARK    3  A    between atoms: N_5  and  C_6
REMARK    4  A    between atoms: C_6  and  C_7
REMARK    5  A    between atoms: C_7  and  O_8
REMARK    6  A    between atoms: C_11  and  O_12
REMARK    7  A    between atoms: O_12  and  C_13
REMARK    8  A    between atoms: C_16  and  C_17
REMARK    9  A    between atoms: C_19  and  C_20
REMARK                            x       y       z     vdW  Elec       q    Type
REMARK                         _______ _______ _______ _____ _____    ______ ____
ROOT
ATOM      1  O   UNL     1       4.580   3.484  17.299  0.00  0.00    +0.000 OA
ENDROOT
BRANCH   1   9
ATOM      2  C   UNL     1       3.493   6.523  17.791  0.00  0.00    +0.000 C 
ATOM      3  C   UNL     1       3.256   5.189  18.509  0.00  0.00    +0.000 C 
ATOM      4  C   UNL     1       4.253   5.021  19.671  0.00  0.00    +0.000 C 
ATOM      5  C   UNL     1       1.825   5.121  19.055  0.00  0.00    +0.000 C 
ATOM      6  N   UNL     1       1.514   3.709  19.056  0.00  0.00    +0.000 N 
ATOM      7  C   UNL     1       2.295   3.022  18.132  0.00  0.00    +0.000 C 
ATOM      8  O   UNL     1       2.231   1.829  17.874  0.00  0.00    +0.000 OA
ATOM      9  C   UNL     1       3.271   4.013  17.493  0.00  0.00    +0.000 C 
BRANCH   6  10
ATOM     10  C   UNL     1       0.828   3.118  20.207  0.00  0.00    +0.000 C 
BRANCH  10  11
ATOM     11  C   UNL     1       1.689   2.475  21.296  0.00  0.00    +0.000 C 
BRANCH  11  12
ATOM     12  O   UNL     1       2.225   3.451  22.186  0.00  0.00    +0.000 OA
ATOM     13  H   UNL     1       2.855   3.976  21.644  0.00  0.00    +0.000 HD
ENDBRANCH  11  12
ENDBRANCH  10  11
ENDBRANCH   6  10
ENDBRANCH   1   9
BRANCH   1  14
ATOM     14  C   UNL     1       5.397   4.073  16.369  0.00  0.00    +0.000 A 
ATOM     15  C   UNL     1       6.402   4.999  16.644  0.00  0.00    +0.000 A 
ATOM     16  C   UNL     1       7.235   5.457  15.628  0.00  0.00    +0.000 A 
ATOM     17  C   UNL     1       7.077   5.021  14.311  0.00  0.00    +0.000 A 
ATOM     18  C   UNL     1       6.046   4.124  13.992  0.00  0.00    +0.000 A 
ATOM     19  C   UNL     1       5.210   3.666  15.042  0.00  0.00    +0.000 A 
BRANCH  18  20
ATOM     20  C   UNL     1       5.803   3.604  12.593  0.00  0.00    +0.000 C 
ATOM     21  F   UNL     1       6.528   4.209  11.618  0.00  0.00    +0.000 F 
ATOM     22  F   UNL     1       6.093   2.277  12.488  0.00  0.00    +0.000 F 
ATOM     23  F   UNL     1       4.502   3.731  12.214  0.00  0.00    +0.000 F 
ENDBRANCH  18  20
BRANCH  17  24
ATOM     24  C   UNL     1       8.001   5.528  13.337  0.00  0.00    +0.000 C 
ATOM     25  N   UNL     1       8.783   5.922  12.567  0.00  0.00    +0.000 NA
ENDBRANCH  17  24
ENDBRANCH   1  14
TORSDOF 7
ENDMDL
MODEL 4
REMARK VINA RESULT:      -6.8      1.855      3.100
REMARK  Name = 
REMARK  9 active torsions:
REMARK  status: ('A' for Active; 'I' for Inactive)
REMARK    1  A    between atoms: C_1  and  C_2
REMARK    2  A    between atoms: C_2  and  C_3
REMARK    3  A    between atoms: N_5  and  C_6
REMARK    4  A    between atoms: C_6  and  C_7
REMARK    5  A    between atoms: C_7  and  O_8
REMARK    6  A    between atoms: C_11  and  O_12
REMARK    7  A    between atoms: O_12  and  C_13
REMARK    8  A    between atoms: C_16  and  C_17
REMARK    9  A    between atoms: C_19  and  C_20
REMARK                            x       y       z     vdW  Elec       q    Type
REMARK                         _______ _______ _______ _____ _____    ______ ____
ROOT
ATOM      1  O   UNL     1       2.787   6.444  18.028  0.00  0.00    +0.000 OA
ENDROOT
BRANCH   1   9
ATOM      2  C   UNL     1       6.043   6.463  17.779  0.00  0.00    +0.000 C 
ATOM      3  C   UNL     1       5.007   5.349  17.976  0.00  0.00    +0.000 C 
ATOM      4  C   UNL     1       4.591   4.756  16.617  0.00  0.00    +0.000 C 
ATOM      5  C   UNL     1       5.577   4.237  18.863  0.00  0.00    +0.000 C 
ATOM      6  N   UNL     1       4.416   3.674  19.515  0.00  0.00    +0.000 N 
ATOM      7  C   UNL     1       3.373   4.592  19.564  0.00  0.00    +0.000 C 
ATOM      8  O   UNL     1       2.283   4.424  20.091  0.00  0.00    +0.000 OA
ATOM      9  C   UNL     1       3.812   5.861  18.829  0.00  0.00    +0.000 C 
BRANCH   6  10
ATOM     10  C   UNL     1       4.286   2.220  19.636  0.00  0.00    +0.000 C 
BRANCH  10  11
ATOM     11  C   UNL     1       3.512   1.481  18.542  0.00  0.00    +0.000 C 
BRANCH  11  12
ATOM     12  O   UNL     1       2.105   1.540  18.763  0.00  0.00    +0.000 OA
ATOM     13  H   UNL     1       1.707   1.033  18.021  0.00  0.00    +0.000 HD
ENDBRANCH  11  12
ENDBRANCH  10  11
ENDBRANCH   6  10
ENDBRANCH   1   9
BRANCH   1  14
ATOM     14  C   UNL     1       2.296   7.674  18.379  0.00  0.00    +0.000 A 
ATOM     15  C   UNL     1       2.195   8.778  17.533  0.00  0.00    +0.000 A 
ATOM     16  C   UNL     1       1.588   9.950  17.975  0.00  0.00    +0.000 A 
ATOM     17  C   UNL     1       1.085  10.060  19.272  0.00  0.00    +0.000 A 
ATOM     18  C   UNL     1       1.211   8.984  20.163  0.00  0.00    +0.000 A 
ATOM     19  C   UNL     1       1.829   7.796  19.694  0.00  0.00    +0.000 A 
BRANCH  18  20
ATOM     20  C   UNL     1       0.697   9.020  21.585  0.00  0.00    +0.000 C 
ATOM     21  F   UNL     1       0.881  10.197  22.235  0.00  0.00    +0.000 F 
ATOM     22  F   UNL     1      -0.643   8.779  21.646  0.00  0.00    +0.000 F 
ATOM     23  F   UNL     1       1.281   8.073  22.369  0.00  0.00    +0.000 F 
ENDBRANCH  18  20
BRANCH  17  24
ATOM     24  C   UNL     1       0.453  11.299  19.627  0.00  0.00    +0.000 C 
ATOM     25  N   UNL     1      -0.077  12.306  19.877  0.00  0.00    +0.000 NA
ENDBRANCH  17  24
ENDBRANCH   1  14
TORSDOF 7
ENDMDL
MODEL 5
REMARK VINA RESULT:      -6.7      1.809      2.356
REMARK  Name = 
REMARK  9 active torsions:
REMARK  status: ('A' for Active; 'I' for Inactive)
REMARK    1  A    between atoms: C_1  and  C_2
REMARK    2  A    between atoms: C_2  and  C_3
REMARK    3  A    between atoms: N_5  and  C_6
REMARK    4  A    between atoms: C_6  and  C_7
REMARK    5  A    between atoms: C_7  and  O_8
REMARK    6  A    between atoms: C_11  and  O_12
REMARK    7  A    between atoms: O_12  and  C_13
REMARK    8  A    between atoms: C_16  and  C_17
REMARK    9  A    between atoms: C_19  and  C_20
REMARK                            x       y       z     vdW  Elec       q    Type
REMARK                         _______ _______ _______ _____ _____    ______ ____
ROOT
ATOM      1  O   UNL     1       3.133   6.239  19.521  0.00  0.00    +0.000 OA
ENDROOT
BRANCH   1   9
ATOM      2  C   UNL     1       1.463   3.580  18.624  0.00  0.00    +0.000 C 
ATOM      3  C   UNL     1       2.905   4.049  18.390  0.00  0.00    +0.000 C 
ATOM      4  C   UNL     1       3.836   3.482  19.478  0.00  0.00    +0.000 C 
ATOM      5  C   UNL     1       3.399   3.596  17.012  0.00  0.00    +0.000 C 
ATOM      6  N   UNL     1       4.371   4.599  16.637  0.00  0.00    +0.000 N 
ATOM      7  C   UNL     1       4.135   5.798  17.301  0.00  0.00    +0.000 C 
ATOM      8  O   UNL     1       4.759   6.840  17.159  0.00  0.00    +0.000 OA
ATOM      9  C   UNL     1       2.960   5.597  18.260  0.00  0.00    +0.000 C 
BRANCH   6  10
ATOM     10  C   UNL     1       5.639   4.189  16.030  0.00  0.00    +0.000 C 
BRANCH  10  11
ATOM     11  C   UNL     1       6.933   4.622  16.723  0.00  0.00    +0.000 C 
BRANCH  11  12
ATOM     12  O   UNL     1       7.459   5.818  16.153  0.00  0.00    +0.000 OA
ATOM     13  H   UNL     1       8.390   5.606  15.924  0.00  0.00    +0.000 HD
ENDBRANCH  11  12
ENDBRANCH  10  11
ENDBRANCH   6  10
ENDBRANCH   1   9
BRANCH   1  14
ATOM     14  C   UNL     1       2.214   7.176  19.914  0.00  0.00    +0.000 A 
ATOM     15  C   UNL     1       1.436   7.115  21.069  0.00  0.00    +0.000 A 
ATOM     16  C   UNL     1       0.604   8.176  21.416  0.00  0.00    +0.000 A 
ATOM     17  C   UNL     1       0.511   9.314  20.614  0.00  0.00    +0.000 A 
ATOM     18  C   UNL     1       1.245   9.389  19.421  0.00  0.00    +0.000 A 
ATOM     19  C   UNL     1       2.090   8.300  19.085  0.00  0.00    +0.000 A 
BRANCH  18  20
ATOM     20  C   UNL     1       1.200  10.582  18.493  0.00  0.00    +0.000 C 
ATOM     21  F   UNL     1       1.531  11.769  19.061  0.00  0.00    +0.000 F 
ATOM     22  F   UNL     1       2.050  10.437  17.438  0.00  0.00    +0.000 F 
ATOM     23  F   UNL     1      -0.035  10.768  17.951  0.00  0.00    +0.000 F 
ENDBRANCH  18  20
BRANCH  17  24
ATOM     24  C   UNL     1      -0.352  10.368  21.067  0.00  0.00    +0.000 C 
ATOM     25  N   UNL     1      -1.064  11.229  21.395  0.00  0.00    +0.000 NA
ENDBRANCH  17  24
ENDBRANCH   1  14
TORSDOF 7
ENDMDL
MODEL 6
REMARK VINA RESULT:      -6.6      4.059      7.676
REMARK  Name = 
REMARK  9 active torsions:
REMARK  status: ('A' for Active; 'I' for Inactive)
REMARK    1  A    between atoms: C_1  and  C_2
REMARK    2  A    between atoms: C_2  and  C_3
REMARK    3  A    between atoms: N_5  and  C_6
REMARK    4  A    between atoms: C_6  and  C_7
REMARK    5  A    between atoms: C_7  and  O_8
REMARK    6  A    between atoms: C_11  and  O_12
REMARK    7  A    between atoms: O_12  and  C_13
REMARK    8  A    between atoms: C_16  and  C_17
REMARK    9  A    between atoms: C_19  and  C_20
REMARK                            x       y       z     vdW  Elec       q    Type
REMARK                         _______ _______ _______ _____ _____    ______ ____
ROOT
ATOM      1  O   UNL     1       1.551   9.244  18.120  0.00  0.00    +0.000 OA
ENDROOT
BRANCH   1   9
ATOM      2  C   UNL     1      -0.350   9.432  20.768  0.00  0.00    +0.000 C 
ATOM      3  C   UNL     1      -0.089  10.377  19.588  0.00  0.00    +0.000 C 
ATOM      4  C   UNL     1      -1.125  10.142  18.474  0.00  0.00    +0.000 C 
ATOM      5  C   UNL     1      -0.156  11.838  20.046  0.00  0.00    +0.000 C 
ATOM      6  N   UNL     1       0.729  12.534  19.139  0.00  0.00    +0.000 N 
ATOM      7  C   UNL     1       1.676  11.669  18.600  0.00  0.00    +0.000 C 
ATOM      8  O   UNL     1       2.584  11.972  17.838  0.00  0.00    +0.000 OA
ATOM      9  C   UNL     1       1.386  10.256  19.110  0.00  0.00    +0.000 C 
BRANCH   6  10
ATOM     10  C   UNL     1       0.322  13.821  18.573  0.00  0.00    +0.000 C 
BRANCH  10  11
ATOM     11  C   UNL     1       1.174  15.048  18.906  0.00  0.00    +0.000 C 
BRANCH  11  12
ATOM     12  O   UNL     1       2.444  14.997  18.261  0.00  0.00    +0.000 OA
ATOM     13  H   UNL     1       2.257  14.675  17.351  0.00  0.00    +0.000 HD
ENDBRANCH  11  12
ENDBRANCH  10  11
ENDBRANCH   6  10
ENDBRANCH   1   9
BRANCH   1  14
ATOM     14  C   UNL     1       2.313   8.146  18.422  0.00  0.00    +0.000 A 
ATOM     15  C   UNL     1       2.209   7.381  19.583  0.00  0.00    +0.000 A 
ATOM     16  C   UNL     1       2.971   6.227  19.738  0.00  0.00    +0.000 A 
ATOM     17  C   UNL     1       3.869   5.816  18.751  0.00  0.00    +0.000 A 
ATOM     18  C   UNL     1       4.032   6.587  17.591  0.00  0.00    +0.000 A 
ATOM     19  C   UNL     1       3.244   7.758  17.449  0.00  0.00    +0.000 A 
BRANCH  18  20
ATOM     20  C   UNL     1       4.984   6.216  16.476  0.00  0.00    +0.000 C 
ATOM     21  F   UNL     1       6.301   6.282  16.795  0.00  0.00    +0.000 F 
ATOM     22  F   UNL     1       4.781   4.940  16.039  0.00  0.00    +0.000 F 
ATOM     23  F   UNL     1       4.832   7.011  15.382  0.00  0.00    +0.000 F 
ENDBRANCH  18  20
BRANCH  17  24
ATOM     24  C   UNL     1       4.591   4.598  18.988  0.00  0.00    +0.000 C 
ATOM     25  N   UNL     1       5.205   3.631  19.203  0.00  0.00    +0.000 NA
ENDBRANCH  17  24
ENDBRANCH   1  14
TORSDOF 7
ENDMDL
MODEL 7
REMARK VINA RESULT:      -6.6      3.607      7.959
REMARK  Name = 
REMARK  9 active torsions:
REMARK  status: ('A' for Active; 'I' for Inactive)
REMARK    1  A    between atoms: C_1  and  C_2
REMARK    2  A    between atoms: C_2  and  C_3
REMARK    3  A    between atoms: N_5  and  C_6
REMARK    4  A    between atoms: C_6  and  C_7
REMARK    5  A    between atoms: C_7  and  O_8
REMARK    6  A    between atoms: C_11  and  O_12
REMARK    7  A    between atoms: O_12  and  C_13
REMARK    8  A    between atoms: C_16  and  C_17
REMARK    9  A    between atoms: C_19  and  C_20
REMARK                            x       y       z     vdW  Elec       q    Type
REMARK                         _______ _______ _______ _____ _____    ______ ____
ROOT
ATOM      1  O   UNL     1       1.552   8.804  20.854  0.00  0.00    +0.000 OA
ENDROOT
BRANCH   1   9
ATOM      2  C   UNL     1      -0.312  10.130  18.524  0.00  0.00    +0.000 C 
ATOM      3  C   UNL     1       0.028  10.539  19.962  0.00  0.00    +0.000 C 
ATOM      4  C   UNL     1       1.238  11.493  19.977  0.00  0.00    +0.000 C 
ATOM      5  C   UNL     1      -1.171  11.230  20.621  0.00  0.00    +0.000 C 
ATOM      6  N   UNL     1      -1.018  10.939  22.029  0.00  0.00    +0.000 N 
ATOM      7  C   UNL     1      -0.260   9.788  22.224  0.00  0.00    +0.000 C 
ATOM      8  O   UNL     1       0.003   9.267  23.298  0.00  0.00    +0.000 OA
ATOM      9  C   UNL     1       0.209   9.281  20.858  0.00  0.00    +0.000 C 
BRANCH   6  10
ATOM     10  C   UNL     1      -1.241  11.996  23.017  0.00  0.00    +0.000 C 
BRANCH  10  11
ATOM     11  C   UNL     1      -2.631  12.634  23.074  0.00  0.00    +0.000 C 
BRANCH  11  12
ATOM     12  O   UNL     1      -3.521  11.881  23.895  0.00  0.00    +0.000 OA
ATOM     13  H   UNL     1      -3.166  11.969  24.807  0.00  0.00    +0.000 HD
ENDBRANCH  11  12
ENDBRANCH  10  11
ENDBRANCH   6  10
ENDBRANCH   1   9
BRANCH   1  14
ATOM     14  C   UNL     1       1.884   7.779  20.007  0.00  0.00    +0.000 A 
ATOM     15  C   UNL     1       2.335   7.925  18.696  0.00  0.00    +0.000 A 
ATOM     16  C   UNL     1       2.736   6.812  17.961  0.00  0.00    +0.000 A 
ATOM     17  C   UNL     1       2.680   5.528  18.505  0.00  0.00    +0.000 A 
ATOM     18  C   UNL     1       2.188   5.342  19.806  0.00  0.00    +0.000 A 
ATOM     19  C   UNL     1       1.787   6.487  20.540  0.00  0.00    +0.000 A 
BRANCH  18  20
ATOM     20  C   UNL     1       2.091   3.985  20.469  0.00  0.00    +0.000 C 
ATOM     21  F   UNL     1       1.189   3.136  19.916  0.00  0.00    +0.000 F 
ATOM     22  F   UNL     1       3.280   3.320  20.439  0.00  0.00    +0.000 F 
ATOM     23  F   UNL     1       1.750   4.078  21.783  0.00  0.00    +0.000 F 
ENDBRANCH  18  20
BRANCH  17  24
ATOM     24  C   UNL     1       3.140   4.446  17.681  0.00  0.00    +0.000 C 
ATOM     25  N   UNL     1       3.491   3.541  17.036  0.00  0.00    +0.000 NA
ENDBRANCH  17  24
ENDBRANCH   1  14
TORSDOF 7
ENDMDL
MODEL 8
REMARK VINA RESULT:      -6.6      3.466      7.713
REMARK  Name = 
REMARK  9 active torsions:
REMARK  status: ('A' for Active; 'I' for Inactive)
REMARK    1  A    between atoms: C_1  and  C_2
REMARK    2  A    between atoms: C_2  and  C_3
REMARK    3  A    between atoms: N_5  and  C_6
REMARK    4  A    between atoms: C_6  and  C_7
REMARK    5  A    between atoms: C_7  and  O_8
REMARK    6  A    between atoms: C_11  and  O_12
REMARK    7  A    between atoms: O_12  and  C_13
REMARK    8  A    between atoms: C_16  and  C_17
REMARK    9  A    between atoms: C_19  and  C_20
REMARK                            x       y       z     vdW  Elec       q    Type
REMARK                         _______ _______ _______ _____ _____    ______ ____
ROOT
ATOM      1  O   UNL     1       1.567   9.026  20.873  0.00  0.00    +0.000 OA
ENDROOT
BRANCH   1   9
ATOM      2  C   UNL     1      -0.563  10.045  18.618  0.00  0.00    +0.000 C 
ATOM      3  C   UNL     1      -0.072  10.633  19.946  0.00  0.00    +0.000 C 
ATOM      4  C   UNL     1       1.118  11.582  19.705  0.00  0.00    +0.000 C 
ATOM      5  C   UNL     1      -1.200  11.401  20.642  0.00  0.00    +0.000 C 
ATOM      6  N   UNL     1      -0.888  11.291  22.050  0.00  0.00    +0.000 N 
ATOM      7  C   UNL     1      -0.096  10.175  22.302  0.00  0.00    +0.000 C 
ATOM      8  O   UNL     1       0.291   9.794  23.397  0.00  0.00    +0.000 OA
ATOM      9  C   UNL     1       0.226   9.500  20.967  0.00  0.00    +0.000 C 
BRANCH   6  10
ATOM     10  C   UNL     1      -1.016  12.465  22.916  0.00  0.00    +0.000 C 
BRANCH  10  11
ATOM     11  C   UNL     1      -0.609  13.823  22.340  0.00  0.00    +0.000 C 
BRANCH  11  12
ATOM     12  O   UNL     1       0.808  13.962  22.274  0.00  0.00    +0.000 OA
ATOM     13  H   UNL     1       0.972  14.578  21.526  0.00  0.00    +0.000 HD
ENDBRANCH  11  12
ENDBRANCH  10  11
ENDBRANCH   6  10
ENDBRANCH   1   9
BRANCH   1  14
ATOM     14  C   UNL     1       1.832   7.959  20.056  0.00  0.00    +0.000 A 
ATOM     15  C   UNL     1       2.184   8.038  18.708  0.00  0.00    +0.000 A 
ATOM     16  C   UNL     1       2.527   6.889  18.002  0.00  0.00    +0.000 A 
ATOM     17  C   UNL     1       2.510   5.633  18.610  0.00  0.00    +0.000 A 
ATOM     18  C   UNL     1       2.118   5.513  19.952  0.00  0.00    +0.000 A 
ATOM     19  C   UNL     1       1.775   6.695  20.657  0.00  0.00    +0.000 A 
BRANCH  18  20
ATOM     20  C   UNL     1       2.069   4.192  20.686  0.00  0.00    +0.000 C 
ATOM     21  F   UNL     1       2.091   4.283  22.040  0.00  0.00    +0.000 F 
ATOM     22  F   UNL     1       0.941   3.488  20.389  0.00  0.00    +0.000 F 
ATOM     23  F   UNL     1       3.111   3.380  20.357  0.00  0.00    +0.000 F 
ENDBRANCH  18  20
BRANCH  17  24
ATOM     24  C   UNL     1       2.906   4.510  17.809  0.00  0.00    +0.000 C 
ATOM     25  N   UNL     1       3.217   3.621  17.123  0.00  0.00    +0.000 NA
ENDBRANCH  17  24
ENDBRANCH   1  14
TORSDOF 7
ENDMDL
MODEL 9
REMARK VINA RESULT:      -6.5      1.747      2.982
REMARK  Name = 
REMARK  9 active torsions:
REMARK  status: ('A' for Active; 'I' for Inactive)
REMARK    1  A    between atoms: C_1  and  C_2
REMARK    2  A    between atoms: C_2  and  C_3
REMARK    3  A    between atoms: N_5  and  C_6
REMARK    4  A    between atoms: C_6  and  C_7
REMARK    5  A    between atoms: C_7  and  O_8
REMARK    6  A    between atoms: C_11  and  O_12
REMARK    7  A    between atoms: O_12  and  C_13
REMARK    8  A    between atoms: C_16  and  C_17
REMARK    9  A    between atoms: C_19  and  C_20
REMARK                            x       y       z     vdW  Elec       q    Type
REMARK                         _______ _______ _______ _____ _____    ______ ____
ROOT
ATOM      1  O   UNL     1       3.239   7.333  17.288  0.00  0.00    +0.000 OA
ENDROOT
BRANCH   1   9
ATOM      2  C   UNL     1       6.451   6.922  17.705  0.00  0.00    +0.000 C 
ATOM      3  C   UNL     1       5.319   5.992  17.251  0.00  0.00    +0.000 C 
ATOM      4  C   UNL     1       5.201   6.002  15.715  0.00  0.00    +0.000 C 
ATOM      5  C   UNL     1       5.577   4.560  17.731  0.00  0.00    +0.000 C 
ATOM      6  N   UNL     1       4.255   3.992  17.875  0.00  0.00    +0.000 N 
ATOM      7  C   UNL     1       3.301   4.985  18.071  0.00  0.00    +0.000 C 
ATOM      8  O   UNL     1       2.106   4.814  18.269  0.00  0.00    +0.000 OA
ATOM      9  C   UNL     1       3.996   6.346  17.985  0.00  0.00    +0.000 C 
BRANCH   6  10
ATOM     10  C   UNL     1       3.993   2.633  17.397  0.00  0.00    +0.000 C 
BRANCH  10  11
ATOM     11  C   UNL     1       3.408   1.628  18.392  0.00  0.00    +0.000 C 
BRANCH  11  12
ATOM     12  O   UNL     1       1.984   1.693  18.429  0.00  0.00    +0.000 OA
ATOM     13  H   UNL     1       1.714   1.935  17.516  0.00  0.00    +0.000 HD
ENDBRANCH  11  12
ENDBRANCH  10  11
ENDBRANCH   6  10
ENDBRANCH   1   9
BRANCH   1  14
ATOM     14  C   UNL     1       2.541   8.261  18.015  0.00  0.00    +0.000 A 
ATOM     15  C   UNL     1       2.206   9.544  17.583  0.00  0.00    +0.000 A 
ATOM     16  C   UNL     1       1.408  10.367  18.372  0.00  0.00    +0.000 A 
ATOM     17  C   UNL     1       0.940   9.943  19.618  0.00  0.00    +0.000 A 
ATOM     18  C   UNL     1       1.296   8.676  20.102  0.00  0.00    +0.000 A 
ATOM     19  C   UNL     1       2.107   7.850  19.282  0.00  0.00    +0.000 A 
BRANCH  18  20
ATOM     20  C   UNL     1       0.836   8.140  21.440  0.00  0.00    +0.000 C 
ATOM     21  F   UNL     1      -0.507   8.137  21.629  0.00  0.00    +0.000 F 
ATOM     22  F   UNL     1       1.232   6.851  21.633  0.00  0.00    +0.000 F 
ATOM     23  F   UNL     1       1.351   8.847  22.482  0.00  0.00    +0.000 F 
ENDBRANCH  18  20
BRANCH  17  24
ATOM     24  C   UNL     1       0.102  10.851  20.347  0.00  0.00    +0.000 C 
ATOM     25  N   UNL     1      -0.549  11.592  20.968  0.00  0.00    +0.000 NA
ENDBRANCH  17  24
ENDBRANCH   1  14
TORSDOF 7
ENDMDL
