MODEL 1
REMARK VINA RESULT:      -7.9      0.000      0.000
REMARK  Name = 
REMARK  2 active torsions:
REMARK  status: ('A' for Active; 'I' for Inactive)
REMARK    1  A    between atoms: C_1  and  S_2
REMARK    2  A    between atoms: S_2  and  N_5
REMARK                            x       y       z     vdW  Elec       q    Type
REMARK                         _______ _______ _______ _____ _____    ______ ____
ROOT
ATOM      1  N   UNL     1       5.647   4.695  17.352  0.00  0.00    +0.000 NA
ATOM      2  C   UNL     1       4.424   5.369  16.891  0.00  0.00    +0.000 C 
ATOM      3  C   UNL     1       3.688   6.272  17.862  0.00  0.00    +0.000 A 
ATOM      4  C   UNL     1       3.388   7.589  17.463  0.00  0.00    +0.000 A 
ATOM      5  C   UNL     1       2.539   8.398  18.222  0.00  0.00    +0.000 A 
ATOM      6  C   UNL     1       1.955   7.902  19.383  0.00  0.00    +0.000 A 
ATOM      7  C   UNL     1       2.229   6.601  19.797  0.00  0.00    +0.000 A 
ATOM      8  C   UNL     1       3.112   5.798  19.057  0.00  0.00    +0.000 A 
ATOM      9  N   UNL     1       3.412   4.506  19.541  0.00  0.00    +0.000 N 
ATOM     10  N   UNL     1       2.587   3.835  20.379  0.00  0.00    +0.000 NA
ATOM     11  N   UNL     1       3.121   2.648  20.626  0.00  0.00    +0.000 NA
ATOM     12  C   UNL     1       4.336   2.599  20.014  0.00  0.00    +0.000 A 
ATOM     13  C   UNL     1       4.565   3.783  19.347  0.00  0.00    +0.000 A 
ATOM     14  C   UNL     1       5.794   4.345  18.764  0.00  0.00    +0.000 C 
ENDROOT
BRANCH   1  16
ATOM     15  C   UNL     1       6.705   4.434  14.877  0.00  0.00    +0.000 C 
ATOM     16  S   UNL     1       7.086   5.013  16.519  0.00  0.00    +0.000 S 
ATOM     17  O   UNL     1       8.129   4.170  17.064  0.00  0.00    +0.000 OA
ATOM     18  O   UNL     1       7.251   6.448  16.443  0.00  0.00    +0.000 OA
ENDBRANCH   1  16
TORSDOF 1
ENDMDL
MODEL 2
REMARK VINA RESULT:      -7.8      2.629      4.243
REMARK  Name = 
REMARK  2 active torsions:
REMARK  status: ('A' for Active; 'I' for Inactive)
REMARK    1  A    between atoms: C_1  and  S_2
REMARK    2  A    between atoms: S_2  and  N_5
REMARK                            x       y       z     vdW  Elec       q    Type
REMARK                         _______ _______ _______ _____ _____    ______ ____
ROOT
ATOM      1  N   UNL     1       4.450   3.613  18.731  0.00  0.00    +0.000 NA
ATOM      2  C   UNL     1       4.427   4.882  19.472  0.00  0.00    +0.000 C 
ATOM      3  C   UNL     1       3.554   6.007  18.950  0.00  0.00    +0.000 A 
ATOM      4  C   UNL     1       2.633   6.610  19.829  0.00  0.00    +0.000 A 
ATOM      5  C   UNL     1       1.952   7.776  19.474  0.00  0.00    +0.000 A 
ATOM      6  C   UNL     1       2.192   8.378  18.242  0.00  0.00    +0.000 A 
ATOM      7  C   UNL     1       3.103   7.806  17.356  0.00  0.00    +0.000 A 
ATOM      8  C   UNL     1       3.760   6.613  17.694  0.00  0.00    +0.000 A 
ATOM      9  N   UNL     1       4.630   6.032  16.746  0.00  0.00    +0.000 N 
ATOM     10  N   UNL     1       5.215   6.753  15.761  0.00  0.00    +0.000 NA
ATOM     11  N   UNL     1       5.994   5.942  15.059  0.00  0.00    +0.000 NA
ATOM     12  C   UNL     1       5.833   4.681  15.546  0.00  0.00    +0.000 A 
ATOM     13  C   UNL     1       4.942   4.701  16.596  0.00  0.00    +0.000 A 
ATOM     14  C   UNL     1       4.230   3.612  17.285  0.00  0.00    +0.000 C 
ENDROOT
BRANCH   1  16
ATOM     15  C   UNL     1       2.581   2.794  20.506  0.00  0.00    +0.000 C 
ATOM     16  S   UNL     1       3.966   2.211  19.548  0.00  0.00    +0.000 S 
ATOM     17  O   UNL     1       5.018   1.826  20.464  0.00  0.00    +0.000 OA
ATOM     18  O   UNL     1       3.451   1.279  18.570  0.00  0.00    +0.000 OA
ENDBRANCH   1  16
TORSDOF 1
ENDMDL
MODEL 3
REMARK VINA RESULT:      -7.7      0.936      1.223
REMARK  Name = 
REMARK  2 active torsions:
REMARK  status: ('A' for Active; 'I' for Inactive)
REMARK    1  A    between atoms: C_1  and  S_2
REMARK    2  A    between atoms: S_2  and  N_5
REMARK                            x       y       z     vdW  Elec       q    Type
REMARK                         _______ _______ _______ _____ _____    ______ ____
ROOT
ATOM      1  N   UNL     1       5.532   4.934  17.402  0.00  0.00    +0.000 NA
ATOM      2  C   UNL     1       4.268   5.578  17.019  0.00  0.00    +0.000 C 
ATOM      3  C   UNL     1       3.518   6.377  18.068  0.00  0.00    +0.000 A 
ATOM      4  C   UNL     1       3.147   7.702  17.768  0.00  0.00    +0.000 A 
ATOM      5  C   UNL     1       2.284   8.417  18.601  0.00  0.00    +0.000 A 
ATOM      6  C   UNL     1       1.756   7.817  19.740  0.00  0.00    +0.000 A 
ATOM      7  C   UNL     1       2.101   6.505  20.057  0.00  0.00    +0.000 A 
ATOM      8  C   UNL     1       2.999   5.796  19.242  0.00  0.00    +0.000 A 
ATOM      9  N   UNL     1       3.371   4.491  19.628  0.00  0.00    +0.000 N 
ATOM     10  N   UNL     1       2.601   3.726  20.438  0.00  0.00    +0.000 NA
ATOM     11  N   UNL     1       3.196   2.552  20.590  0.00  0.00    +0.000 NA
ATOM     12  C   UNL     1       4.394   2.602  19.946  0.00  0.00    +0.000 A 
ATOM     13  C   UNL     1       4.550   3.838  19.356  0.00  0.00    +0.000 A 
ATOM     14  C   UNL     1       5.735   4.496  18.782  0.00  0.00    +0.000 C 
ENDROOT
BRANCH   1  16
ATOM     15  C   UNL     1       7.387   6.901  17.358  0.00  0.00    +0.000 C 
ATOM     16  S   UNL     1       6.932   5.375  16.557  0.00  0.00    +0.000 S 
ATOM     17  O   UNL     1       6.568   5.675  15.189  0.00  0.00    +0.000 OA
ATOM     18  O   UNL     1       7.961   4.405  16.860  0.00  0.00    +0.000 OA
ENDBRANCH   1  16
TORSDOF 1
ENDMDL
MODEL 4
REMARK VINA RESULT:      -7.6      2.657      4.187
REMARK  Name = 
REMARK  2 active torsions:
REMARK  status: ('A' for Active; 'I' for Inactive)
REMARK    1  A    between atoms: C_1  and  S_2
REMARK    2  A    between atoms: S_2  and  N_5
REMARK                            x       y       z     vdW  Elec       q    Type
REMARK                         _______ _______ _______ _____ _____    ______ ____
ROOT
ATOM      1  N   UNL     1       4.439   3.799  18.897  0.00  0.00    +0.000 NA
ATOM      2  C   UNL     1       4.385   5.103  19.574  0.00  0.00    +0.000 C 
ATOM      3  C   UNL     1       3.502   6.186  18.982  0.00  0.00    +0.000 A 
ATOM      4  C   UNL     1       2.559   6.817  19.815  0.00  0.00    +0.000 A 
ATOM      5  C   UNL     1       1.865   7.953  19.391  0.00  0.00    +0.000 A 
ATOM      6  C   UNL     1       2.116   8.496  18.134  0.00  0.00    +0.000 A 
ATOM      7  C   UNL     1       3.049   7.895  17.293  0.00  0.00    +0.000 A 
ATOM      8  C   UNL     1       3.720   6.731  17.701  0.00  0.00    +0.000 A 
ATOM      9  N   UNL     1       4.614   6.118  16.797  0.00  0.00    +0.000 N 
ATOM     10  N   UNL     1       5.203   6.798  15.785  0.00  0.00    +0.000 NA
ATOM     11  N   UNL     1       6.006   5.966  15.137  0.00  0.00    +0.000 NA
ATOM     12  C   UNL     1       5.858   4.729  15.684  0.00  0.00    +0.000 A 
ATOM     13  C   UNL     1       4.949   4.787  16.718  0.00  0.00    +0.000 A 
ATOM     14  C   UNL     1       4.243   3.722  17.450  0.00  0.00    +0.000 C 
ENDROOT
BRANCH   1  16
ATOM     15  C   UNL     1       3.496   1.299  18.484  0.00  0.00    +0.000 C 
ATOM     16  S   UNL     1       3.965   2.432  19.777  0.00  0.00    +0.000 S 
ATOM     17  O   UNL     1       2.779   2.763  20.538  0.00  0.00    +0.000 OA
ATOM     18  O   UNL     1       5.138   1.887  20.423  0.00  0.00    +0.000 OA
ENDBRANCH   1  16
TORSDOF 1
ENDMDL
MODEL 5
REMARK VINA RESULT:      -7.5      1.854      3.585
REMARK  Name = 
REMARK  2 active torsions:
REMARK  status: ('A' for Active; 'I' for Inactive)
REMARK    1  A    between atoms: C_1  and  S_2
REMARK    2  A    between atoms: S_2  and  N_5
REMARK                            x       y       z     vdW  Elec       q    Type
REMARK                         _______ _______ _______ _____ _____    ______ ____
ROOT
ATOM      1  N   UNL     1       5.756   5.308  17.319  0.00  0.00    +0.000 NA
ATOM      2  C   UNL     1       5.317   4.364  18.357  0.00  0.00    +0.000 C 
ATOM      3  C   UNL     1       3.919   3.782  18.259  0.00  0.00    +0.000 A 
ATOM      4  C   UNL     1       3.766   2.384  18.308  0.00  0.00    +0.000 A 
ATOM      5  C   UNL     1       2.503   1.799  18.430  0.00  0.00    +0.000 A 
ATOM      6  C   UNL     1       1.369   2.599  18.528  0.00  0.00    +0.000 A 
ATOM      7  C   UNL     1       1.493   3.986  18.489  0.00  0.00    +0.000 A 
ATOM      8  C   UNL     1       2.757   4.576  18.328  0.00  0.00    +0.000 A 
ATOM      9  N   UNL     1       2.835   5.982  18.233  0.00  0.00    +0.000 N 
ATOM     10  N   UNL     1       1.878   6.798  18.734  0.00  0.00    +0.000 NA
ATOM     11  N   UNL     1       2.247   8.053  18.522  0.00  0.00    +0.000 NA
ATOM     12  C   UNL     1       3.403   8.033  17.802  0.00  0.00    +0.000 A 
ATOM     13  C   UNL     1       3.780   6.729  17.571  0.00  0.00    +0.000 A 
ATOM     14  C   UNL     1       4.773   6.156  16.646  0.00  0.00    +0.000 C 
ENDROOT
BRANCH   1  16
ATOM     15  C   UNL     1       6.443   3.778  15.198  0.00  0.00    +0.000 C 
ATOM     16  S   UNL     1       7.121   4.899  16.406  0.00  0.00    +0.000 S 
ATOM     17  O   UNL     1       8.033   4.155  17.249  0.00  0.00    +0.000 OA
ATOM     18  O   UNL     1       7.557   6.082  15.699  0.00  0.00    +0.000 OA
ENDBRANCH   1  16
TORSDOF 1
ENDMDL
MODEL 6
REMARK VINA RESULT:      -7.3      1.645      3.540
REMARK  Name = 
REMARK  2 active torsions:
REMARK  status: ('A' for Active; 'I' for Inactive)
REMARK    1  A    between atoms: C_1  and  S_2
REMARK    2  A    between atoms: S_2  and  N_5
REMARK                            x       y       z     vdW  Elec       q    Type
REMARK                         _______ _______ _______ _____ _____    ______ ____
ROOT
ATOM      1  N   UNL     1       5.733   5.630  17.620  0.00  0.00    +0.000 NA
ATOM      2  C   UNL     1       5.630   5.073  18.977  0.00  0.00    +0.000 C 
ATOM      3  C   UNL     1       4.335   4.396  19.383  0.00  0.00    +0.000 A 
ATOM      4  C   UNL     1       4.392   3.093  19.913  0.00  0.00    +0.000 A 
ATOM      5  C   UNL     1       3.269   2.498  20.492  0.00  0.00    +0.000 A 
ATOM      6  C   UNL     1       2.070   3.200  20.575  0.00  0.00    +0.000 A 
ATOM      7  C   UNL     1       1.988   4.494  20.065  0.00  0.00    +0.000 A 
ATOM      8  C   UNL     1       3.104   5.081  19.447  0.00  0.00    +0.000 A 
ATOM      9  N   UNL     1       2.964   6.369  18.889  0.00  0.00    +0.000 N 
ATOM     10  N   UNL     1       2.009   7.238  19.299  0.00  0.00    +0.000 NA
ATOM     11  N   UNL     1       2.153   8.365  18.617  0.00  0.00    +0.000 NA
ATOM     12  C   UNL     1       3.147   8.181  17.706  0.00  0.00    +0.000 A 
ATOM     13  C   UNL     1       3.657   6.907  17.830  0.00  0.00    +0.000 A 
ATOM     14  C   UNL     1       4.533   6.122  16.945  0.00  0.00    +0.000 C 
ENDROOT
BRANCH   1  16
ATOM     15  C   UNL     1       6.072   3.819  15.641  0.00  0.00    +0.000 C 
ATOM     16  S   UNL     1       6.951   5.029  16.610  0.00  0.00    +0.000 S 
ATOM     17  O   UNL     1       7.924   4.333  17.426  0.00  0.00    +0.000 OA
ATOM     18  O   UNL     1       7.352   6.091  15.714  0.00  0.00    +0.000 OA
ENDBRANCH   1  16
TORSDOF 1
ENDMDL
MODEL 7
REMARK VINA RESULT:      -7.1      3.539      5.105
REMARK  Name = 
REMARK  2 active torsions:
REMARK  status: ('A' for Active; 'I' for Inactive)
REMARK    1  A    between atoms: C_1  and  S_2
REMARK    2  A    between atoms: S_2  and  N_5
REMARK                            x       y       z     vdW  Elec       q    Type
REMARK                         _______ _______ _______ _____ _____    ______ ____
ROOT
ATOM      1  N   UNL     1       2.382   4.267  19.605  0.00  0.00    +0.000 NA
ATOM      2  C   UNL     1       2.541   4.026  18.164  0.00  0.00    +0.000 C 
ATOM      3  C   UNL     1       3.714   4.670  17.450  0.00  0.00    +0.000 A 
ATOM      4  C   UNL     1       4.568   3.854  16.683  0.00  0.00    +0.000 A 
ATOM      5  C   UNL     1       5.535   4.409  15.842  0.00  0.00    +0.000 A 
ATOM      6  C   UNL     1       5.656   5.791  15.733  0.00  0.00    +0.000 A 
ATOM      7  C   UNL     1       4.820   6.621  16.475  0.00  0.00    +0.000 A 
ATOM      8  C   UNL     1       3.872   6.067  17.350  0.00  0.00    +0.000 A 
ATOM      9  N   UNL     1       3.085   6.941  18.130  0.00  0.00    +0.000 N 
ATOM     10  N   UNL     1       2.856   8.226  17.772  0.00  0.00    +0.000 NA
ATOM     11  N   UNL     1       2.061   8.776  18.679  0.00  0.00    +0.000 NA
ATOM     12  C   UNL     1       1.858   7.861  19.667  0.00  0.00    +0.000 A 
ATOM     13  C   UNL     1       2.528   6.697  19.363  0.00  0.00    +0.000 A 
ATOM     14  C   UNL     1       2.854   5.522  20.189  0.00  0.00    +0.000 C 
ENDROOT
BRANCH   1  16
ATOM     15  C   UNL     1       4.053   2.300  20.414  0.00  0.00    +0.000 C 
ATOM     16  S   UNL     1       2.398   2.924  20.637  0.00  0.00    +0.000 S 
ATOM     17  O   UNL     1       1.471   1.938  20.125  0.00  0.00    +0.000 OA
ATOM     18  O   UNL     1       2.299   3.405  21.998  0.00  0.00    +0.000 OA
ENDBRANCH   1  16
TORSDOF 1
ENDMDL
MODEL 8
REMARK VINA RESULT:      -7.0      1.922      3.692
REMARK  Name = 
REMARK  2 active torsions:
REMARK  status: ('A' for Active; 'I' for Inactive)
REMARK    1  A    between atoms: C_1  and  S_2
REMARK    2  A    between atoms: S_2  and  N_5
REMARK                            x       y       z     vdW  Elec       q    Type
REMARK                         _______ _______ _______ _____ _____    ______ ____
ROOT
ATOM      1  N   UNL     1       4.864   6.165  17.931  0.00  0.00    +0.000 NA
ATOM      2  C   UNL     1       5.016   4.890  18.646  0.00  0.00    +0.000 C 
ATOM      3  C   UNL     1       3.840   3.932  18.672  0.00  0.00    +0.000 A 
ATOM      4  C   UNL     1       4.046   2.600  18.264  0.00  0.00    +0.000 A 
ATOM      5  C   UNL     1       3.064   1.625  18.457  0.00  0.00    +0.000 A 
ATOM      6  C   UNL     1       1.866   1.955  19.083  0.00  0.00    +0.000 A 
ATOM      7  C   UNL     1       1.639   3.264  19.502  0.00  0.00    +0.000 A 
ATOM      8  C   UNL     1       2.608   4.254  19.275  0.00  0.00    +0.000 A 
ATOM      9  N   UNL     1       2.317   5.581  19.660  0.00  0.00    +0.000 N 
ATOM     10  N   UNL     1       1.405   5.875  20.617  0.00  0.00    +0.000 NA
ATOM     11  N   UNL     1       1.380   7.190  20.777  0.00  0.00    +0.000 NA
ATOM     12  C   UNL     1       2.215   7.741  19.854  0.00  0.00    +0.000 A 
ATOM     13  C   UNL     1       2.796   6.743  19.103  0.00  0.00    +0.000 A 
ATOM     14  C   UNL     1       3.547   6.793  17.837  0.00  0.00    +0.000 C 
ENDROOT
BRANCH   1  16
ATOM     15  C   UNL     1       6.745   4.915  16.444  0.00  0.00    +0.000 C 
ATOM     16  S   UNL     1       5.922   6.483  16.648  0.00  0.00    +0.000 S 
ATOM     17  O   UNL     1       6.902   7.453  17.088  0.00  0.00    +0.000 OA
ATOM     18  O   UNL     1       5.129   6.711  15.460  0.00  0.00    +0.000 OA
ENDBRANCH   1  16
TORSDOF 1
ENDMDL
MODEL 9
REMARK VINA RESULT:      -7.0      3.277      5.081
REMARK  Name = 
REMARK  2 active torsions:
REMARK  status: ('A' for Active; 'I' for Inactive)
REMARK    1  A    between atoms: C_1  and  S_2
REMARK    2  A    between atoms: S_2  and  N_5
REMARK                            x       y       z     vdW  Elec       q    Type
REMARK                         _______ _______ _______ _____ _____    ______ ____
ROOT
ATOM      1  N   UNL     1       2.692   4.038  19.214  0.00  0.00    +0.000 NA
ATOM      2  C   UNL     1       2.898   3.861  17.769  0.00  0.00    +0.000 C 
ATOM      3  C   UNL     1       4.080   4.556  17.119  0.00  0.00    +0.000 A 
ATOM      4  C   UNL     1       4.971   3.788  16.344  0.00  0.00    +0.000 A 
ATOM      5  C   UNL     1       5.952   4.395  15.557  0.00  0.00    +0.000 A 
ATOM      6  C   UNL     1       6.050   5.782  15.509  0.00  0.00    +0.000 A 
ATOM      7  C   UNL     1       5.177   6.566  16.260  0.00  0.00    +0.000 A 
ATOM      8  C   UNL     1       4.214   5.958  17.082  0.00  0.00    +0.000 A 
ATOM      9  N   UNL     1       3.388   6.784  17.874  0.00  0.00    +0.000 N 
ATOM     10  N   UNL     1       3.145   8.079  17.563  0.00  0.00    +0.000 NA
ATOM     11  N   UNL     1       2.314   8.576  18.468  0.00  0.00    +0.000 NA
ATOM     12  C   UNL     1       2.099   7.617  19.410  0.00  0.00    +0.000 A 
ATOM     13  C   UNL     1       2.800   6.478  19.079  0.00  0.00    +0.000 A 
ATOM     14  C   UNL     1       3.123   5.275  19.863  0.00  0.00    +0.000 C 
ENDROOT
BRANCH   1  16
ATOM     15  C   UNL     1       2.010   3.263  21.714  0.00  0.00    +0.000 C 
ATOM     16  S   UNL     1       2.704   2.654  20.189  0.00  0.00    +0.000 S 
ATOM     17  O   UNL     1       4.080   2.278  20.438  0.00  0.00    +0.000 OA
ATOM     18  O   UNL     1       1.761   1.708  19.634  0.00  0.00    +0.000 OA
ENDBRANCH   1  16
TORSDOF 1
ENDMDL
