MODEL 1
REMARK VINA RESULT:      -7.3      0.000      0.000
REMARK  Name = 
REMARK  5 active torsions:
REMARK  status: ('A' for Active; 'I' for Inactive)
REMARK    1  A    between atoms: C_1  and  O_2
REMARK    2  A    between atoms: O_2  and  C_3
REMARK    3  A    between atoms: C_7  and  C_8
REMARK    4  A    between atoms: N_24  and  C_25
REMARK    5  A    between atoms: C_28  and  C_29
REMARK                            x       y       z     vdW  Elec       q    Type
REMARK                         _______ _______ _______ _____ _____    ______ ____
ROOT
ATOM      1  C   UNL     1       9.010  14.491  20.614  0.00  0.00    +0.000 C 
ATOM      2  O   UNL     1       7.628  14.185  20.313  0.00  0.00    +0.000 OA
ATOM      3  C   UNL     1       6.835  15.178  21.034  0.00  0.00    +0.000 C 
ATOM      4  C   UNL     1       5.437  14.748  21.520  0.00  0.00    +0.000 C 
ATOM      5  O   UNL     1       5.135  14.098  22.498  0.00  0.00    +0.000 OA
ATOM      6  C   UNL     1       4.452  15.103  20.523  0.00  0.00    +0.000 A 
ATOM      7  C   UNL     1       3.138  14.684  20.558  0.00  0.00    +0.000 A 
ATOM      8  C   UNL     1       2.526  14.479  19.332  0.00  0.00    +0.000 A 
ATOM      9  C   UNL     1       3.255  14.689  18.146  0.00  0.00    +0.000 A 
ATOM     10  C   UNL     1       4.544  15.262  18.161  0.00  0.00    +0.000 A 
ATOM     11  C   UNL     1       5.105  15.541  19.390  0.00  0.00    +0.000 A 
ATOM     12  C   UNL     1       6.462  15.981  19.778  0.00  0.00    +0.000 C 
ATOM     13  O   UNL     1       7.154  16.755  19.149  0.00  0.00    +0.000 OA
ATOM     14  C   UNL     1       7.728  15.667  22.182  0.00  0.00    +0.000 C 
ATOM     15  C   UNL     1       7.238  15.284  23.574  0.00  0.00    +0.000 C 
ATOM     16  O   UNL     1       6.584  16.048  24.264  0.00  0.00    +0.000 OA
ATOM     17  N   UNL     1       7.644  13.988  23.837  0.00  0.00    +0.000 N 
ATOM     18  C   UNL     1       8.464  13.540  22.833  0.00  0.00    +0.000 C 
ATOM     19  O   UNL     1       8.719  12.387  22.518  0.00  0.00    +0.000 OA
ATOM     20  C   UNL     1       8.940  14.753  22.083  0.00  0.00    +0.000 C 
ENDROOT
BRANCH  17  21
ATOM     21  C   UNL     1       7.132  13.099  24.823  0.00  0.00    +0.000 A 
ATOM     22  C   UNL     1       6.223  12.081  24.525  0.00  0.00    +0.000 A 
ATOM     23  C   UNL     1       5.838  11.162  25.513  0.00  0.00    +0.000 A 
ATOM     24  C   UNL     1       6.326  11.265  26.820  0.00  0.00    +0.000 A 
ATOM     25  C   UNL     1       5.903  10.321  27.903  0.00  0.00    +0.000 C 
ATOM     26  C   UNL     1       7.219  12.288  27.127  0.00  0.00    +0.000 A 
ATOM     27  C   UNL     1       7.613  13.188  26.142  0.00  0.00    +0.000 A 
ENDBRANCH  17  21
BRANCH   1  32
ATOM     28  C   UNL     1      10.322  11.593  18.587  0.00  0.00    +0.000 A 
ATOM     29  C   UNL     1      11.698  11.815  18.609  0.00  0.00    +0.000 A 
ATOM     30  C   UNL     1      12.235  12.850  19.373  0.00  0.00    +0.000 A 
ATOM     31  C   UNL     1      11.388  13.702  20.082  0.00  0.00    +0.000 A 
ATOM     32  C   UNL     1      10.000  13.504  20.059  0.00  0.00    +0.000 A 
ATOM     33  C   UNL     1       9.487  12.418  19.339  0.00  0.00    +0.000 A 
BRANCH  28  35
ATOM     34  C   UNL     1       8.779   9.830  18.253  0.00  0.00    +0.000 C 
ATOM     35  O   UNL     1       9.895  10.577  17.776  0.00  0.00    +0.000 OA
ENDBRANCH  28  35
ENDBRANCH   1  32
TORSDOF 3
ENDMDL
MODEL 2
REMARK VINA RESULT:      -7.2      5.931      8.728
REMARK  Name = 
REMARK  5 active torsions:
REMARK  status: ('A' for Active; 'I' for Inactive)
REMARK    1  A    between atoms: C_1  and  O_2
REMARK    2  A    between atoms: O_2  and  C_3
REMARK    3  A    between atoms: C_7  and  C_8
REMARK    4  A    between atoms: N_24  and  C_25
REMARK    5  A    between atoms: C_28  and  C_29
REMARK                            x       y       z     vdW  Elec       q    Type
REMARK                         _______ _______ _______ _____ _____    ______ ____
ROOT
ATOM      1  C   UNL     1       0.082  11.639  18.908  0.00  0.00    +0.000 C 
ATOM      2  O   UNL     1      -0.304  12.113  20.221  0.00  0.00    +0.000 OA
ATOM      3  C   UNL     1      -1.032  13.358  19.995  0.00  0.00    +0.000 C 
ATOM      4  C   UNL     1      -0.944  14.437  21.093  0.00  0.00    +0.000 C 
ATOM      5  O   UNL     1      -0.057  15.235  21.310  0.00  0.00    +0.000 OA
ATOM      6  C   UNL     1      -2.055  14.285  22.005  0.00  0.00    +0.000 A 
ATOM      7  C   UNL     1      -2.164  14.962  23.203  0.00  0.00    +0.000 A 
ATOM      8  C   UNL     1      -2.805  14.290  24.230  0.00  0.00    +0.000 A 
ATOM      9  C   UNL     1      -3.289  12.985  24.016  0.00  0.00    +0.000 A 
ATOM     10  C   UNL     1      -3.289  12.398  22.733  0.00  0.00    +0.000 A 
ATOM     11  C   UNL     1      -2.723  13.118  21.700  0.00  0.00    +0.000 A 
ATOM     12  C   UNL     1      -2.413  12.758  20.301  0.00  0.00    +0.000 C 
ATOM     13  O   UNL     1      -3.094  12.045  19.593  0.00  0.00    +0.000 OA
ATOM     14  C   UNL     1      -0.557  13.875  18.630  0.00  0.00    +0.000 C 
ATOM     15  C   UNL     1       0.249  15.167  18.686  0.00  0.00    +0.000 C 
ATOM     16  O   UNL     1      -0.261  16.258  18.494  0.00  0.00    +0.000 OA
ATOM     17  N   UNL     1       1.559  14.851  18.999  0.00  0.00    +0.000 N 
ATOM     18  C   UNL     1       1.723  13.489  19.010  0.00  0.00    +0.000 C 
ATOM     19  O   UNL     1       2.586  12.832  19.573  0.00  0.00    +0.000 OA
ATOM     20  C   UNL     1       0.554  12.902  18.267  0.00  0.00    +0.000 C 
ENDROOT
BRANCH  17  21
ATOM     21  C   UNL     1       2.568  15.719  19.502  0.00  0.00    +0.000 A 
ATOM     22  C   UNL     1       2.636  16.102  20.844  0.00  0.00    +0.000 A 
ATOM     23  C   UNL     1       3.717  16.867  21.309  0.00  0.00    +0.000 A 
ATOM     24  C   UNL     1       4.725  17.292  20.437  0.00  0.00    +0.000 A 
ATOM     25  C   UNL     1       5.868  18.142  20.898  0.00  0.00    +0.000 C 
ATOM     26  C   UNL     1       4.651  16.929  19.095  0.00  0.00    +0.000 A 
ATOM     27  C   UNL     1       3.589  16.155  18.639  0.00  0.00    +0.000 A 
ENDBRANCH  17  21
BRANCH   1  32
ATOM     28  C   UNL     1       1.444   8.307  20.039  0.00  0.00    +0.000 A 
ATOM     29  C   UNL     1       2.179   7.895  18.928  0.00  0.00    +0.000 A 
ATOM     30  C   UNL     1       2.336   8.742  17.831  0.00  0.00    +0.000 A 
ATOM     31  C   UNL     1       1.712   9.990  17.821  0.00  0.00    +0.000 A 
ATOM     32  C   UNL     1       0.954  10.414  18.922  0.00  0.00    +0.000 A 
ATOM     33  C   UNL     1       0.865   9.575  20.041  0.00  0.00    +0.000 A 
BRANCH  28  35
ATOM     34  C   UNL     1       1.687   6.052  20.713  0.00  0.00    +0.000 C 
ATOM     35  O   UNL     1       1.318   7.388  21.044  0.00  0.00    +0.000 OA
ENDBRANCH  28  35
ENDBRANCH   1  32
TORSDOF 3
ENDMDL
MODEL 3
REMARK VINA RESULT:      -7.1      6.180      9.466
REMARK  Name = 
REMARK  5 active torsions:
REMARK  status: ('A' for Active; 'I' for Inactive)
REMARK    1  A    between atoms: C_1  and  O_2
REMARK    2  A    between atoms: O_2  and  C_3
REMARK    3  A    between atoms: C_7  and  C_8
REMARK    4  A    between atoms: N_24  and  C_25
REMARK    5  A    between atoms: C_28  and  C_29
REMARK                            x       y       z     vdW  Elec       q    Type
REMARK                         _______ _______ _______ _____ _____    ______ ____
ROOT
ATOM      1  C   UNL     1       1.305  10.841  20.390  0.00  0.00    +0.000 C 
ATOM      2  O   UNL     1       1.421  12.037  19.582  0.00  0.00    +0.000 OA
ATOM      3  C   UNL     1       0.859  13.117  20.388  0.00  0.00    +0.000 C 
ATOM      4  C   UNL     1       0.180  14.280  19.637  0.00  0.00    +0.000 C 
ATOM      5  O   UNL     1      -0.934  14.333  19.160  0.00  0.00    +0.000 OA
ATOM      6  C   UNL     1       1.143  15.333  19.411  0.00  0.00    +0.000 A 
ATOM      7  C   UNL     1       0.913  16.424  18.598  0.00  0.00    +0.000 A 
ATOM      8  C   UNL     1       2.015  16.936  17.933  0.00  0.00    +0.000 A 
ATOM      9  C   UNL     1       3.275  16.332  18.103  0.00  0.00    +0.000 A 
ATOM     10  C   UNL     1       3.486  15.318  19.061  0.00  0.00    +0.000 A 
ATOM     11  C   UNL     1       2.392  14.878  19.778  0.00  0.00    +0.000 A 
ATOM     12  C   UNL     1       2.218  13.752  20.719  0.00  0.00    +0.000 C 
ATOM     13  O   UNL     1       3.049  13.372  21.519  0.00  0.00    +0.000 OA
ATOM     14  C   UNL     1      -0.086  12.438  21.390  0.00  0.00    +0.000 C 
ATOM     15  C   UNL     1      -1.562  12.757  21.187  0.00  0.00    +0.000 C 
ATOM     16  O   UNL     1      -2.131  13.629  21.822  0.00  0.00    +0.000 OA
ATOM     17  N   UNL     1      -2.054  11.930  20.193  0.00  0.00    +0.000 N 
ATOM     18  C   UNL     1      -1.100  11.013  19.832  0.00  0.00    +0.000 C 
ATOM     19  O   UNL     1      -1.011  10.379  18.790  0.00  0.00    +0.000 OA
ATOM     20  C   UNL     1      -0.078  10.988  20.935  0.00  0.00    +0.000 C 
ENDROOT
BRANCH  17  21
ATOM     21  C   UNL     1      -3.242  12.098  19.429  0.00  0.00    +0.000 A 
ATOM     22  C   UNL     1      -3.364  11.648  18.111  0.00  0.00    +0.000 A 
ATOM     23  C   UNL     1      -4.594  11.738  17.442  0.00  0.00    +0.000 A 
ATOM     24  C   UNL     1      -5.710  12.309  18.063  0.00  0.00    +0.000 A 
ATOM     25  C   UNL     1      -7.024  12.453  17.360  0.00  0.00    +0.000 C 
ATOM     26  C   UNL     1      -5.589  12.776  19.369  0.00  0.00    +0.000 A 
ATOM     27  C   UNL     1      -4.373  12.670  20.037  0.00  0.00    +0.000 A 
ENDBRANCH  17  21
BRANCH   1  32
ATOM     28  C   UNL     1       1.873   7.152  19.842  0.00  0.00    +0.000 A 
ATOM     29  C   UNL     1       2.065   7.084  18.463  0.00  0.00    +0.000 A 
ATOM     30  C   UNL     1       2.121   8.249  17.699  0.00  0.00    +0.000 A 
ATOM     31  C   UNL     1       1.934   9.490  18.308  0.00  0.00    +0.000 A 
ATOM     32  C   UNL     1       1.724   9.577  19.692  0.00  0.00    +0.000 A 
ATOM     33  C   UNL     1       1.738   8.399  20.450  0.00  0.00    +0.000 A 
BRANCH  28  35
ATOM     34  C   UNL     1       2.779   4.986  20.135  0.00  0.00    +0.000 C 
ATOM     35  O   UNL     1       1.794   5.951  20.493  0.00  0.00    +0.000 OA
ENDBRANCH  28  35
ENDBRANCH   1  32
TORSDOF 3
ENDMDL
MODEL 4
REMARK VINA RESULT:      -7.1      6.025      9.391
REMARK  Name = 
REMARK  5 active torsions:
REMARK  status: ('A' for Active; 'I' for Inactive)
REMARK    1  A    between atoms: C_1  and  O_2
REMARK    2  A    between atoms: O_2  and  C_3
REMARK    3  A    between atoms: C_7  and  C_8
REMARK    4  A    between atoms: N_24  and  C_25
REMARK    5  A    between atoms: C_28  and  C_29
REMARK                            x       y       z     vdW  Elec       q    Type
REMARK                         _______ _______ _______ _____ _____    ______ ____
ROOT
ATOM      1  C   UNL     1       1.086  10.725  20.689  0.00  0.00    +0.000 C 
ATOM      2  O   UNL     1       1.302  11.808  19.753  0.00  0.00    +0.000 OA
ATOM      3  C   UNL     1       0.840  13.016  20.432  0.00  0.00    +0.000 C 
ATOM      4  C   UNL     1       0.261  14.143  19.553  0.00  0.00    +0.000 C 
ATOM      5  O   UNL     1      -0.846  14.239  19.066  0.00  0.00    +0.000 OA
ATOM      6  C   UNL     1       1.312  15.076  19.216  0.00  0.00    +0.000 A 
ATOM      7  C   UNL     1       1.173  16.086  18.285  0.00  0.00    +0.000 A 
ATOM      8  C   UNL     1       2.313  16.423  17.573  0.00  0.00    +0.000 A 
ATOM      9  C   UNL     1       3.517  15.734  17.816  0.00  0.00    +0.000 A 
ATOM     10  C   UNL     1       3.643  14.819  18.881  0.00  0.00    +0.000 A 
ATOM     11  C   UNL     1       2.518  14.558  19.637  0.00  0.00    +0.000 A 
ATOM     12  C   UNL     1       2.250  13.563  20.697  0.00  0.00    +0.000 C 
ATOM     13  O   UNL     1       3.049  13.203  21.538  0.00  0.00    +0.000 OA
ATOM     14  C   UNL     1      -0.156  12.538  21.497  0.00  0.00    +0.000 C 
ATOM     15  C   UNL     1      -1.600  12.960  21.253  0.00  0.00    +0.000 C 
ATOM     16  O   UNL     1      -2.088  13.943  21.784  0.00  0.00    +0.000 OA
ATOM     17  N   UNL     1      -2.166  12.072  20.354  0.00  0.00    +0.000 N 
ATOM     18  C   UNL     1      -1.297  11.041  20.102  0.00  0.00    +0.000 C 
ATOM     19  O   UNL     1      -1.268  10.291  19.138  0.00  0.00    +0.000 OA
ATOM     20  C   UNL     1      -0.277  11.050  21.206  0.00  0.00    +0.000 C 
ENDROOT
BRANCH  17  21
ATOM     21  C   UNL     1      -3.338  12.258  19.570  0.00  0.00    +0.000 A 
ATOM     22  C   UNL     1      -3.453  11.789  18.258  0.00  0.00    +0.000 A 
ATOM     23  C   UNL     1      -4.671  11.898  17.570  0.00  0.00    +0.000 A 
ATOM     24  C   UNL     1      -5.781  12.508  18.164  0.00  0.00    +0.000 A 
ATOM     25  C   UNL     1      -7.081  12.673  17.440  0.00  0.00    +0.000 C 
ATOM     26  C   UNL     1      -5.666  12.994  19.464  0.00  0.00    +0.000 A 
ATOM     27  C   UNL     1      -4.464  12.868  20.152  0.00  0.00    +0.000 A 
ENDBRANCH  17  21
BRANCH   1  32
ATOM     28  C   UNL     1       2.459   8.107  18.343  0.00  0.00    +0.000 A 
ATOM     29  C   UNL     1       2.400   6.952  19.122  0.00  0.00    +0.000 A 
ATOM     30  C   UNL     1       1.812   6.981  20.386  0.00  0.00    +0.000 A 
ATOM     31  C   UNL     1       1.325   8.183  20.899  0.00  0.00    +0.000 A 
ATOM     32  C   UNL     1       1.390   9.359  20.137  0.00  0.00    +0.000 A 
ATOM     33  C   UNL     1       1.923   9.293  18.843  0.00  0.00    +0.000 A 
BRANCH  28  35
ATOM     34  C   UNL     1       4.184   7.069  17.101  0.00  0.00    +0.000 C 
ATOM     35  O   UNL     1       3.089   7.981  17.136  0.00  0.00    +0.000 OA
ENDBRANCH  28  35
ENDBRANCH   1  32
TORSDOF 3
ENDMDL
MODEL 5
REMARK VINA RESULT:      -7.1      6.321     10.207
REMARK  Name = 
REMARK  5 active torsions:
REMARK  status: ('A' for Active; 'I' for Inactive)
REMARK    1  A    between atoms: C_1  and  O_2
REMARK    2  A    between atoms: O_2  and  C_3
REMARK    3  A    between atoms: C_7  and  C_8
REMARK    4  A    between atoms: N_24  and  C_25
REMARK    5  A    between atoms: C_28  and  C_29
REMARK                            x       y       z     vdW  Elec       q    Type
REMARK                         _______ _______ _______ _____ _____    ______ ____
ROOT
ATOM      1  C   UNL     1       0.345  14.972  21.603  0.00  0.00    +0.000 C 
ATOM      2  O   UNL     1      -1.081  15.072  21.830  0.00  0.00    +0.000 OA
ATOM      3  C   UNL     1      -1.457  13.852  22.541  0.00  0.00    +0.000 C 
ATOM      4  C   UNL     1      -2.877  13.304  22.303  0.00  0.00    +0.000 C 
ATOM      5  O   UNL     1      -3.296  12.646  21.374  0.00  0.00    +0.000 OA
ATOM      6  C   UNL     1      -3.770  13.828  23.312  0.00  0.00    +0.000 A 
ATOM      7  C   UNL     1      -5.142  13.691  23.271  0.00  0.00    +0.000 A 
ATOM      8  C   UNL     1      -5.878  14.730  23.817  0.00  0.00    +0.000 A 
ATOM      9  C   UNL     1      -5.214  15.846  24.360  0.00  0.00    +0.000 A 
ATOM     10  C   UNL     1      -3.812  15.868  24.516  0.00  0.00    +0.000 A 
ATOM     11  C   UNL     1      -3.099  14.785  24.044  0.00  0.00    +0.000 A 
ATOM     12  C   UNL     1      -1.647  14.548  23.898  0.00  0.00    +0.000 C 
ATOM     13  O   UNL     1      -0.794  14.928  24.672  0.00  0.00    +0.000 OA
ATOM     14  C   UNL     1      -0.369  12.823  22.202  0.00  0.00    +0.000 C 
ATOM     15  C   UNL     1      -0.848  11.649  21.357  0.00  0.00    +0.000 C 
ATOM     16  O   UNL     1      -1.169  10.581  21.852  0.00  0.00    +0.000 OA
ATOM     17  N   UNL     1      -0.861  12.043  20.030  0.00  0.00    +0.000 N 
ATOM     18  C   UNL     1      -0.307  13.291  19.907  0.00  0.00    +0.000 C 
ATOM     19  O   UNL     1      -0.460  14.105  19.007  0.00  0.00    +0.000 OA
ATOM     20  C   UNL     1       0.474  13.550  21.166  0.00  0.00    +0.000 C 
ENDROOT
BRANCH  17  21
ATOM     21  C   UNL     1      -1.554  11.433  18.948  0.00  0.00    +0.000 A 
ATOM     22  C   UNL     1      -2.814  11.859  18.520  0.00  0.00    +0.000 A 
ATOM     23  C   UNL     1      -3.402  11.298  17.376  0.00  0.00    +0.000 A 
ATOM     24  C   UNL     1      -2.760  10.280  16.664  0.00  0.00    +0.000 A 
ATOM     25  C   UNL     1      -3.381   9.637  15.463  0.00  0.00    +0.000 C 
ATOM     26  C   UNL     1      -1.513   9.838  17.097  0.00  0.00    +0.000 A 
ATOM     27  C   UNL     1      -0.923  10.408  18.220  0.00  0.00    +0.000 A 
ENDBRANCH  17  21
BRANCH   1  32
ATOM     28  C   UNL     1       2.698  16.739  19.242  0.00  0.00    +0.000 A 
ATOM     29  C   UNL     1       1.955  17.857  18.866  0.00  0.00    +0.000 A 
ATOM     30  C   UNL     1       0.718  18.115  19.455  0.00  0.00    +0.000 A 
ATOM     31  C   UNL     1       0.195  17.223  20.392  0.00  0.00    +0.000 A 
ATOM     32  C   UNL     1       0.920  16.084  20.771  0.00  0.00    +0.000 A 
ATOM     33  C   UNL     1       2.190  15.880  20.216  0.00  0.00    +0.000 A 
BRANCH  28  35
ATOM     34  C   UNL     1       4.085  15.260  18.022  0.00  0.00    +0.000 C 
ATOM     35  O   UNL     1       3.879  16.556  18.577  0.00  0.00    +0.000 OA
ENDBRANCH  28  35
ENDBRANCH   1  32
TORSDOF 3
ENDMDL
MODEL 6
REMARK VINA RESULT:      -7.1      5.598      8.745
REMARK  Name = 
REMARK  5 active torsions:
REMARK  status: ('A' for Active; 'I' for Inactive)
REMARK    1  A    between atoms: C_1  and  O_2
REMARK    2  A    between atoms: O_2  and  C_3
REMARK    3  A    between atoms: C_7  and  C_8
REMARK    4  A    between atoms: N_24  and  C_25
REMARK    5  A    between atoms: C_28  and  C_29
REMARK                            x       y       z     vdW  Elec       q    Type
REMARK                         _______ _______ _______ _____ _____    ______ ____
ROOT
ATOM      1  C   UNL     1      -0.416  11.411  19.253  0.00  0.00    +0.000 C 
ATOM      2  O   UNL     1      -0.803  11.970  20.531  0.00  0.00    +0.000 OA
ATOM      3  C   UNL     1      -1.392  13.273  20.233  0.00  0.00    +0.000 C 
ATOM      4  C   UNL     1      -1.239  14.377  21.297  0.00  0.00    +0.000 C 
ATOM      5  O   UNL     1      -0.285  15.090  21.526  0.00  0.00    +0.000 OA
ATOM      6  C   UNL     1      -2.395  14.371  22.165  0.00  0.00    +0.000 A 
ATOM      7  C   UNL     1      -2.482  15.100  23.334  0.00  0.00    +0.000 A 
ATOM      8  C   UNL     1      -3.228  14.534  24.355  0.00  0.00    +0.000 A 
ATOM      9  C   UNL     1      -3.833  13.277  24.163  0.00  0.00    +0.000 A 
ATOM     10  C   UNL     1      -3.841  12.646  22.902  0.00  0.00    +0.000 A 
ATOM     11  C   UNL     1      -3.165  13.266  21.871  0.00  0.00    +0.000 A 
ATOM     12  C   UNL     1      -2.838  12.825  20.499  0.00  0.00    +0.000 C 
ATOM     13  O   UNL     1      -3.559  12.157  19.787  0.00  0.00    +0.000 OA
ATOM     14  C   UNL     1      -0.814  13.687  18.873  0.00  0.00    +0.000 C 
ATOM     15  C   UNL     1       0.116  14.894  18.921  0.00  0.00    +0.000 C 
ATOM     16  O   UNL     1      -0.273  16.023  18.671  0.00  0.00    +0.000 OA
ATOM     17  N   UNL     1       1.374  14.461  19.301  0.00  0.00    +0.000 N 
ATOM     18  C   UNL     1       1.398  13.091  19.364  0.00  0.00    +0.000 C 
ATOM     19  O   UNL     1       2.168  12.372  19.985  0.00  0.00    +0.000 OA
ATOM     20  C   UNL     1       0.207  12.596  18.591  0.00  0.00    +0.000 C 
ENDROOT
BRANCH  17  21
ATOM     21  C   UNL     1       2.445  15.242  19.817  0.00  0.00    +0.000 A 
ATOM     22  C   UNL     1       2.778  15.267  21.174  0.00  0.00    +0.000 A 
ATOM     23  C   UNL     1       3.913  15.964  21.613  0.00  0.00    +0.000 A 
ATOM     24  C   UNL     1       4.712  16.677  20.713  0.00  0.00    +0.000 A 
ATOM     25  C   UNL     1       5.907  17.461  21.159  0.00  0.00    +0.000 C 
ATOM     26  C   UNL     1       4.374  16.671  19.362  0.00  0.00    +0.000 A 
ATOM     27  C   UNL     1       3.259  15.964  18.926  0.00  0.00    +0.000 A 
ENDBRANCH  17  21
BRANCH   1  32
ATOM     28  C   UNL     1       1.934   8.628  18.270  0.00  0.00    +0.000 A 
ATOM     29  C   UNL     1       2.094   7.938  19.471  0.00  0.00    +0.000 A 
ATOM     30  C   UNL     1       1.355   8.299  20.597  0.00  0.00    +0.000 A 
ATOM     31  C   UNL     1       0.488   9.390  20.540  0.00  0.00    +0.000 A 
ATOM     32  C   UNL     1       0.326  10.107  19.346  0.00  0.00    +0.000 A 
ATOM     33  C   UNL     1       1.028   9.685  18.208  0.00  0.00    +0.000 A 
BRANCH  28  35
ATOM     34  C   UNL     1       3.720   7.246  17.564  0.00  0.00    +0.000 C 
ATOM     35  O   UNL     1       2.733   8.220  17.237  0.00  0.00    +0.000 OA
ENDBRANCH  28  35
ENDBRANCH   1  32
TORSDOF 3
ENDMDL
MODEL 7
REMARK VINA RESULT:      -7.0      5.596      8.698
REMARK  Name = 
REMARK  5 active torsions:
REMARK  status: ('A' for Active; 'I' for Inactive)
REMARK    1  A    between atoms: C_1  and  O_2
REMARK    2  A    between atoms: O_2  and  C_3
REMARK    3  A    between atoms: C_7  and  C_8
REMARK    4  A    between atoms: N_24  and  C_25
REMARK    5  A    between atoms: C_28  and  C_29
REMARK                            x       y       z     vdW  Elec       q    Type
REMARK                         _______ _______ _______ _____ _____    ______ ____
ROOT
ATOM      1  C   UNL     1      -0.249  15.070  19.542  0.00  0.00    +0.000 C 
ATOM      2  O   UNL     1       0.052  13.897  20.334  0.00  0.00    +0.000 OA
ATOM      3  C   UNL     1      -1.209  13.503  20.956  0.00  0.00    +0.000 C 
ATOM      4  C   UNL     1      -1.133  12.820  22.336  0.00  0.00    +0.000 C 
ATOM      5  O   UNL     1      -0.986  13.322  23.430  0.00  0.00    +0.000 OA
ATOM      6  C   UNL     1      -1.101  11.385  22.160  0.00  0.00    +0.000 A 
ATOM      7  C   UNL     1      -0.836  10.492  23.177  0.00  0.00    +0.000 A 
ATOM      8  C   UNL     1      -0.175   9.330  22.816  0.00  0.00    +0.000 A 
ATOM      9  C   UNL     1       0.196   9.126  21.473  0.00  0.00    +0.000 A 
ATOM     10  C   UNL     1      -0.231   9.997  20.448  0.00  0.00    +0.000 A 
ATOM     11  C   UNL     1      -0.964  11.106  20.816  0.00  0.00    +0.000 A 
ATOM     12  C   UNL     1      -1.426  12.282  20.049  0.00  0.00    +0.000 C 
ATOM     13  O   UNL     1      -1.804  12.263  18.896  0.00  0.00    +0.000 OA
ATOM     14  C   UNL     1      -2.073  14.772  20.980  0.00  0.00    +0.000 C 
ATOM     15  C   UNL     1      -2.357  15.320  22.374  0.00  0.00    +0.000 C 
ATOM     16  O   UNL     1      -3.388  15.065  22.973  0.00  0.00    +0.000 OA
ATOM     17  N   UNL     1      -1.270  16.077  22.775  0.00  0.00    +0.000 N 
ATOM     18  C   UNL     1      -0.378  16.199  21.740  0.00  0.00    +0.000 C 
ATOM     19  O   UNL     1       0.816  16.461  21.793  0.00  0.00    +0.000 OA
ATOM     20  C   UNL     1      -1.117  15.843  20.480  0.00  0.00    +0.000 C 
ENDROOT
BRANCH  17  21
ATOM     21  C   UNL     1      -0.927  16.476  24.097  0.00  0.00    +0.000 A 
ATOM     22  C   UNL     1      -0.512  17.772  24.412  0.00  0.00    +0.000 A 
ATOM     23  C   UNL     1      -0.296  18.143  25.748  0.00  0.00    +0.000 A 
ATOM     24  C   UNL     1      -0.456  17.218  26.785  0.00  0.00    +0.000 A 
ATOM     25  C   UNL     1      -0.196  17.575  28.216  0.00  0.00    +0.000 C 
ATOM     26  C   UNL     1      -0.852  15.920  26.475  0.00  0.00    +0.000 A 
ATOM     27  C   UNL     1      -1.083  15.559  25.152  0.00  0.00    +0.000 A 
ENDBRANCH  17  21
BRANCH   1  32
ATOM     28  C   UNL     1       3.202  15.361  18.046  0.00  0.00    +0.000 A 
ATOM     29  C   UNL     1       3.135  16.586  17.383  0.00  0.00    +0.000 A 
ATOM     30  C   UNL     1       2.003  17.391  17.499  0.00  0.00    +0.000 A 
ATOM     31  C   UNL     1       0.909  16.949  18.242  0.00  0.00    +0.000 A 
ATOM     32  C   UNL     1       0.951  15.713  18.903  0.00  0.00    +0.000 A 
ATOM     33  C   UNL     1       2.124  14.950  18.828  0.00  0.00    +0.000 A 
BRANCH  28  35
ATOM     34  C   UNL     1       5.507  15.094  18.509  0.00  0.00    +0.000 C 
ATOM     35  O   UNL     1       4.340  14.631  17.836  0.00  0.00    +0.000 OA
ENDBRANCH  28  35
ENDBRANCH   1  32
TORSDOF 3
ENDMDL
MODEL 8
REMARK VINA RESULT:      -7.0      8.062     10.332
REMARK  Name = 
REMARK  5 active torsions:
REMARK  status: ('A' for Active; 'I' for Inactive)
REMARK    1  A    between atoms: C_1  and  O_2
REMARK    2  A    between atoms: O_2  and  C_3
REMARK    3  A    between atoms: C_7  and  C_8
REMARK    4  A    between atoms: N_24  and  C_25
REMARK    5  A    between atoms: C_28  and  C_29
REMARK                            x       y       z     vdW  Elec       q    Type
REMARK                         _______ _______ _______ _____ _____    ______ ____
ROOT
ATOM      1  C   UNL     1      -1.923  12.305  21.165  0.00  0.00    +0.000 C 
ATOM      2  O   UNL     1      -3.073  12.453  22.032  0.00  0.00    +0.000 OA
ATOM      3  C   UNL     1      -3.650  13.756  21.709  0.00  0.00    +0.000 C 
ATOM      4  C   UNL     1      -4.363  14.515  22.845  0.00  0.00    +0.000 C 
ATOM      5  O   UNL     1      -3.883  15.179  23.739  0.00  0.00    +0.000 OA
ATOM      6  C   UNL     1      -5.774  14.202  22.819  0.00  0.00    +0.000 A 
ATOM      7  C   UNL     1      -6.659  14.558  23.816  0.00  0.00    +0.000 A 
ATOM      8  C   UNL     1      -7.711  13.687  24.043  0.00  0.00    +0.000 A 
ATOM      9  C   UNL     1      -7.818  12.509  23.278  0.00  0.00    +0.000 A 
ATOM     10  C   UNL     1      -6.978  12.266  22.172  0.00  0.00    +0.000 A 
ATOM     11  C   UNL     1      -5.987  13.190  21.906  0.00  0.00    +0.000 A 
ATOM     12  C   UNL     1      -4.857  13.178  20.954  0.00  0.00    +0.000 C 
ATOM     13  O   UNL     1      -4.888  12.707  19.836  0.00  0.00    +0.000 OA
ATOM     14  C   UNL     1      -2.507  14.572  21.089  0.00  0.00    +0.000 C 
ATOM     15  C   UNL     1      -2.048  15.760  21.927  0.00  0.00    +0.000 C 
ATOM     16  O   UNL     1      -2.456  16.891  21.726  0.00  0.00    +0.000 OA
ATOM     17  N   UNL     1      -1.169  15.299  22.891  0.00  0.00    +0.000 N 
ATOM     18  C   UNL     1      -0.895  13.972  22.680  0.00  0.00    +0.000 C 
ATOM     19  O   UNL     1      -0.481  13.145  23.479  0.00  0.00    +0.000 OA
ATOM     20  C   UNL     1      -1.303  13.661  21.266  0.00  0.00    +0.000 C 
ENDROOT
BRANCH  17  21
ATOM     21  C   UNL     1      -0.773  15.953  24.091  0.00  0.00    +0.000 A 
ATOM     22  C   UNL     1      -1.296  15.617  25.343  0.00  0.00    +0.000 A 
ATOM     23  C   UNL     1      -0.788  16.214  26.507  0.00  0.00    +0.000 A 
ATOM     24  C   UNL     1       0.223  17.179  26.438  0.00  0.00    +0.000 A 
ATOM     25  C   UNL     1       0.757  17.859  27.660  0.00  0.00    +0.000 C 
ATOM     26  C   UNL     1       0.735  17.529  25.191  0.00  0.00    +0.000 A 
ATOM     27  C   UNL     1       0.243  16.924  24.040  0.00  0.00    +0.000 A 
ENDBRANCH  17  21
BRANCH   1  32
ATOM     28  C   UNL     1       0.619   9.584  20.561  0.00  0.00    +0.000 A 
ATOM     29  C   UNL     1       0.782   9.042  21.836  0.00  0.00    +0.000 A 
ATOM     30  C   UNL     1      -0.012   9.480  22.895  0.00  0.00    +0.000 A 
ATOM     31  C   UNL     1      -0.940  10.501  22.694  0.00  0.00    +0.000 A 
ATOM     32  C   UNL     1      -1.107  11.069  21.423  0.00  0.00    +0.000 A 
ATOM     33  C   UNL     1      -0.347  10.568  20.358  0.00  0.00    +0.000 A 
BRANCH  28  35
ATOM     34  C   UNL     1       1.269   9.625  18.286  0.00  0.00    +0.000 C 
ATOM     35  O   UNL     1       1.472   9.114  19.600  0.00  0.00    +0.000 OA
ENDBRANCH  28  35
ENDBRANCH   1  32
TORSDOF 3
ENDMDL
MODEL 9
REMARK VINA RESULT:      -7.0      6.508      9.700
REMARK  Name = 
REMARK  5 active torsions:
REMARK  status: ('A' for Active; 'I' for Inactive)
REMARK    1  A    between atoms: C_1  and  O_2
REMARK    2  A    between atoms: O_2  and  C_3
REMARK    3  A    between atoms: C_7  and  C_8
REMARK    4  A    between atoms: N_24  and  C_25
REMARK    5  A    between atoms: C_28  and  C_29
REMARK                            x       y       z     vdW  Elec       q    Type
REMARK                         _______ _______ _______ _____ _____    ______ ____
ROOT
ATOM      1  C   UNL     1      -1.513  14.288  21.548  0.00  0.00    +0.000 C 
ATOM      2  O   UNL     1      -0.161  14.497  21.074  0.00  0.00    +0.000 OA
ATOM      3  C   UNL     1      -0.176  14.134  19.659  0.00  0.00    +0.000 C 
ATOM      4  C   UNL     1       1.123  13.556  19.064  0.00  0.00    +0.000 C 
ATOM      5  O   UNL     1       1.561  12.427  19.138  0.00  0.00    +0.000 OA
ATOM      6  C   UNL     1       1.905  14.627  18.488  0.00  0.00    +0.000 A 
ATOM      7  C   UNL     1       3.206  14.480  18.051  0.00  0.00    +0.000 A 
ATOM      8  C   UNL     1       4.026  15.588  18.184  0.00  0.00    +0.000 A 
ATOM      9  C   UNL     1       3.514  16.771  18.752  0.00  0.00    +0.000 A 
ATOM     10  C   UNL     1       2.142  16.919  19.040  0.00  0.00    +0.000 A 
ATOM     11  C   UNL     1       1.321  15.831  18.821  0.00  0.00    +0.000 A 
ATOM     12  C   UNL     1      -0.097  15.582  19.153  0.00  0.00    +0.000 C 
ATOM     13  O   UNL     1      -0.982  16.412  19.115  0.00  0.00    +0.000 OA
ATOM     14  C   UNL     1      -1.370  13.184  19.488  0.00  0.00    +0.000 C 
ATOM     15  C   UNL     1      -0.994  11.749  19.137  0.00  0.00    +0.000 C 
ATOM     16  O   UNL     1      -0.991  11.341  17.988  0.00  0.00    +0.000 OA
ATOM     17  N   UNL     1      -0.661  11.088  20.307  0.00  0.00    +0.000 N 
ATOM     18  C   UNL     1      -0.919  11.890  21.388  0.00  0.00    +0.000 C 
ATOM     19  O   UNL     1      -0.444  11.825  22.513  0.00  0.00    +0.000 OA
ATOM     20  C   UNL     1      -1.846  12.976  20.917  0.00  0.00    +0.000 C 
ENDROOT
BRANCH  17  21
ATOM     21  C   UNL     1       0.078   9.880  20.443  0.00  0.00    +0.000 A 
ATOM     22  C   UNL     1      -0.153   8.964  21.473  0.00  0.00    +0.000 A 
ATOM     23  C   UNL     1       0.525   7.736  21.495  0.00  0.00    +0.000 A 
ATOM     24  C   UNL     1       1.470   7.418  20.513  0.00  0.00    +0.000 A 
ATOM     25  C   UNL     1       2.236   6.132  20.534  0.00  0.00    +0.000 C 
ATOM     26  C   UNL     1       1.717   8.335  19.495  0.00  0.00    +0.000 A 
ATOM     27  C   UNL     1       1.030   9.544  19.464  0.00  0.00    +0.000 A 
ENDBRANCH  17  21
BRANCH   1  32
ATOM     28  C   UNL     1      -0.863  15.634  25.012  0.00  0.00    +0.000 A 
ATOM     29  C   UNL     1      -2.050  15.327  25.676  0.00  0.00    +0.000 A 
ATOM     30  C   UNL     1      -3.042  14.581  25.042  0.00  0.00    +0.000 A 
ATOM     31  C   UNL     1      -2.870  14.180  23.717  0.00  0.00    +0.000 A 
ATOM     32  C   UNL     1      -1.690  14.493  23.027  0.00  0.00    +0.000 A 
ATOM     33  C   UNL     1      -0.679  15.186  23.705  0.00  0.00    +0.000 A 
BRANCH  28  35
ATOM     34  C   UNL     1      -0.023  16.280  27.127  0.00  0.00    +0.000 C 
ATOM     35  O   UNL     1       0.028  16.403  25.709  0.00  0.00    +0.000 OA
ENDBRANCH  28  35
ENDBRANCH   1  32
TORSDOF 3
ENDMDL
