MODEL 1
REMARK VINA RESULT:      -7.6      0.000      0.000
REMARK  Name = 
REMARK  4 active torsions:
REMARK  status: ('A' for Active; 'I' for Inactive)
REMARK    1  A    between atoms: C_1  and  N_2
REMARK    2  A    between atoms: N_12  and  C_13
REMARK    3  A    between atoms: C_13  and  C_14
REMARK    4  A    between atoms: C_14  and  C_15
REMARK                            x       y       z     vdW  Elec       q    Type
REMARK                         _______ _______ _______ _____ _____    ______ ____
ROOT
ATOM      1  C   UNL     1       3.958   6.109  17.249  0.00  0.00    +0.000 C 
ATOM      2  N   UNL     1       3.238   5.964  18.496  0.00  0.00    +0.000 N 
ATOM      3  C   UNL     1       3.209   4.840  19.300  0.00  0.00    +0.000 A 
ATOM      4  C   UNL     1       3.820   3.585  19.162  0.00  0.00    +0.000 A 
ATOM      5  C   UNL     1       3.601   2.628  20.159  0.00  0.00    +0.000 A 
ATOM      6  C   UNL     1       2.800   2.911  21.262  0.00  0.00    +0.000 A 
ATOM      7  C   UNL     1       2.192   4.162  21.399  0.00  0.00    +0.000 A 
ATOM      8  C   UNL     1       2.396   5.140  20.407  0.00  0.00    +0.000 A 
ATOM      9  C   UNL     1       1.957   6.463  20.223  0.00  0.00    +0.000 A 
ATOM     10  N   UNL     1       1.122   7.208  21.057  0.00  0.00    +0.000 NA
ATOM     11  C   UNL     1       0.900   8.411  20.622  0.00  0.00    +0.000 A 
ATOM     12  N   UNL     1       1.411   9.000  19.472  0.00  0.00    +0.000 N 
ATOM     13  C   UNL     1       2.215   8.269  18.598  0.00  0.00    +0.000 A 
ATOM     14  O   UNL     1       2.668   8.717  17.540  0.00  0.00    +0.000 OA
ATOM     15  C   UNL     1       2.472   6.952  19.057  0.00  0.00    +0.000 A 
ENDROOT
BRANCH  12  16
ATOM     16  C   UNL     1       1.076  10.355  19.044  0.00  0.00    +0.000 C 
BRANCH  16  17
ATOM     17  C   UNL     1      -0.236  10.943  19.571  0.00  0.00    +0.000 C 
BRANCH  17  18
ATOM     18  C   UNL     1      -1.366  10.857  18.565  0.00  0.00    +0.000 C 
ATOM     19  C   UNL     1      -1.353   9.997  17.525  0.00  0.00    +0.000 C 
ATOM     20  C   UNL     1      -2.451   9.908  16.505  0.00  0.00    +0.000 C 
ATOM     21  C   UNL     1      -3.400  11.101  16.548  0.00  0.00    +0.000 C 
ATOM     22  C   UNL     1      -3.773  11.442  17.986  0.00  0.00    +0.000 C 
ATOM     23  C   UNL     1      -2.533  11.784  18.809  0.00  0.00    +0.000 C 
ENDBRANCH  17  18
ENDBRANCH  16  17
ENDBRANCH  12  16
TORSDOF 3
ENDMDL
MODEL 2
REMARK VINA RESULT:      -7.6      2.784      4.331
REMARK  Name = 
REMARK  4 active torsions:
REMARK  status: ('A' for Active; 'I' for Inactive)
REMARK    1  A    between atoms: C_1  and  N_2
REMARK    2  A    between atoms: N_12  and  C_13
REMARK    3  A    between atoms: C_13  and  C_14
REMARK    4  A    between atoms: C_14  and  C_15
REMARK                            x       y       z     vdW  Elec       q    Type
REMARK                         _______ _______ _______ _____ _____    ______ ____
ROOT
ATOM      1  C   UNL     1       3.912   3.391  19.444  0.00  0.00    +0.000 C 
ATOM      2  N   UNL     1       3.966   4.573  18.610  0.00  0.00    +0.000 N 
ATOM      3  C   UNL     1       4.692   4.721  17.443  0.00  0.00    +0.000 A 
ATOM      4  C   UNL     1       5.541   3.837  16.761  0.00  0.00    +0.000 A 
ATOM      5  C   UNL     1       6.147   4.279  15.580  0.00  0.00    +0.000 A 
ATOM      6  C   UNL     1       5.915   5.561  15.090  0.00  0.00    +0.000 A 
ATOM      7  C   UNL     1       5.068   6.440  15.770  0.00  0.00    +0.000 A 
ATOM      8  C   UNL     1       4.448   6.018  16.962  0.00  0.00    +0.000 A 
ATOM      9  C   UNL     1       3.565   6.617  17.878  0.00  0.00    +0.000 A 
ATOM     10  N   UNL     1       3.034   7.906  17.833  0.00  0.00    +0.000 NA
ATOM     11  C   UNL     1       2.237   8.171  18.823  0.00  0.00    +0.000 A 
ATOM     12  N   UNL     1       1.865   7.319  19.857  0.00  0.00    +0.000 N 
ATOM     13  C   UNL     1       2.409   6.039  19.951  0.00  0.00    +0.000 A 
ATOM     14  O   UNL     1       2.155   5.247  20.865  0.00  0.00    +0.000 OA
ATOM     15  C   UNL     1       3.282   5.730  18.877  0.00  0.00    +0.000 A 
ENDROOT
BRANCH  12  16
ATOM     16  C   UNL     1       0.984   7.717  20.951  0.00  0.00    +0.000 C 
BRANCH  16  17
ATOM     17  C   UNL     1       1.508   8.796  21.904  0.00  0.00    +0.000 C 
BRANCH  17  18
ATOM     18  C   UNL     1       0.577   9.986  22.013  0.00  0.00    +0.000 C 
ATOM     19  C   UNL     1       0.550  10.978  21.098  0.00  0.00    +0.000 C 
ATOM     20  C   UNL     1      -0.350  12.177  21.196  0.00  0.00    +0.000 C 
ATOM     21  C   UNL     1      -0.966  12.344  22.581  0.00  0.00    +0.000 C 
ATOM     22  C   UNL     1      -1.478  11.010  23.110  0.00  0.00    +0.000 C 
ATOM     23  C   UNL     1      -0.348   9.987  23.208  0.00  0.00    +0.000 C 
ENDBRANCH  17  18
ENDBRANCH  16  17
ENDBRANCH  12  16
TORSDOF 3
ENDMDL
MODEL 3
REMARK VINA RESULT:      -7.6      2.707      4.249
REMARK  Name = 
REMARK  4 active torsions:
REMARK  status: ('A' for Active; 'I' for Inactive)
REMARK    1  A    between atoms: C_1  and  N_2
REMARK    2  A    between atoms: N_12  and  C_13
REMARK    3  A    between atoms: C_13  and  C_14
REMARK    4  A    between atoms: C_14  and  C_15
REMARK                            x       y       z     vdW  Elec       q    Type
REMARK                         _______ _______ _______ _____ _____    ______ ____
ROOT
ATOM      1  C   UNL     1       3.730   3.352  19.510  0.00  0.00    +0.000 C 
ATOM      2  N   UNL     1       3.814   4.549  18.702  0.00  0.00    +0.000 N 
ATOM      3  C   UNL     1       4.543   4.703  17.538  0.00  0.00    +0.000 A 
ATOM      4  C   UNL     1       5.370   3.813  16.837  0.00  0.00    +0.000 A 
ATOM      5  C   UNL     1       5.987   4.265  15.665  0.00  0.00    +0.000 A 
ATOM      6  C   UNL     1       5.787   5.563  15.203  0.00  0.00    +0.000 A 
ATOM      7  C   UNL     1       4.963   6.448  15.902  0.00  0.00    +0.000 A 
ATOM      8  C   UNL     1       4.333   6.017  17.085  0.00  0.00    +0.000 A 
ATOM      9  C   UNL     1       3.465   6.618  18.014  0.00  0.00    +0.000 A 
ATOM     10  N   UNL     1       2.967   7.921  17.998  0.00  0.00    +0.000 NA
ATOM     11  C   UNL     1       2.177   8.184  18.993  0.00  0.00    +0.000 A 
ATOM     12  N   UNL     1       1.784   7.320  20.009  0.00  0.00    +0.000 N 
ATOM     13  C   UNL     1       2.295   6.025  20.076  0.00  0.00    +0.000 A 
ATOM     14  O   UNL     1       2.020   5.221  20.972  0.00  0.00    +0.000 OA
ATOM     15  C   UNL     1       3.159   5.717  18.994  0.00  0.00    +0.000 A 
ENDROOT
BRANCH  12  16
ATOM     16  C   UNL     1       0.913   7.717  21.111  0.00  0.00    +0.000 C 
BRANCH  16  17
ATOM     17  C   UNL     1       1.394   8.876  21.990  0.00  0.00    +0.000 C 
BRANCH  17  18
ATOM     18  C   UNL     1       0.410  10.028  22.035  0.00  0.00    +0.000 C 
ATOM     19  C   UNL     1      -0.507  10.166  23.015  0.00  0.00    +0.000 C 
ATOM     20  C   UNL     1      -1.505  11.287  23.070  0.00  0.00    +0.000 C 
ATOM     21  C   UNL     1      -1.616  12.048  21.752  0.00  0.00    +0.000 C 
ATOM     22  C   UNL     1      -0.234  12.334  21.176  0.00  0.00    +0.000 C 
ATOM     23  C   UNL     1       0.534  11.039  20.920  0.00  0.00    +0.000 C 
ENDBRANCH  17  18
ENDBRANCH  16  17
ENDBRANCH  12  16
TORSDOF 3
ENDMDL
MODEL 4
REMARK VINA RESULT:      -7.5      2.108      7.029
REMARK  Name = 
REMARK  4 active torsions:
REMARK  status: ('A' for Active; 'I' for Inactive)
REMARK    1  A    between atoms: C_1  and  N_2
REMARK    2  A    between atoms: N_12  and  C_13
REMARK    3  A    between atoms: C_13  and  C_14
REMARK    4  A    between atoms: C_14  and  C_15
REMARK                            x       y       z     vdW  Elec       q    Type
REMARK                         _______ _______ _______ _____ _____    ______ ____
ROOT
ATOM      1  C   UNL     1      -0.024  11.831  18.344  0.00  0.00    +0.000 C 
ATOM      2  N   UNL     1       0.059  10.987  19.516  0.00  0.00    +0.000 N 
ATOM      3  C   UNL     1      -0.560  11.209  20.733  0.00  0.00    +0.000 A 
ATOM      4  C   UNL     1      -1.391  12.249  21.173  0.00  0.00    +0.000 A 
ATOM      5  C   UNL     1      -1.874  12.200  22.485  0.00  0.00    +0.000 A 
ATOM      6  C   UNL     1      -1.541  11.148  23.334  0.00  0.00    +0.000 A 
ATOM      7  C   UNL     1      -0.714  10.112  22.894  0.00  0.00    +0.000 A 
ATOM      8  C   UNL     1      -0.214  10.141  21.578  0.00  0.00    +0.000 A 
ATOM      9  C   UNL     1       0.618   9.296  20.822  0.00  0.00    +0.000 A 
ATOM     10  N   UNL     1       1.219   8.104  21.227  0.00  0.00    +0.000 NA
ATOM     11  C   UNL     1       1.929   7.542  20.298  0.00  0.00    +0.000 A 
ATOM     12  N   UNL     1       2.115   7.986  18.994  0.00  0.00    +0.000 N 
ATOM     13  C   UNL     1       1.561   9.193  18.570  0.00  0.00    +0.000 A 
ATOM     14  O   UNL     1       1.721   9.666  17.440  0.00  0.00    +0.000 OA
ATOM     15  C   UNL     1       0.778   9.822  19.572  0.00  0.00    +0.000 A 
ENDROOT
BRANCH  12  16
ATOM     16  C   UNL     1       2.963   7.300  18.023  0.00  0.00    +0.000 C 
BRANCH  16  17
ATOM     17  C   UNL     1       3.933   6.250  18.571  0.00  0.00    +0.000 C 
BRANCH  17  18
ATOM     18  C   UNL     1       3.400   4.837  18.451  0.00  0.00    +0.000 C 
ATOM     19  C   UNL     1       4.106   3.755  18.841  0.00  0.00    +0.000 C 
ATOM     20  C   UNL     1       3.607   2.344  18.713  0.00  0.00    +0.000 C 
ATOM     21  C   UNL     1       2.396   2.225  17.793  0.00  0.00    +0.000 C 
ATOM     22  C   UNL     1       1.385   3.327  18.085  0.00  0.00    +0.000 C 
ATOM     23  C   UNL     1       2.005   4.708  17.885  0.00  0.00    +0.000 C 
ENDBRANCH  17  18
ENDBRANCH  16  17
ENDBRANCH  12  16
TORSDOF 3
ENDMDL
MODEL 5
REMARK VINA RESULT:      -7.5      1.466      2.858
REMARK  Name = 
REMARK  4 active torsions:
REMARK  status: ('A' for Active; 'I' for Inactive)
REMARK    1  A    between atoms: C_1  and  N_2
REMARK    2  A    between atoms: N_12  and  C_13
REMARK    3  A    between atoms: C_13  and  C_14
REMARK    4  A    between atoms: C_14  and  C_15
REMARK                            x       y       z     vdW  Elec       q    Type
REMARK                         _______ _______ _______ _____ _____    ______ ____
ROOT
ATOM      1  C   UNL     1       2.862   4.962  20.416  0.00  0.00    +0.000 C 
ATOM      2  N   UNL     1       3.191   5.783  19.271  0.00  0.00    +0.000 N 
ATOM      3  C   UNL     1       4.066   5.456  18.251  0.00  0.00    +0.000 A 
ATOM      4  C   UNL     1       4.851   4.314  18.034  0.00  0.00    +0.000 A 
ATOM      5  C   UNL     1       5.654   4.271  16.889  0.00  0.00    +0.000 A 
ATOM      6  C   UNL     1       5.676   5.331  15.987  0.00  0.00    +0.000 A 
ATOM      7  C   UNL     1       4.893   6.468  16.204  0.00  0.00    +0.000 A 
ATOM      8  C   UNL     1       4.078   6.535  17.351  0.00  0.00    +0.000 A 
ATOM      9  C   UNL     1       3.189   7.492  17.872  0.00  0.00    +0.000 A 
ATOM     10  N   UNL     1       2.865   8.738  17.336  0.00  0.00    +0.000 NA
ATOM     11  C   UNL     1       2.003   9.398  18.046  0.00  0.00    +0.000 A 
ATOM     12  N   UNL     1       1.386   8.984  19.221  0.00  0.00    +0.000 N 
ATOM     13  C   UNL     1       1.718   7.763  19.805  0.00  0.00    +0.000 A 
ATOM     14  O   UNL     1       1.241   7.354  20.868  0.00  0.00    +0.000 OA
ATOM     15  C   UNL     1       2.659   7.025  19.041  0.00  0.00    +0.000 A 
ENDROOT
BRANCH  12  16
ATOM     16  C   UNL     1       0.449   9.813  19.973  0.00  0.00    +0.000 C 
BRANCH  16  17
ATOM     17  C   UNL     1      -0.003  11.120  19.314  0.00  0.00    +0.000 C 
BRANCH  17  18
ATOM     18  C   UNL     1      -1.338  10.993  18.610  0.00  0.00    +0.000 C 
ATOM     19  C   UNL     1      -1.586  10.048  17.680  0.00  0.00    +0.000 C 
ATOM     20  C   UNL     1      -2.895   9.916  16.955  0.00  0.00    +0.000 C 
ATOM     21  C   UNL     1      -3.785  11.144  17.109  0.00  0.00    +0.000 C 
ATOM     22  C   UNL     1      -3.804  11.621  18.557  0.00  0.00    +0.000 C 
ATOM     23  C   UNL     1      -2.399  11.983  19.034  0.00  0.00    +0.000 C 
ENDBRANCH  17  18
ENDBRANCH  16  17
ENDBRANCH  12  16
TORSDOF 3
ENDMDL
MODEL 6
REMARK VINA RESULT:      -7.5      3.276      7.815
REMARK  Name = 
REMARK  4 active torsions:
REMARK  status: ('A' for Active; 'I' for Inactive)
REMARK    1  A    between atoms: C_1  and  N_2
REMARK    2  A    between atoms: N_12  and  C_13
REMARK    3  A    between atoms: C_13  and  C_14
REMARK    4  A    between atoms: C_14  and  C_15
REMARK                            x       y       z     vdW  Elec       q    Type
REMARK                         _______ _______ _______ _____ _____    ______ ____
ROOT
ATOM      1  C   UNL     1       2.181   4.726  21.061  0.00  0.00    +0.000 C 
ATOM      2  N   UNL     1       2.328   5.860  20.174  0.00  0.00    +0.000 N 
ATOM      3  C   UNL     1       1.688   7.080  20.290  0.00  0.00    +0.000 A 
ATOM      4  C   UNL     1       0.763   7.556  21.231  0.00  0.00    +0.000 A 
ATOM      5  C   UNL     1       0.281   8.861  21.084  0.00  0.00    +0.000 A 
ATOM      6  C   UNL     1       0.707   9.671  20.035  0.00  0.00    +0.000 A 
ATOM      7  C   UNL     1       1.630   9.196  19.099  0.00  0.00    +0.000 A 
ATOM      8  C   UNL     1       2.128   7.885  19.224  0.00  0.00    +0.000 A 
ATOM      9  C   UNL     1       3.036   7.102  18.491  0.00  0.00    +0.000 A 
ATOM     10  N   UNL     1       3.737   7.461  17.339  0.00  0.00    +0.000 NA
ATOM     11  C   UNL     1       4.512   6.522  16.892  0.00  0.00    +0.000 A 
ATOM     12  N   UNL     1       4.714   5.262  17.444  0.00  0.00    +0.000 N 
ATOM     13  C   UNL     1       4.000   4.857  18.570  0.00  0.00    +0.000 A 
ATOM     14  O   UNL     1       4.100   3.739  19.086  0.00  0.00    +0.000 OA
ATOM     15  C   UNL     1       3.148   5.873  19.076  0.00  0.00    +0.000 A 
ENDROOT
BRANCH  12  16
ATOM     16  C   UNL     1       5.585   4.253  16.848  0.00  0.00    +0.000 C 
BRANCH  16  17
ATOM     17  C   UNL     1       6.826   4.759  16.106  0.00  0.00    +0.000 C 
BRANCH  17  18
ATOM     18  C   UNL     1       6.762   4.507  14.614  0.00  0.00    +0.000 C 
ATOM     19  C   UNL     1       5.799   3.755  14.041  0.00  0.00    +0.000 C 
ATOM     20  C   UNL     1       5.728   3.475  12.567  0.00  0.00    +0.000 C 
ATOM     21  C   UNL     1       7.020   3.820  11.834  0.00  0.00    +0.000 C 
ATOM     22  C   UNL     1       7.555   5.172  12.289  0.00  0.00    +0.000 C 
ATOM     23  C   UNL     1       7.839   5.175  13.789  0.00  0.00    +0.000 C 
ENDBRANCH  17  18
ENDBRANCH  16  17
ENDBRANCH  12  16
TORSDOF 3
ENDMDL
MODEL 7
REMARK VINA RESULT:      -7.5      1.469      2.994
REMARK  Name = 
REMARK  4 active torsions:
REMARK  status: ('A' for Active; 'I' for Inactive)
REMARK    1  A    between atoms: C_1  and  N_2
REMARK    2  A    between atoms: N_12  and  C_13
REMARK    3  A    between atoms: C_13  and  C_14
REMARK    4  A    between atoms: C_14  and  C_15
REMARK                            x       y       z     vdW  Elec       q    Type
REMARK                         _______ _______ _______ _____ _____    ______ ____
ROOT
ATOM      1  C   UNL     1       2.675   5.034  20.528  0.00  0.00    +0.000 C 
ATOM      2  N   UNL     1       3.035   5.823  19.370  0.00  0.00    +0.000 N 
ATOM      3  C   UNL     1       3.899   5.447  18.358  0.00  0.00    +0.000 A 
ATOM      4  C   UNL     1       4.640   4.273  18.161  0.00  0.00    +0.000 A 
ATOM      5  C   UNL     1       5.442   4.180  17.018  0.00  0.00    +0.000 A 
ATOM      6  C   UNL     1       5.504   5.223  16.098  0.00  0.00    +0.000 A 
ATOM      7  C   UNL     1       4.764   6.392  16.295  0.00  0.00    +0.000 A 
ATOM      8  C   UNL     1       3.951   6.509  17.439  0.00  0.00    +0.000 A 
ATOM      9  C   UNL     1       3.099   7.507  17.943  0.00  0.00    +0.000 A 
ATOM     10  N   UNL     1       2.822   8.755  17.385  0.00  0.00    +0.000 NA
ATOM     11  C   UNL     1       1.984   9.458  18.083  0.00  0.00    +0.000 A 
ATOM     12  N   UNL     1       1.352   9.088  19.264  0.00  0.00    +0.000 N 
ATOM     13  C   UNL     1       1.638   7.865  19.868  0.00  0.00    +0.000 A 
ATOM     14  O   UNL     1       1.144   7.492  20.938  0.00  0.00    +0.000 OA
ATOM     15  C   UNL     1       2.550   7.080  19.119  0.00  0.00    +0.000 A 
ENDROOT
BRANCH  12  16
ATOM     16  C   UNL     1       0.445   9.964  20.001  0.00  0.00    +0.000 C 
BRANCH  16  17
ATOM     17  C   UNL     1      -0.023  11.235  19.285  0.00  0.00    +0.000 C 
BRANCH  17  18
ATOM     18  C   UNL     1      -1.406  11.095  18.682  0.00  0.00    +0.000 C 
ATOM     19  C   UNL     1      -2.458  11.835  19.088  0.00  0.00    +0.000 C 
ATOM     20  C   UNL     1      -3.841  11.700  18.518  0.00  0.00    +0.000 C 
ATOM     21  C   UNL     1      -4.024  10.426  17.700  0.00  0.00    +0.000 C 
ATOM     22  C   UNL     1      -2.834  10.204  16.773  0.00  0.00    +0.000 C 
ATOM     23  C   UNL     1      -1.535  10.083  17.567  0.00  0.00    +0.000 C 
ENDBRANCH  17  18
ENDBRANCH  16  17
ENDBRANCH  12  16
TORSDOF 3
ENDMDL
MODEL 8
REMARK VINA RESULT:      -7.4      0.538      1.168
REMARK  Name = 
REMARK  4 active torsions:
REMARK  status: ('A' for Active; 'I' for Inactive)
REMARK    1  A    between atoms: C_1  and  N_2
REMARK    2  A    between atoms: N_12  and  C_13
REMARK    3  A    between atoms: C_13  and  C_14
REMARK    4  A    between atoms: C_14  and  C_15
REMARK                            x       y       z     vdW  Elec       q    Type
REMARK                         _______ _______ _______ _____ _____    ______ ____
ROOT
ATOM      1  C   UNL     1       4.259   5.684  17.102  0.00  0.00    +0.000 C 
ATOM      2  N   UNL     1       3.500   5.648  18.334  0.00  0.00    +0.000 N 
ATOM      3  C   UNL     1       3.413   4.583  19.212  0.00  0.00    +0.000 A 
ATOM      4  C   UNL     1       3.987   3.304  19.178  0.00  0.00    +0.000 A 
ATOM      5  C   UNL     1       3.710   2.426  20.231  0.00  0.00    +0.000 A 
ATOM      6  C   UNL     1       2.888   2.808  21.288  0.00  0.00    +0.000 A 
ATOM      7  C   UNL     1       2.318   4.083  21.321  0.00  0.00    +0.000 A 
ATOM      8  C   UNL     1       2.580   4.984  20.271  0.00  0.00    +0.000 A 
ATOM      9  C   UNL     1       2.188   6.304  19.985  0.00  0.00    +0.000 A 
ATOM     10  N   UNL     1       1.356   7.130  20.740  0.00  0.00    +0.000 NA
ATOM     11  C   UNL     1       1.184   8.305  20.218  0.00  0.00    +0.000 A 
ATOM     12  N   UNL     1       1.746   8.798  19.046  0.00  0.00    +0.000 N 
ATOM     13  C   UNL     1       2.549   7.985  18.248  0.00  0.00    +0.000 A 
ATOM     14  O   UNL     1       3.045   8.344  17.175  0.00  0.00    +0.000 OA
ATOM     15  C   UNL     1       2.752   6.695  18.803  0.00  0.00    +0.000 A 
ENDROOT
BRANCH  12  16
ATOM     16  C   UNL     1       1.467  10.129  18.517  0.00  0.00    +0.000 C 
BRANCH  16  17
ATOM     17  C   UNL     1       0.428  10.969  19.266  0.00  0.00    +0.000 C 
BRANCH  17  18
ATOM     18  C   UNL     1      -0.952  10.889  18.645  0.00  0.00    +0.000 C 
ATOM     19  C   UNL     1      -1.964  11.705  19.009  0.00  0.00    +0.000 C 
ATOM     20  C   UNL     1      -3.344  11.632  18.422  0.00  0.00    +0.000 C 
ATOM     21  C   UNL     1      -3.591  10.344  17.644  0.00  0.00    +0.000 C 
ATOM     22  C   UNL     1      -2.404  10.019  16.745  0.00  0.00    +0.000 C 
ATOM     23  C   UNL     1      -1.125   9.849  17.564  0.00  0.00    +0.000 C 
ENDBRANCH  17  18
ENDBRANCH  16  17
ENDBRANCH  12  16
TORSDOF 3
ENDMDL
MODEL 9
REMARK VINA RESULT:      -7.4      2.117      7.245
REMARK  Name = 
REMARK  4 active torsions:
REMARK  status: ('A' for Active; 'I' for Inactive)
REMARK    1  A    between atoms: C_1  and  N_2
REMARK    2  A    between atoms: N_12  and  C_13
REMARK    3  A    between atoms: C_13  and  C_14
REMARK    4  A    between atoms: C_14  and  C_15
REMARK                            x       y       z     vdW  Elec       q    Type
REMARK                         _______ _______ _______ _____ _____    ______ ____
ROOT
ATOM      1  C   UNL     1      -0.684  11.736  18.279  0.00  0.00    +0.000 C 
ATOM      2  N   UNL     1      -0.530  11.155  19.596  0.00  0.00    +0.000 N 
ATOM      3  C   UNL     1      -1.127  11.599  20.762  0.00  0.00    +0.000 A 
ATOM      4  C   UNL     1      -1.994  12.673  21.009  0.00  0.00    +0.000 A 
ATOM      5  C   UNL     1      -2.440  12.876  22.320  0.00  0.00    +0.000 A 
ATOM      6  C   UNL     1      -2.036  12.036  23.354  0.00  0.00    +0.000 A 
ATOM      7  C   UNL     1      -1.173  10.966  23.106  0.00  0.00    +0.000 A 
ATOM      8  C   UNL     1      -0.709  10.743  21.795  0.00  0.00    +0.000 A 
ATOM      9  C   UNL     1       0.141   9.794  21.200  0.00  0.00    +0.000 A 
ATOM     10  N   UNL     1       0.807   8.737  21.819  0.00  0.00    +0.000 NA
ATOM     11  C   UNL     1       1.518   8.024  21.001  0.00  0.00    +0.000 A 
ATOM     12  N   UNL     1       1.649   8.197  19.628  0.00  0.00    +0.000 N 
ATOM     13  C   UNL     1       1.029   9.267  18.985  0.00  0.00    +0.000 A 
ATOM     14  O   UNL     1       1.137   9.503  17.777  0.00  0.00    +0.000 OA
ATOM     15  C   UNL     1       0.244  10.057  19.863  0.00  0.00    +0.000 A 
ENDROOT
BRANCH  12  16
ATOM     16  C   UNL     1       2.503   7.361  18.789  0.00  0.00    +0.000 C 
BRANCH  16  17
ATOM     17  C   UNL     1       3.229   6.202  19.478  0.00  0.00    +0.000 C 
BRANCH  17  18
ATOM     18  C   UNL     1       2.547   4.867  19.258  0.00  0.00    +0.000 C 
ATOM     19  C   UNL     1       1.487   4.460  19.988  0.00  0.00    +0.000 C 
ATOM     20  C   UNL     1       0.807   3.134  19.802  0.00  0.00    +0.000 C 
ATOM     21  C   UNL     1       1.629   2.158  18.967  0.00  0.00    +0.000 C 
ATOM     22  C   UNL     1       2.211   2.852  17.741  0.00  0.00    +0.000 C 
ATOM     23  C   UNL     1       3.113   4.016  18.145  0.00  0.00    +0.000 C 
ENDBRANCH  17  18
ENDBRANCH  16  17
ENDBRANCH  12  16
TORSDOF 3
ENDMDL
