MODEL 1
REMARK VINA RESULT:      -6.7      0.000      0.000
REMARK  Name = 
REMARK  5 active torsions:
REMARK  status: ('A' for Active; 'I' for Inactive)
REMARK    1  A    between atoms: C_1  and  O_2
REMARK    2  A    between atoms: O_2  and  C_3
REMARK    3  A    between atoms: C_6  and  C_7
REMARK    4  A    between atoms: C_12  and  C_14
REMARK    5  A    between atoms: N_21  and  C_22
REMARK                            x       y       z     vdW  Elec       q    Type
REMARK                         _______ _______ _______ _____ _____    ______ ____
ROOT
ATOM      1  C   UNL     1       0.926   9.791  19.972  0.00  0.00    +0.000 A 
ATOM      2  C   UNL     1       0.742   9.122  21.171  0.00  0.00    +0.000 A 
ATOM      3  N   UNL     1       1.351   7.902  21.177  0.00  0.00    +0.000 NA
ATOM      4  C   UNL     1       1.816   7.744  19.963  0.00  0.00    +0.000 A 
ATOM      5  N   UNL     1       2.481   6.592  19.618  0.00  0.00    +0.000 N 
ATOM      6  C   UNL     1       2.186   5.897  18.460  0.00  0.00    +0.000 C 
ATOM      7  O   UNL     1       1.486   6.288  17.535  0.00  0.00    +0.000 OA
ATOM      8  N   UNL     1       1.673   8.896  19.215  0.00  0.00    +0.000 N 
ATOM      9  C   UNL     1       2.401   9.198  18.005  0.00  0.00    +0.000 C 
ATOM     10  H   UNL     1       2.683   6.028  20.434  0.00  0.00    +0.000 HD
ENDROOT
BRANCH   6  11
ATOM     11  C   UNL     1       2.738   4.501  18.448  0.00  0.00    +0.000 A 
ATOM     12  C   UNL     1       2.149   3.527  17.635  0.00  0.00    +0.000 A 
ATOM     13  C   UNL     1       2.596   2.197  17.696  0.00  0.00    +0.000 A 
ATOM     14  C   UNL     1       3.631   1.861  18.564  0.00  0.00    +0.000 A 
ATOM     15  F   UNL     1       4.036   0.588  18.649  0.00  0.00    +0.000 F 
ATOM     16  C   UNL     1       4.250   2.825  19.349  0.00  0.00    +0.000 A 
ATOM     17  C   UNL     1       3.810   4.149  19.287  0.00  0.00    +0.000 A 
ENDBRANCH   6  11
BRANCH   1  21
ATOM     18  C   UNL     1      -0.173  13.776  18.804  0.00  0.00    +0.000 A 
ATOM     19  C   UNL     1       0.859  13.561  19.714  0.00  0.00    +0.000 A 
ATOM     20  C   UNL     1       1.211  12.260  20.095  0.00  0.00    +0.000 A 
ATOM     21  C   UNL     1       0.520  11.148  19.591  0.00  0.00    +0.000 A 
ATOM     22  C   UNL     1      -0.563  11.386  18.737  0.00  0.00    +0.000 A 
ATOM     23  C   UNL     1      -0.895  12.684  18.328  0.00  0.00    +0.000 A 
BRANCH  18  25
ATOM     24  C   UNL     1       0.606  16.006  18.838  0.00  0.00    +0.000 C 
ATOM     25  O   UNL     1      -0.420  15.083  18.484  0.00  0.00    +0.000 OA
ENDBRANCH  18  25
ENDBRANCH   1  21
TORSDOF 3
ENDMDL
MODEL 2
REMARK VINA RESULT:      -6.7      5.075      9.489
REMARK  Name = 
REMARK  5 active torsions:
REMARK  status: ('A' for Active; 'I' for Inactive)
REMARK    1  A    between atoms: C_1  and  O_2
REMARK    2  A    between atoms: O_2  and  C_3
REMARK    3  A    between atoms: C_6  and  C_7
REMARK    4  A    between atoms: C_12  and  C_14
REMARK    5  A    between atoms: N_21  and  C_22
REMARK                            x       y       z     vdW  Elec       q    Type
REMARK                         _______ _______ _______ _____ _____    ______ ____
ROOT
ATOM      1  C   UNL     1       1.203   9.053  19.630  0.00  0.00    +0.000 A 
ATOM      2  C   UNL     1       0.633   9.927  18.718  0.00  0.00    +0.000 A 
ATOM      3  N   UNL     1       0.079  11.014  19.326  0.00  0.00    +0.000 NA
ATOM      4  C   UNL     1       0.188  10.782  20.610  0.00  0.00    +0.000 A 
ATOM      5  N   UNL     1      -0.297  11.687  21.523  0.00  0.00    +0.000 N 
ATOM      6  C   UNL     1      -1.081  11.297  22.593  0.00  0.00    +0.000 C 
ATOM      7  O   UNL     1      -1.274  10.150  22.974  0.00  0.00    +0.000 OA
ATOM      8  N   UNL     1       0.945   9.654  20.856  0.00  0.00    +0.000 N 
ATOM      9  C   UNL     1       1.576   9.334  22.115  0.00  0.00    +0.000 C 
ATOM     10  H   UNL     1      -0.561  12.556  21.074  0.00  0.00    +0.000 HD
ENDROOT
BRANCH   6  11
ATOM     11  C   UNL     1      -1.809  12.439  23.243  0.00  0.00    +0.000 A 
ATOM     12  C   UNL     1      -1.151  13.656  23.448  0.00  0.00    +0.000 A 
ATOM     13  C   UNL     1      -1.794  14.692  24.147  0.00  0.00    +0.000 A 
ATOM     14  C   UNL     1      -3.086  14.498  24.623  0.00  0.00    +0.000 A 
ATOM     15  F   UNL     1      -3.688  15.471  25.319  0.00  0.00    +0.000 F 
ATOM     16  C   UNL     1      -3.764  13.308  24.394  0.00  0.00    +0.000 A 
ATOM     17  C   UNL     1      -3.130  12.279  23.697  0.00  0.00    +0.000 A 
ENDBRANCH   6  11
BRANCH   1  21
ATOM     18  C   UNL     1       3.542   5.517  18.940  0.00  0.00    +0.000 A 
ATOM     19  C   UNL     1       3.545   6.563  18.020  0.00  0.00    +0.000 A 
ATOM     20  C   UNL     1       2.777   7.712  18.247  0.00  0.00    +0.000 A 
ATOM     21  C   UNL     1       1.971   7.827  19.389  0.00  0.00    +0.000 A 
ATOM     22  C   UNL     1       1.922   6.736  20.264  0.00  0.00    +0.000 A 
ATOM     23  C   UNL     1       2.714   5.600  20.057  0.00  0.00    +0.000 A 
BRANCH  18  25
ATOM     24  C   UNL     1       4.172   3.297  19.447  0.00  0.00    +0.000 C 
ATOM     25  O   UNL     1       4.344   4.452  18.631  0.00  0.00    +0.000 OA
ENDBRANCH  18  25
ENDBRANCH   1  21
TORSDOF 3
ENDMDL
MODEL 3
REMARK VINA RESULT:      -6.7      4.121      9.194
REMARK  Name = 
REMARK  5 active torsions:
REMARK  status: ('A' for Active; 'I' for Inactive)
REMARK    1  A    between atoms: C_1  and  O_2
REMARK    2  A    between atoms: O_2  and  C_3
REMARK    3  A    between atoms: C_6  and  C_7
REMARK    4  A    between atoms: C_12  and  C_14
REMARK    5  A    between atoms: N_21  and  C_22
REMARK                            x       y       z     vdW  Elec       q    Type
REMARK                         _______ _______ _______ _____ _____    ______ ____
ROOT
ATOM      1  C   UNL     1       2.268   7.734  18.407  0.00  0.00    +0.000 A 
ATOM      2  C   UNL     1       2.304   8.804  17.526  0.00  0.00    +0.000 A 
ATOM      3  N   UNL     1       1.841   9.953  18.094  0.00  0.00    +0.000 NA
ATOM      4  C   UNL     1       1.406   9.599  19.278  0.00  0.00    +0.000 A 
ATOM      5  N   UNL     1       0.848  10.531  20.120  0.00  0.00    +0.000 N 
ATOM      6  C   UNL     1      -0.346  10.300  20.777  0.00  0.00    +0.000 C 
ATOM      7  O   UNL     1      -0.934   9.230  20.863  0.00  0.00    +0.000 OA
ATOM      8  N   UNL     1       1.725   8.286  19.561  0.00  0.00    +0.000 N 
ATOM      9  C   UNL     1       1.747   7.701  20.881  0.00  0.00    +0.000 C 
ATOM     10  H   UNL     1       0.986  11.472  19.769  0.00  0.00    +0.000 HD
ENDROOT
BRANCH   6  11
ATOM     11  C   UNL     1      -0.967  11.548  21.336  0.00  0.00    +0.000 A 
ATOM     12  C   UNL     1      -1.035  11.731  22.722  0.00  0.00    +0.000 A 
ATOM     13  C   UNL     1      -1.706  12.846  23.250  0.00  0.00    +0.000 A 
ATOM     14  C   UNL     1      -2.292  13.766  22.387  0.00  0.00    +0.000 A 
ATOM     15  F   UNL     1      -2.961  14.811  22.889  0.00  0.00    +0.000 F 
ATOM     16  C   UNL     1      -2.200  13.616  21.009  0.00  0.00    +0.000 A 
ATOM     17  C   UNL     1      -1.531  12.511  20.481  0.00  0.00    +0.000 A 
ENDBRANCH   6  11
BRANCH   1  21
ATOM     18  C   UNL     1       3.654   3.717  17.777  0.00  0.00    +0.000 A 
ATOM     19  C   UNL     1       2.291   3.997  17.852  0.00  0.00    +0.000 A 
ATOM     20  C   UNL     1       1.845   5.307  18.061  0.00  0.00    +0.000 A 
ATOM     21  C   UNL     1       2.754   6.363  18.226  0.00  0.00    +0.000 A 
ATOM     22  C   UNL     1       4.118   6.052  18.223  0.00  0.00    +0.000 A 
ATOM     23  C   UNL     1       4.568   4.748  17.980  0.00  0.00    +0.000 A 
BRANCH  18  25
ATOM     24  C   UNL     1       3.470   1.474  18.493  0.00  0.00    +0.000 C 
ATOM     25  O   UNL     1       3.981   2.409  17.548  0.00  0.00    +0.000 OA
ENDBRANCH  18  25
ENDBRANCH   1  21
TORSDOF 3
ENDMDL
MODEL 4
REMARK VINA RESULT:      -6.7      4.123      9.102
REMARK  Name = 
REMARK  5 active torsions:
REMARK  status: ('A' for Active; 'I' for Inactive)
REMARK    1  A    between atoms: C_1  and  O_2
REMARK    2  A    between atoms: O_2  and  C_3
REMARK    3  A    between atoms: C_6  and  C_7
REMARK    4  A    between atoms: C_12  and  C_14
REMARK    5  A    between atoms: N_21  and  C_22
REMARK                            x       y       z     vdW  Elec       q    Type
REMARK                         _______ _______ _______ _____ _____    ______ ____
ROOT
ATOM      1  C   UNL     1       2.135   7.629  18.444  0.00  0.00    +0.000 A 
ATOM      2  C   UNL     1       2.129   8.744  17.622  0.00  0.00    +0.000 A 
ATOM      3  N   UNL     1       1.786   9.878  18.296  0.00  0.00    +0.000 NA
ATOM      4  C   UNL     1       1.463   9.477  19.500  0.00  0.00    +0.000 A 
ATOM      5  N   UNL     1       1.044  10.383  20.445  0.00  0.00    +0.000 N 
ATOM      6  C   UNL     1      -0.083  10.166  21.216  0.00  0.00    +0.000 C 
ATOM      7  O   UNL     1      -0.710   9.119  21.309  0.00  0.00    +0.000 OA
ATOM      8  N   UNL     1       1.746   8.137  19.678  0.00  0.00    +0.000 N 
ATOM      9  C   UNL     1       1.879   7.478  20.955  0.00  0.00    +0.000 C 
ATOM     10  H   UNL     1       1.190  11.334  20.130  0.00  0.00    +0.000 HD
ENDROOT
BRANCH   6  11
ATOM     11  C   UNL     1      -0.579  11.405  21.903  0.00  0.00    +0.000 A 
ATOM     12  C   UNL     1      -1.570  11.305  22.886  0.00  0.00    +0.000 A 
ATOM     13  C   UNL     1      -2.110  12.469  23.459  0.00  0.00    +0.000 A 
ATOM     14  C   UNL     1      -1.647  13.714  23.047  0.00  0.00    +0.000 A 
ATOM     15  F   UNL     1      -2.184  14.826  23.566  0.00  0.00    +0.000 F 
ATOM     16  C   UNL     1      -0.638  13.826  22.099  0.00  0.00    +0.000 A 
ATOM     17  C   UNL     1      -0.096  12.672  21.531  0.00  0.00    +0.000 A 
ENDBRANCH   6  11
BRANCH   1  21
ATOM     18  C   UNL     1       3.337   3.582  17.651  0.00  0.00    +0.000 A 
ATOM     19  C   UNL     1       4.285   4.597  17.765  0.00  0.00    +0.000 A 
ATOM     20  C   UNL     1       3.887   5.915  18.020  0.00  0.00    +0.000 A 
ATOM     21  C   UNL     1       2.531   6.250  18.140  0.00  0.00    +0.000 A 
ATOM     22  C   UNL     1       1.589   5.233  17.947  0.00  0.00    +0.000 A 
ATOM     23  C   UNL     1       1.985   3.907  17.726  0.00  0.00    +0.000 A 
BRANCH  18  25
ATOM     24  C   UNL     1       3.652   1.394  18.484  0.00  0.00    +0.000 C 
ATOM     25  O   UNL     1       3.834   2.328  17.424  0.00  0.00    +0.000 OA
ENDBRANCH  18  25
ENDBRANCH   1  21
TORSDOF 3
ENDMDL
MODEL 5
REMARK VINA RESULT:      -6.6      5.095      9.532
REMARK  Name = 
REMARK  5 active torsions:
REMARK  status: ('A' for Active; 'I' for Inactive)
REMARK    1  A    between atoms: C_1  and  O_2
REMARK    2  A    between atoms: O_2  and  C_3
REMARK    3  A    between atoms: C_6  and  C_7
REMARK    4  A    between atoms: C_12  and  C_14
REMARK    5  A    between atoms: N_21  and  C_22
REMARK                            x       y       z     vdW  Elec       q    Type
REMARK                         _______ _______ _______ _____ _____    ______ ____
ROOT
ATOM      1  C   UNL     1       1.174   8.968  19.755  0.00  0.00    +0.000 A 
ATOM      2  C   UNL     1       0.625   9.829  18.818  0.00  0.00    +0.000 A 
ATOM      3  N   UNL     1       0.084  10.939  19.396  0.00  0.00    +0.000 NA
ATOM      4  C   UNL     1       0.179  10.735  20.686  0.00  0.00    +0.000 A 
ATOM      5  N   UNL     1      -0.298  11.670  21.574  0.00  0.00    +0.000 N 
ATOM      6  C   UNL     1      -1.096  11.318  22.646  0.00  0.00    +0.000 C 
ATOM      7  O   UNL     1      -1.309  10.183  23.053  0.00  0.00    +0.000 OA
ATOM      8  N   UNL     1       0.917   9.602  20.965  0.00  0.00    +0.000 N 
ATOM      9  C   UNL     1       1.533   9.302  22.236  0.00  0.00    +0.000 C 
ATOM     10  H   UNL     1      -0.545  12.531  21.101  0.00  0.00    +0.000 HD
ENDROOT
BRANCH   6  11
ATOM     11  C   UNL     1      -1.811  12.486  23.263  0.00  0.00    +0.000 A 
ATOM     12  C   UNL     1      -1.132  13.694  23.454  0.00  0.00    +0.000 A 
ATOM     13  C   UNL     1      -1.764  14.755  24.123  0.00  0.00    +0.000 A 
ATOM     14  C   UNL     1      -3.067  14.596  24.584  0.00  0.00    +0.000 A 
ATOM     15  F   UNL     1      -3.660  15.594  25.252  0.00  0.00    +0.000 F 
ATOM     16  C   UNL     1      -3.765  13.415  24.369  0.00  0.00    +0.000 A 
ATOM     17  C   UNL     1      -3.141  12.360  23.701  0.00  0.00    +0.000 A 
ENDBRANCH   6  11
BRANCH   1  21
ATOM     18  C   UNL     1       3.282   5.277  19.132  0.00  0.00    +0.000 A 
ATOM     19  C   UNL     1       2.451   5.444  20.237  0.00  0.00    +0.000 A 
ATOM     20  C   UNL     1       1.769   6.651  20.438  0.00  0.00    +0.000 A 
ATOM     21  C   UNL     1       1.925   7.725  19.550  0.00  0.00    +0.000 A 
ATOM     22  C   UNL     1       2.822   7.566  18.487  0.00  0.00    +0.000 A 
ATOM     23  C   UNL     1       3.478   6.349  18.265  0.00  0.00    +0.000 A 
BRANCH  18  25
ATOM     24  C   UNL     1       3.611   3.345  17.813  0.00  0.00    +0.000 C 
ATOM     25  O   UNL     1       3.882   4.053  19.019  0.00  0.00    +0.000 OA
ENDBRANCH  18  25
ENDBRANCH   1  21
TORSDOF 3
ENDMDL
MODEL 6
REMARK VINA RESULT:      -6.6      0.180      1.004
REMARK  Name = 
REMARK  5 active torsions:
REMARK  status: ('A' for Active; 'I' for Inactive)
REMARK    1  A    between atoms: C_1  and  O_2
REMARK    2  A    between atoms: O_2  and  C_3
REMARK    3  A    between atoms: C_6  and  C_7
REMARK    4  A    between atoms: C_12  and  C_14
REMARK    5  A    between atoms: N_21  and  C_22
REMARK                            x       y       z     vdW  Elec       q    Type
REMARK                         _______ _______ _______ _____ _____    ______ ____
ROOT
ATOM      1  C   UNL     1       0.949   9.760  20.066  0.00  0.00    +0.000 A 
ATOM      2  C   UNL     1       0.754   9.131  21.285  0.00  0.00    +0.000 A 
ATOM      3  N   UNL     1       1.328   7.895  21.323  0.00  0.00    +0.000 NA
ATOM      4  C   UNL     1       1.779   7.689  20.111  0.00  0.00    +0.000 A 
ATOM      5  N   UNL     1       2.409   6.508  19.795  0.00  0.00    +0.000 N 
ATOM      6  C   UNL     1       2.086   5.789  18.660  0.00  0.00    +0.000 C 
ATOM      7  O   UNL     1       1.390   6.173  17.729  0.00  0.00    +0.000 OA
ATOM      8  N   UNL     1       1.664   8.822  19.331  0.00  0.00    +0.000 N 
ATOM      9  C   UNL     1       2.392   9.067  18.108  0.00  0.00    +0.000 C 
ATOM     10  H   UNL     1       2.600   5.962  20.627  0.00  0.00    +0.000 HD
ENDROOT
BRANCH   6  11
ATOM     11  C   UNL     1       2.597   4.377  18.686  0.00  0.00    +0.000 A 
ATOM     12  C   UNL     1       3.627   4.026  19.566  0.00  0.00    +0.000 A 
ATOM     13  C   UNL     1       4.177   2.735  19.521  0.00  0.00    +0.000 A 
ATOM     14  C   UNL     1       3.686   1.811  18.605  0.00  0.00    +0.000 A 
ATOM     15  F   UNL     1       4.232   0.590  18.538  0.00  0.00    +0.000 F 
ATOM     16  C   UNL     1       2.639   2.135  17.752  0.00  0.00    +0.000 A 
ATOM     17  C   UNL     1       2.087   3.416  17.796  0.00  0.00    +0.000 A 
ENDBRANCH   6  11
BRANCH   1  21
ATOM     18  C   UNL     1      -0.044  13.739  18.789  0.00  0.00    +0.000 A 
ATOM     19  C   UNL     1       0.987  13.520  19.699  0.00  0.00    +0.000 A 
ATOM     20  C   UNL     1       1.305  12.222  20.115  0.00  0.00    +0.000 A 
ATOM     21  C   UNL     1       0.579  11.116  19.648  0.00  0.00    +0.000 A 
ATOM     22  C   UNL     1      -0.503  11.361  18.794  0.00  0.00    +0.000 A 
ATOM     23  C   UNL     1      -0.800  12.655  18.349  0.00  0.00    +0.000 A 
BRANCH  18  25
ATOM     24  C   UNL     1       0.753  15.962  18.841  0.00  0.00    +0.000 C 
ATOM     25  O   UNL     1      -0.256  15.043  18.433  0.00  0.00    +0.000 OA
ENDBRANCH  18  25
ENDBRANCH   1  21
TORSDOF 3
ENDMDL
MODEL 7
REMARK VINA RESULT:      -6.6      4.102      9.179
REMARK  Name = 
REMARK  5 active torsions:
REMARK  status: ('A' for Active; 'I' for Inactive)
REMARK    1  A    between atoms: C_1  and  O_2
REMARK    2  A    between atoms: O_2  and  C_3
REMARK    3  A    between atoms: C_6  and  C_7
REMARK    4  A    between atoms: C_12  and  C_14
REMARK    5  A    between atoms: N_21  and  C_22
REMARK                            x       y       z     vdW  Elec       q    Type
REMARK                         _______ _______ _______ _____ _____    ______ ____
ROOT
ATOM      1  C   UNL     1       2.232   7.730  18.408  0.00  0.00    +0.000 A 
ATOM      2  C   UNL     1       2.283   8.794  17.521  0.00  0.00    +0.000 A 
ATOM      3  N   UNL     1       1.850   9.956  18.088  0.00  0.00    +0.000 NA
ATOM      4  C   UNL     1       1.419   9.617  19.277  0.00  0.00    +0.000 A 
ATOM      5  N   UNL     1       0.890  10.566  20.120  0.00  0.00    +0.000 N 
ATOM      6  C   UNL     1      -0.302  10.363  20.790  0.00  0.00    +0.000 C 
ATOM      7  O   UNL     1      -0.912   9.306  20.887  0.00  0.00    +0.000 OA
ATOM      8  N   UNL     1       1.713   8.299  19.564  0.00  0.00    +0.000 N 
ATOM      9  C   UNL     1       1.736   7.721  20.887  0.00  0.00    +0.000 C 
ATOM     10  H   UNL     1       1.044  11.501  19.762  0.00  0.00    +0.000 HD
ENDROOT
BRANCH   6  11
ATOM     11  C   UNL     1      -0.892  11.627  21.348  0.00  0.00    +0.000 A 
ATOM     12  C   UNL     1      -1.121  12.719  20.505  0.00  0.00    +0.000 A 
ATOM     13  C   UNL     1      -1.576  13.935  21.041  0.00  0.00    +0.000 A 
ATOM     14  C   UNL     1      -1.804  14.039  22.409  0.00  0.00    +0.000 A 
ATOM     15  F   UNL     1      -2.205  15.207  22.927  0.00  0.00    +0.000 F 
ATOM     16  C   UNL     1      -1.617  12.951  23.252  0.00  0.00    +0.000 A 
ATOM     17  C   UNL     1      -1.168  11.740  22.722  0.00  0.00    +0.000 A 
ENDBRANCH   6  11
BRANCH   1  21
ATOM     18  C   UNL     1       3.537   3.685  17.783  0.00  0.00    +0.000 A 
ATOM     19  C   UNL     1       2.183   4.011  17.739  0.00  0.00    +0.000 A 
ATOM     20  C   UNL     1       1.763   5.330  17.947  0.00  0.00    +0.000 A 
ATOM     21  C   UNL     1       2.687   6.347  18.229  0.00  0.00    +0.000 A 
ATOM     22  C   UNL     1       4.035   5.988  18.345  0.00  0.00    +0.000 A 
ATOM     23  C   UNL     1       4.462   4.676  18.103  0.00  0.00    +0.000 A 
BRANCH  18  25
ATOM     24  C   UNL     1       3.534   1.469  18.601  0.00  0.00    +0.000 C 
ATOM     25  O   UNL     1       3.840   2.373  17.544  0.00  0.00    +0.000 OA
ENDBRANCH  18  25
ENDBRANCH   1  21
TORSDOF 3
ENDMDL
MODEL 8
REMARK VINA RESULT:      -6.6      5.119      9.384
REMARK  Name = 
REMARK  5 active torsions:
REMARK  status: ('A' for Active; 'I' for Inactive)
REMARK    1  A    between atoms: C_1  and  O_2
REMARK    2  A    between atoms: O_2  and  C_3
REMARK    3  A    between atoms: C_6  and  C_7
REMARK    4  A    between atoms: C_12  and  C_14
REMARK    5  A    between atoms: N_21  and  C_22
REMARK                            x       y       z     vdW  Elec       q    Type
REMARK                         _______ _______ _______ _____ _____    ______ ____
ROOT
ATOM      1  C   UNL     1       1.125   9.254  19.499  0.00  0.00    +0.000 A 
ATOM      2  C   UNL     1       0.463  10.104  18.627  0.00  0.00    +0.000 A 
ATOM      3  N   UNL     1      -0.117  11.154  19.274  0.00  0.00    +0.000 NA
ATOM      4  C   UNL     1       0.069  10.917  20.548  0.00  0.00    +0.000 A 
ATOM      5  N   UNL     1      -0.417  11.787  21.495  0.00  0.00    +0.000 N 
ATOM      6  C   UNL     1      -1.125  11.346  22.598  0.00  0.00    +0.000 C 
ATOM      7  O   UNL     1      -1.235  10.186  22.975  0.00  0.00    +0.000 OA
ATOM      8  N   UNL     1       0.897   9.830  20.743  0.00  0.00    +0.000 N 
ATOM      9  C   UNL     1       1.607   9.534  21.965  0.00  0.00    +0.000 C 
ATOM     10  H   UNL     1      -0.750  12.643  21.069  0.00  0.00    +0.000 HD
ENDROOT
BRANCH   6  11
ATOM     11  C   UNL     1      -1.879  12.440  23.297  0.00  0.00    +0.000 A 
ATOM     12  C   UNL     1      -3.205  12.229  23.690  0.00  0.00    +0.000 A 
ATOM     13  C   UNL     1      -3.946  13.282  24.251  0.00  0.00    +0.000 A 
ATOM     14  C   UNL     1      -3.349  14.527  24.419  0.00  0.00    +0.000 A 
ATOM     15  F   UNL     1      -4.064  15.542  24.923  0.00  0.00    +0.000 F 
ATOM     16  C   UNL     1      -2.022  14.740  24.068  0.00  0.00    +0.000 A 
ATOM     17  C   UNL     1      -1.282  13.694  23.513  0.00  0.00    +0.000 A 
ENDBRANCH   6  11
BRANCH   1  21
ATOM     18  C   UNL     1       3.614   5.856  18.656  0.00  0.00    +0.000 A 
ATOM     19  C   UNL     1       3.539   6.922  17.763  0.00  0.00    +0.000 A 
ATOM     20  C   UNL     1       2.723   8.026  18.041  0.00  0.00    +0.000 A 
ATOM     21  C   UNL     1       1.944   8.074  19.207  0.00  0.00    +0.000 A 
ATOM     22  C   UNL     1       1.974   6.961  20.055  0.00  0.00    +0.000 A 
ATOM     23  C   UNL     1       2.815   5.871  19.797  0.00  0.00    +0.000 A 
BRANCH  18  25
ATOM     24  C   UNL     1       5.712   4.818  18.972  0.00  0.00    +0.000 C 
ATOM     25  O   UNL     1       4.457   4.840  18.299  0.00  0.00    +0.000 OA
ENDBRANCH  18  25
ENDBRANCH   1  21
TORSDOF 3
ENDMDL
MODEL 9
REMARK VINA RESULT:      -6.6      3.996      9.298
REMARK  Name = 
REMARK  5 active torsions:
REMARK  status: ('A' for Active; 'I' for Inactive)
REMARK    1  A    between atoms: C_1  and  O_2
REMARK    2  A    between atoms: O_2  and  C_3
REMARK    3  A    between atoms: C_6  and  C_7
REMARK    4  A    between atoms: C_12  and  C_14
REMARK    5  A    between atoms: N_21  and  C_22
REMARK                            x       y       z     vdW  Elec       q    Type
REMARK                         _______ _______ _______ _____ _____    ______ ____
ROOT
ATOM      1  C   UNL     1       1.662   8.154  20.141  0.00  0.00    +0.000 A 
ATOM      2  C   UNL     1       1.304   8.699  21.363  0.00  0.00    +0.000 A 
ATOM      3  N   UNL     1       0.864   9.984  21.244  0.00  0.00    +0.000 NA
ATOM      4  C   UNL     1       1.049  10.294  19.985  0.00  0.00    +0.000 A 
ATOM      5  N   UNL     1       0.722  11.547  19.523  0.00  0.00    +0.000 N 
ATOM      6  C   UNL     1       1.587  12.285  18.737  0.00  0.00    +0.000 C 
ATOM      7  O   UNL     1       2.611  11.878  18.203  0.00  0.00    +0.000 OA
ATOM      8  N   UNL     1       1.441   9.195  19.247  0.00  0.00    +0.000 N 
ATOM      9  C   UNL     1       1.358   9.086  17.810  0.00  0.00    +0.000 C 
ATOM     10  H   UNL     1       0.200  12.068  20.217  0.00  0.00    +0.000 HD
ENDROOT
BRANCH   6  11
ATOM     11  C   UNL     1       1.220  13.738  18.651  0.00  0.00    +0.000 A 
ATOM     12  C   UNL     1       2.223  14.702  18.502  0.00  0.00    +0.000 A 
ATOM     13  C   UNL     1       1.893  16.067  18.524  0.00  0.00    +0.000 A 
ATOM     14  C   UNL     1       0.566  16.449  18.686  0.00  0.00    +0.000 A 
ATOM     15  F   UNL     1       0.253  17.750  18.742  0.00  0.00    +0.000 F 
ATOM     16  C   UNL     1      -0.444  15.502  18.798  0.00  0.00    +0.000 A 
ATOM     17  C   UNL     1      -0.121  14.145  18.773  0.00  0.00    +0.000 A 
ENDBRANCH   6  11
BRANCH   1  21
ATOM     18  C   UNL     1       2.825   4.133  19.175  0.00  0.00    +0.000 A 
ATOM     19  C   UNL     1       2.026   4.396  20.286  0.00  0.00    +0.000 A 
ATOM     20  C   UNL     1       1.653   5.709  20.598  0.00  0.00    +0.000 A 
ATOM     21  C   UNL     1       2.093   6.790  19.820  0.00  0.00    +0.000 A 
ATOM     22  C   UNL     1       2.957   6.515  18.754  0.00  0.00    +0.000 A 
ATOM     23  C   UNL     1       3.304   5.200  18.418  0.00  0.00    +0.000 A 
BRANCH  18  25
ATOM     24  C   UNL     1       2.552   2.261  17.761  0.00  0.00    +0.000 C 
ATOM     25  O   UNL     1       3.112   2.815  18.948  0.00  0.00    +0.000 OA
ENDBRANCH  18  25
ENDBRANCH   1  21
TORSDOF 3
ENDMDL
