MODEL 1
REMARK VINA RESULT:      -9.4      0.000      0.000
REMARK  Name = 
REMARK  7 active torsions:
REMARK  status: ('A' for Active; 'I' for Inactive)
REMARK    1  A    between atoms: S_2  and  N_4
REMARK    2  A    between atoms: S_2  and  C_28
REMARK    3  A    between atoms: N_4  and  C_5
REMARK    4  A    between atoms: C_8  and  C_9
REMARK    5  A    between atoms: C_9  and  C_10
REMARK    6  A    between atoms: C_10  and  N_11
REMARK    7  A    between atoms: C_14  and  C_15
REMARK                            x       y       z     vdW  Elec       q    Type
REMARK                         _______ _______ _______ _____ _____    ______ ____
ROOT
ATOM      1  C   UNL     1       0.882  10.259  19.909  0.00  0.00    +0.000 C 
ATOM      2  C   UNL     1       0.197   9.393  20.972  0.00  0.00    +0.000 C 
ATOM      3  C   UNL     1       1.047   8.182  21.326  0.00  0.00    +0.000 C 
ATOM      4  C   UNL     1       1.392   7.351  20.082  0.00  0.00    +0.000 C 
ATOM      5  C   UNL     1       2.060   8.212  19.010  0.00  0.00    +0.000 C 
ATOM      6  C   UNL     1       1.208   9.427  18.670  0.00  0.00    +0.000 C 
ENDROOT
BRANCH   1   7
ATOM      7  N   UNL     1      -0.016  11.392  19.604  0.00  0.00    +0.000 NA
ATOM      8  H   UNL     1      -0.100  11.601  18.609  0.00  0.00    +0.000 HD
BRANCH   7  10
ATOM      9  O   UNL     1       1.130  12.593  21.513  0.00  0.00    +0.000 OA
ATOM     10  S   UNL     1       0.078  12.797  20.545  0.00  0.00    +0.000 S 
ATOM     11  O   UNL     1       0.040  13.949  19.673  0.00  0.00    +0.000 OA
BRANCH  10  12
ATOM     12  C   UNL     1      -1.451  12.720  21.459  0.00  0.00    +0.000 A 
ATOM     13  C   UNL     1      -2.611  13.232  20.861  0.00  0.00    +0.000 A 
ATOM     14  C   UNL     1      -3.811  13.213  21.569  0.00  0.00    +0.000 A 
ATOM     15  C   UNL     1      -3.841  12.678  22.854  0.00  0.00    +0.000 A 
ATOM     16  F   UNL     1      -4.996  12.671  23.534  0.00  0.00    +0.000 F 
ATOM     17  C   UNL     1      -2.697  12.149  23.443  0.00  0.00    +0.000 A 
ATOM     18  C   UNL     1      -1.492  12.158  22.739  0.00  0.00    +0.000 A 
ENDBRANCH  10  12
ENDBRANCH   7  10
ENDBRANCH   1   7
BRANCH   4  19
ATOM     19  C   UNL     1       2.293   6.159  20.441  0.00  0.00    +0.000 C 
BRANCH  19  20
ATOM     20  C   UNL     1       1.508   4.846  20.544  0.00  0.00    +0.000 C 
BRANCH  20  21
ATOM     21  N   UNL     1       1.903   3.872  19.508  0.00  0.00    +0.000 NA
ATOM     22  C   UNL     1       2.010   4.531  18.197  0.00  0.00    +0.000 C 
ATOM     23  C   UNL     1       2.717   3.721  17.120  0.00  0.00    +0.000 C 
ATOM     24  C   UNL     1       4.033   3.107  17.599  0.00  0.00    +0.000 C 
ATOM     25  C   UNL     1       3.763   2.301  18.871  0.00  0.00    +0.000 C 
ATOM     26  C   UNL     1       3.076   3.116  19.961  0.00  0.00    +0.000 C 
BRANCH  24  27
ATOM     27  C   UNL     1       5.187   4.097  17.712  0.00  0.00    +0.000 A 
ATOM     28  C   UNL     1       5.607   4.673  18.928  0.00  0.00    +0.000 A 
ATOM     29  C   UNL     1       6.644   5.618  18.999  0.00  0.00    +0.000 A 
ATOM     30  C   UNL     1       7.308   6.017  17.848  0.00  0.00    +0.000 A 
ATOM     31  C   UNL     1       6.922   5.436  16.657  0.00  0.00    +0.000 A 
ATOM     32  C   UNL     1       5.893   4.497  16.581  0.00  0.00    +0.000 A 
ATOM     33  C   UNL     1       5.699   4.144  15.154  0.00  0.00    +0.000 C 
ATOM     34  C   UNL     1       7.005   4.689  14.585  0.00  0.00    +0.000 C 
ATOM     35  O   UNL     1       7.492   5.737  15.449  0.00  0.00    +0.000 OA
ENDBRANCH  24  27
ENDBRANCH  20  21
ENDBRANCH  19  20
ENDBRANCH   4  19
TORSDOF 7
ENDMDL
MODEL 2
REMARK VINA RESULT:      -9.4      0.806      1.155
REMARK  Name = 
REMARK  7 active torsions:
REMARK  status: ('A' for Active; 'I' for Inactive)
REMARK    1  A    between atoms: S_2  and  N_4
REMARK    2  A    between atoms: S_2  and  C_28
REMARK    3  A    between atoms: N_4  and  C_5
REMARK    4  A    between atoms: C_8  and  C_9
REMARK    5  A    between atoms: C_9  and  C_10
REMARK    6  A    between atoms: C_10  and  N_11
REMARK    7  A    between atoms: C_14  and  C_15
REMARK                            x       y       z     vdW  Elec       q    Type
REMARK                         _______ _______ _______ _____ _____    ______ ____
ROOT
ATOM      1  C   UNL     1       1.157  10.351  19.035  0.00  0.00    +0.000 C 
ATOM      2  C   UNL     1       0.415   9.678  20.196  0.00  0.00    +0.000 C 
ATOM      3  C   UNL     1       1.209   8.505  20.749  0.00  0.00    +0.000 C 
ATOM      4  C   UNL     1       1.548   7.485  19.652  0.00  0.00    +0.000 C 
ATOM      5  C   UNL     1       2.271   8.152  18.482  0.00  0.00    +0.000 C 
ATOM      6  C   UNL     1       1.476   9.332  17.943  0.00  0.00    +0.000 C 
ENDROOT
BRANCH   1   7
ATOM      7  N   UNL     1       0.311  11.458  18.541  0.00  0.00    +0.000 NA
ATOM      8  H   UNL     1       0.248  11.512  17.524  0.00  0.00    +0.000 HD
BRANCH   7  10
ATOM      9  O   UNL     1       1.763  13.059  19.856  0.00  0.00    +0.000 OA
ATOM     10  S   UNL     1       0.452  12.987  19.255  0.00  0.00    +0.000 S 
ATOM     11  O   UNL     1      -0.030  13.984  18.325  0.00  0.00    +0.000 OA
BRANCH  10  12
ATOM     12  C   UNL     1      -0.703  12.860  20.607  0.00  0.00    +0.000 A 
ATOM     13  C   UNL     1      -0.216  12.995  21.914  0.00  0.00    +0.000 A 
ATOM     14  C   UNL     1      -1.093  12.866  22.989  0.00  0.00    +0.000 A 
ATOM     15  C   UNL     1      -2.441  12.615  22.748  0.00  0.00    +0.000 A 
ATOM     16  F   UNL     1      -3.279  12.483  23.784  0.00  0.00    +0.000 F 
ATOM     17  C   UNL     1      -2.933  12.503  21.451  0.00  0.00    +0.000 A 
ATOM     18  C   UNL     1      -2.063  12.636  20.368  0.00  0.00    +0.000 A 
ENDBRANCH  10  12
ENDBRANCH   7  10
ENDBRANCH   1   7
BRANCH   4  19
ATOM     19  C   UNL     1       2.393   6.329  20.208  0.00  0.00    +0.000 C 
BRANCH  19  20
ATOM     20  C   UNL     1       1.575   5.045  20.390  0.00  0.00    +0.000 C 
BRANCH  20  21
ATOM     21  N   UNL     1       2.019   3.962  19.491  0.00  0.00    +0.000 NA
ATOM     22  C   UNL     1       2.113   4.450  18.106  0.00  0.00    +0.000 C 
ATOM     23  C   UNL     1       2.863   3.538  17.147  0.00  0.00    +0.000 C 
ATOM     24  C   UNL     1       4.198   3.046  17.708  0.00  0.00    +0.000 C 
ATOM     25  C   UNL     1       3.947   2.400  19.072  0.00  0.00    +0.000 C 
ATOM     26  C   UNL     1       3.216   3.320  20.044  0.00  0.00    +0.000 C 
BRANCH  24  27
ATOM     27  C   UNL     1       5.310   4.088  17.697  0.00  0.00    +0.000 A 
ATOM     28  C   UNL     1       5.764   4.758  18.852  0.00  0.00    +0.000 A 
ATOM     29  C   UNL     1       6.759   5.749  18.808  0.00  0.00    +0.000 A 
ATOM     30  C   UNL     1       7.345   6.100  17.602  0.00  0.00    +0.000 A 
ATOM     31  C   UNL     1       6.926   5.428  16.471  0.00  0.00    +0.000 A 
ATOM     32  C   UNL     1       5.938   4.444  16.508  0.00  0.00    +0.000 A 
ATOM     33  C   UNL     1       5.689   3.992  15.118  0.00  0.00    +0.000 C 
ATOM     34  C   UNL     1       6.939   4.554  14.448  0.00  0.00    +0.000 C 
ATOM     35  O   UNL     1       7.421   5.675  15.218  0.00  0.00    +0.000 OA
ENDBRANCH  24  27
ENDBRANCH  20  21
ENDBRANCH  19  20
ENDBRANCH   4  19
TORSDOF 7
ENDMDL
MODEL 3
REMARK VINA RESULT:      -9.2      1.392      1.920
REMARK  Name = 
REMARK  7 active torsions:
REMARK  status: ('A' for Active; 'I' for Inactive)
REMARK    1  A    between atoms: S_2  and  N_4
REMARK    2  A    between atoms: S_2  and  C_28
REMARK    3  A    between atoms: N_4  and  C_5
REMARK    4  A    between atoms: C_8  and  C_9
REMARK    5  A    between atoms: C_9  and  C_10
REMARK    6  A    between atoms: C_10  and  N_11
REMARK    7  A    between atoms: C_14  and  C_15
REMARK                            x       y       z     vdW  Elec       q    Type
REMARK                         _______ _______ _______ _____ _____    ______ ____
ROOT
ATOM      1  C   UNL     1       0.671   9.588  18.984  0.00  0.00    +0.000 C 
ATOM      2  C   UNL     1       1.952   9.019  18.364  0.00  0.00    +0.000 C 
ATOM      3  C   UNL     1       2.158   7.566  18.763  0.00  0.00    +0.000 C 
ATOM      4  C   UNL     1       2.167   7.396  20.289  0.00  0.00    +0.000 C 
ATOM      5  C   UNL     1       0.902   7.978  20.918  0.00  0.00    +0.000 C 
ATOM      6  C   UNL     1       0.697   9.428  20.504  0.00  0.00    +0.000 C 
ENDROOT
BRANCH   1   7
ATOM      7  N   UNL     1       0.560  11.003  18.571  0.00  0.00    +0.000 NA
ATOM      8  H   UNL     1       1.310  11.600  18.921  0.00  0.00    +0.000 HD
BRANCH   7  10
ATOM      9  O   UNL     1      -0.898  12.897  17.744  0.00  0.00    +0.000 OA
ATOM     10  S   UNL     1      -0.950  11.767  18.641  0.00  0.00    +0.000 S 
ATOM     11  O   UNL     1      -1.987  10.763  18.564  0.00  0.00    +0.000 OA
BRANCH  10  12
ATOM     12  C   UNL     1      -0.933  12.447  20.289  0.00  0.00    +0.000 A 
ATOM     13  C   UNL     1      -2.032  12.201  21.123  0.00  0.00    +0.000 A 
ATOM     14  C   UNL     1      -2.057  12.750  22.403  0.00  0.00    +0.000 A 
ATOM     15  C   UNL     1      -0.986  13.525  22.838  0.00  0.00    +0.000 A 
ATOM     16  F   UNL     1      -1.018  14.059  24.066  0.00  0.00    +0.000 F 
ATOM     17  C   UNL     1       0.118  13.753  22.022  0.00  0.00    +0.000 A 
ATOM     18  C   UNL     1       0.154  13.203  20.740  0.00  0.00    +0.000 A 
ENDBRANCH  10  12
ENDBRANCH   7  10
ENDBRANCH   1   7
BRANCH   4  19
ATOM     19  C   UNL     1       2.325   5.920  20.685  0.00  0.00    +0.000 C 
BRANCH  19  20
ATOM     20  C   UNL     1       1.195   5.045  20.129  0.00  0.00    +0.000 C 
BRANCH  20  21
ATOM     21  N   UNL     1       1.699   3.959  19.264  0.00  0.00    +0.000 NA
ATOM     22  C   UNL     1       1.921   4.454  17.896  0.00  0.00    +0.000 C 
ATOM     23  C   UNL     1       2.737   3.534  17.000  0.00  0.00    +0.000 C 
ATOM     24  C   UNL     1       4.009   3.016  17.672  0.00  0.00    +0.000 C 
ATOM     25  C   UNL     1       3.629   2.366  19.004  0.00  0.00    +0.000 C 
ATOM     26  C   UNL     1       2.832   3.293  19.915  0.00  0.00    +0.000 C 
BRANCH  24  27
ATOM     27  C   UNL     1       5.135   4.039  17.766  0.00  0.00    +0.000 A 
ATOM     28  C   UNL     1       5.531   4.656  18.971  0.00  0.00    +0.000 A 
ATOM     29  C   UNL     1       6.542   5.630  19.024  0.00  0.00    +0.000 A 
ATOM     30  C   UNL     1       7.202   6.018  17.868  0.00  0.00    +0.000 A 
ATOM     31  C   UNL     1       6.840   5.397  16.689  0.00  0.00    +0.000 A 
ATOM     32  C   UNL     1       5.837   4.430  16.630  0.00  0.00    +0.000 A 
ATOM     33  C   UNL     1       5.662   4.036  15.212  0.00  0.00    +0.000 C 
ATOM     34  C   UNL     1       6.958   4.601  14.637  0.00  0.00    +0.000 C 
ATOM     35  O   UNL     1       7.410   5.684  15.477  0.00  0.00    +0.000 OA
ENDBRANCH  24  27
ENDBRANCH  20  21
ENDBRANCH  19  20
ENDBRANCH   4  19
TORSDOF 7
ENDMDL
MODEL 4
REMARK VINA RESULT:      -9.2      1.164      1.397
REMARK  Name = 
REMARK  7 active torsions:
REMARK  status: ('A' for Active; 'I' for Inactive)
REMARK    1  A    between atoms: S_2  and  N_4
REMARK    2  A    between atoms: S_2  and  C_28
REMARK    3  A    between atoms: N_4  and  C_5
REMARK    4  A    between atoms: C_8  and  C_9
REMARK    5  A    between atoms: C_9  and  C_10
REMARK    6  A    between atoms: C_10  and  N_11
REMARK    7  A    between atoms: C_14  and  C_15
REMARK                            x       y       z     vdW  Elec       q    Type
REMARK                         _______ _______ _______ _____ _____    ______ ____
ROOT
ATOM      1  C   UNL     1       1.571   9.882  18.975  0.00  0.00    +0.000 C 
ATOM      2  C   UNL     1       0.636   9.385  20.083  0.00  0.00    +0.000 C 
ATOM      3  C   UNL     1       1.228   8.183  20.803  0.00  0.00    +0.000 C 
ATOM      4  C   UNL     1       1.568   7.050  19.825  0.00  0.00    +0.000 C 
ATOM      5  C   UNL     1       2.485   7.542  18.706  0.00  0.00    +0.000 C 
ATOM      6  C   UNL     1       1.891   8.751  17.998  0.00  0.00    +0.000 C 
ENDROOT
BRANCH   1   7
ATOM      7  N   UNL     1       0.914  11.028  18.311  0.00  0.00    +0.000 NA
ATOM      8  H   UNL     1       1.169  11.144  17.330  0.00  0.00    +0.000 HD
BRANCH   7  10
ATOM      9  O   UNL     1       1.527  12.358  20.374  0.00  0.00    +0.000 OA
ATOM     10  S   UNL     1       0.817  12.510  19.125  0.00  0.00    +0.000 S 
ATOM     11  O   UNL     1       1.108  13.575  18.193  0.00  0.00    +0.000 OA
BRANCH  10  12
ATOM     12  C   UNL     1      -0.913  12.575  19.549  0.00  0.00    +0.000 A 
ATOM     13  C   UNL     1      -1.821  11.863  18.754  0.00  0.00    +0.000 A 
ATOM     14  C   UNL     1      -3.182  11.926  19.046  0.00  0.00    +0.000 A 
ATOM     15  C   UNL     1      -3.618  12.687  20.126  0.00  0.00    +0.000 A 
ATOM     16  F   UNL     1      -4.928  12.752  20.397  0.00  0.00    +0.000 F 
ATOM     17  C   UNL     1      -2.718  13.378  20.932  0.00  0.00    +0.000 A 
ATOM     18  C   UNL     1      -1.352  13.316  20.651  0.00  0.00    +0.000 A 
ENDBRANCH  10  12
ENDBRANCH   7  10
ENDBRANCH   1   7
BRANCH   4  19
ATOM     19  C   UNL     1       2.212   5.860  20.552  0.00  0.00    +0.000 C 
BRANCH  19  20
ATOM     20  C   UNL     1       1.335   4.603  20.504  0.00  0.00    +0.000 C 
BRANCH  20  21
ATOM     21  N   UNL     1       1.817   3.618  19.516  0.00  0.00    +0.000 NA
ATOM     22  C   UNL     1       1.904   4.229  18.181  0.00  0.00    +0.000 C 
ATOM     23  C   UNL     1       2.687   3.429  17.151  0.00  0.00    +0.000 C 
ATOM     24  C   UNL     1       4.033   2.929  17.678  0.00  0.00    +0.000 C 
ATOM     25  C   UNL     1       3.795   2.158  18.977  0.00  0.00    +0.000 C 
ATOM     26  C   UNL     1       3.031   2.966  20.020  0.00  0.00    +0.000 C 
BRANCH  24  27
ATOM     27  C   UNL     1       5.112   4.001  17.768  0.00  0.00    +0.000 A 
ATOM     28  C   UNL     1       5.480   4.641  18.970  0.00  0.00    +0.000 A 
ATOM     29  C   UNL     1       6.447   5.659  19.019  0.00  0.00    +0.000 A 
ATOM     30  C   UNL     1       7.090   6.071  17.862  0.00  0.00    +0.000 A 
ATOM     31  C   UNL     1       6.756   5.430  16.685  0.00  0.00    +0.000 A 
ATOM     32  C   UNL     1       5.797   4.419  16.630  0.00  0.00    +0.000 A 
ATOM     33  C   UNL     1       5.640   4.012  15.213  0.00  0.00    +0.000 C 
ATOM     34  C   UNL     1       6.909   4.632  14.637  0.00  0.00    +0.000 C 
ATOM     35  O   UNL     1       7.313   5.737  15.473  0.00  0.00    +0.000 OA
ENDBRANCH  24  27
ENDBRANCH  20  21
ENDBRANCH  19  20
ENDBRANCH   4  19
TORSDOF 7
ENDMDL
MODEL 5
REMARK VINA RESULT:      -9.2      2.892      3.512
REMARK  Name = 
REMARK  7 active torsions:
REMARK  status: ('A' for Active; 'I' for Inactive)
REMARK    1  A    between atoms: S_2  and  N_4
REMARK    2  A    between atoms: S_2  and  C_28
REMARK    3  A    between atoms: N_4  and  C_5
REMARK    4  A    between atoms: C_8  and  C_9
REMARK    5  A    between atoms: C_9  and  C_10
REMARK    6  A    between atoms: C_10  and  N_11
REMARK    7  A    between atoms: C_14  and  C_15
REMARK                            x       y       z     vdW  Elec       q    Type
REMARK                         _______ _______ _______ _____ _____    ______ ____
ROOT
ATOM      1  C   UNL     1       1.636   9.665  19.631  0.00  0.00    +0.000 C 
ATOM      2  C   UNL     1       0.645   9.091  20.649  0.00  0.00    +0.000 C 
ATOM      3  C   UNL     1       1.155   7.783  21.235  0.00  0.00    +0.000 C 
ATOM      4  C   UNL     1       1.466   6.757  20.137  0.00  0.00    +0.000 C 
ATOM      5  C   UNL     1       2.440   7.327  19.107  0.00  0.00    +0.000 C 
ATOM      6  C   UNL     1       1.928   8.642  18.534  0.00  0.00    +0.000 C 
ENDROOT
BRANCH   1   7
ATOM      7  N   UNL     1       1.058  10.914  19.093  0.00  0.00    +0.000 NA
ATOM      8  H   UNL     1       1.483  11.229  18.221  0.00  0.00    +0.000 HD
BRANCH   7  10
ATOM      9  O   UNL     1      -0.679  12.461  20.089  0.00  0.00    +0.000 OA
ATOM     10  S   UNL     1       0.740  12.199  20.149  0.00  0.00    +0.000 S 
ATOM     11  O   UNL     1       1.431  11.962  21.396  0.00  0.00    +0.000 OA
BRANCH  10  12
ATOM     12  C   UNL     1       1.526  13.559  19.308  0.00  0.00    +0.000 A 
ATOM     13  C   UNL     1       2.758  13.332  18.679  0.00  0.00    +0.000 A 
ATOM     14  C   UNL     1       3.408  14.388  18.044  0.00  0.00    +0.000 A 
ATOM     15  C   UNL     1       2.820  15.650  18.035  0.00  0.00    +0.000 A 
ATOM     16  F   UNL     1       3.454  16.664  17.431  0.00  0.00    +0.000 F 
ATOM     17  C   UNL     1       1.587  15.875  18.638  0.00  0.00    +0.000 A 
ATOM     18  C   UNL     1       0.925  14.822  19.272  0.00  0.00    +0.000 A 
ENDBRANCH  10  12
ENDBRANCH   7  10
ENDBRANCH   1   7
BRANCH   4  19
ATOM     19  C   UNL     1       2.028   5.457  20.733  0.00  0.00    +0.000 C 
BRANCH  19  20
ATOM     20  C   UNL     1       1.109   4.256  20.481  0.00  0.00    +0.000 C 
BRANCH  20  21
ATOM     21  N   UNL     1       1.644   3.344  19.451  0.00  0.00    +0.000 NA
ATOM     22  C   UNL     1       1.751   4.036  18.158  0.00  0.00    +0.000 C 
ATOM     23  C   UNL     1       2.584   3.318  17.105  0.00  0.00    +0.000 C 
ATOM     24  C   UNL     1       3.928   2.822  17.641  0.00  0.00    +0.000 C 
ATOM     25  C   UNL     1       3.674   1.968  18.884  0.00  0.00    +0.000 C 
ATOM     26  C   UNL     1       2.860   2.693  19.951  0.00  0.00    +0.000 C 
BRANCH  24  27
ATOM     27  C   UNL     1       4.976   3.913  17.826  0.00  0.00    +0.000 A 
ATOM     28  C   UNL     1       5.252   4.528  19.064  0.00  0.00    +0.000 A 
ATOM     29  C   UNL     1       6.191   5.564  19.200  0.00  0.00    +0.000 A 
ATOM     30  C   UNL     1       6.897   6.019  18.096  0.00  0.00    +0.000 A 
ATOM     31  C   UNL     1       6.652   5.402  16.886  0.00  0.00    +0.000 A 
ATOM     32  C   UNL     1       5.721   4.373  16.745  0.00  0.00    +0.000 A 
ATOM     33  C   UNL     1       5.664   3.999  15.311  0.00  0.00    +0.000 C 
ATOM     34  C   UNL     1       6.953   4.660  14.832  0.00  0.00    +0.000 C 
ATOM     35  O   UNL     1       7.279   5.751  15.719  0.00  0.00    +0.000 OA
ENDBRANCH  24  27
ENDBRANCH  20  21
ENDBRANCH  19  20
ENDBRANCH   4  19
TORSDOF 7
ENDMDL
MODEL 6
REMARK VINA RESULT:      -9.0      1.065      1.691
REMARK  Name = 
REMARK  7 active torsions:
REMARK  status: ('A' for Active; 'I' for Inactive)
REMARK    1  A    between atoms: S_2  and  N_4
REMARK    2  A    between atoms: S_2  and  C_28
REMARK    3  A    between atoms: N_4  and  C_5
REMARK    4  A    between atoms: C_8  and  C_9
REMARK    5  A    between atoms: C_9  and  C_10
REMARK    6  A    between atoms: C_10  and  N_11
REMARK    7  A    between atoms: C_14  and  C_15
REMARK                            x       y       z     vdW  Elec       q    Type
REMARK                         _______ _______ _______ _____ _____    ______ ____
ROOT
ATOM      1  C   UNL     1       0.651   9.675  19.601  0.00  0.00    +0.000 C 
ATOM      2  C   UNL     1       1.888   9.159  18.858  0.00  0.00    +0.000 C 
ATOM      3  C   UNL     1       2.067   7.662  19.062  0.00  0.00    +0.000 C 
ATOM      4  C   UNL     1       2.133   7.300  20.552  0.00  0.00    +0.000 C 
ATOM      5  C   UNL     1       0.912   7.827  21.304  0.00  0.00    +0.000 C 
ATOM      6  C   UNL     1       0.734   9.323  21.085  0.00  0.00    +0.000 C 
ENDROOT
BRANCH   1   7
ATOM      7  N   UNL     1       0.565  11.133  19.375  0.00  0.00    +0.000 NA
ATOM      8  H   UNL     1       1.048  11.694  20.077  0.00  0.00    +0.000 HD
BRANCH   7  10
ATOM      9  O   UNL     1      -0.631  12.991  18.142  0.00  0.00    +0.000 OA
ATOM     10  S   UNL     1      -0.920  11.813  18.926  0.00  0.00    +0.000 S 
ATOM     11  O   UNL     1      -1.792  10.762  18.453  0.00  0.00    +0.000 OA
BRANCH  10  12
ATOM     12  C   UNL     1      -1.533  12.404  20.492  0.00  0.00    +0.000 A 
ATOM     13  C   UNL     1      -0.621  12.582  21.541  0.00  0.00    +0.000 A 
ATOM     14  C   UNL     1      -1.081  13.011  22.784  0.00  0.00    +0.000 A 
ATOM     15  C   UNL     1      -2.438  13.264  22.963  0.00  0.00    +0.000 A 
ATOM     16  F   UNL     1      -2.877  13.667  24.162  0.00  0.00    +0.000 F 
ATOM     17  C   UNL     1      -3.344  13.110  21.918  0.00  0.00    +0.000 A 
ATOM     18  C   UNL     1      -2.892  12.687  20.668  0.00  0.00    +0.000 A 
ENDBRANCH  10  12
ENDBRANCH   7  10
ENDBRANCH   1   7
BRANCH   4  19
ATOM     19  C   UNL     1       2.263   5.782  20.751  0.00  0.00    +0.000 C 
BRANCH  19  20
ATOM     20  C   UNL     1       1.138   5.005  20.056  0.00  0.00    +0.000 C 
BRANCH  20  21
ATOM     21  N   UNL     1       1.652   3.927  19.188  0.00  0.00    +0.000 NA
ATOM     22  C   UNL     1       1.906   4.437  17.832  0.00  0.00    +0.000 C 
ATOM     23  C   UNL     1       2.735   3.523  16.941  0.00  0.00    +0.000 C 
ATOM     24  C   UNL     1       3.989   2.988  17.633  0.00  0.00    +0.000 C 
ATOM     25  C   UNL     1       3.578   2.324  18.948  0.00  0.00    +0.000 C 
ATOM     26  C   UNL     1       2.767   3.246  19.854  0.00  0.00    +0.000 C 
BRANCH  24  27
ATOM     27  C   UNL     1       5.120   4.002  17.762  0.00  0.00    +0.000 A 
ATOM     28  C   UNL     1       5.516   4.578  18.987  0.00  0.00    +0.000 A 
ATOM     29  C   UNL     1       6.531   5.545  19.074  0.00  0.00    +0.000 A 
ATOM     30  C   UNL     1       7.195   5.967  17.932  0.00  0.00    +0.000 A 
ATOM     31  C   UNL     1       6.833   5.387  16.733  0.00  0.00    +0.000 A 
ATOM     32  C   UNL     1       5.826   4.426  16.641  0.00  0.00    +0.000 A 
ATOM     33  C   UNL     1       5.652   4.079  15.210  0.00  0.00    +0.000 C 
ATOM     34  C   UNL     1       6.952   4.657  14.657  0.00  0.00    +0.000 C 
ATOM     35  O   UNL     1       7.407   5.710  15.533  0.00  0.00    +0.000 OA
ENDBRANCH  24  27
ENDBRANCH  20  21
ENDBRANCH  19  20
ENDBRANCH   4  19
TORSDOF 7
ENDMDL
MODEL 7
REMARK VINA RESULT:      -8.9      2.664      3.246
REMARK  Name = 
REMARK  7 active torsions:
REMARK  status: ('A' for Active; 'I' for Inactive)
REMARK    1  A    between atoms: S_2  and  N_4
REMARK    2  A    between atoms: S_2  and  C_28
REMARK    3  A    between atoms: N_4  and  C_5
REMARK    4  A    between atoms: C_8  and  C_9
REMARK    5  A    between atoms: C_9  and  C_10
REMARK    6  A    between atoms: C_10  and  N_11
REMARK    7  A    between atoms: C_14  and  C_15
REMARK                            x       y       z     vdW  Elec       q    Type
REMARK                         _______ _______ _______ _____ _____    ______ ____
ROOT
ATOM      1  C   UNL     1       0.872   9.532  18.985  0.00  0.00    +0.000 C 
ATOM      2  C   UNL     1       2.010   8.776  18.289  0.00  0.00    +0.000 C 
ATOM      3  C   UNL     1       2.064   7.325  18.743  0.00  0.00    +0.000 C 
ATOM      4  C   UNL     1       2.188   7.215  20.269  0.00  0.00    +0.000 C 
ATOM      5  C   UNL     1       1.068   7.981  20.972  0.00  0.00    +0.000 C 
ATOM      6  C   UNL     1       1.013   9.429  20.504  0.00  0.00    +0.000 C 
ENDROOT
BRANCH   1   7
ATOM      7  N   UNL     1       0.905  10.931  18.513  0.00  0.00    +0.000 NA
ATOM      8  H   UNL     1       1.805  11.394  18.640  0.00  0.00    +0.000 HD
BRANCH   7  10
ATOM      9  O   UNL     1      -1.307  11.898  17.755  0.00  0.00    +0.000 OA
ATOM     10  S   UNL     1      -0.395  11.955  18.873  0.00  0.00    +0.000 S 
ATOM     11  O   UNL     1      -0.820  11.711  20.233  0.00  0.00    +0.000 OA
BRANCH  10  12
ATOM     12  C   UNL     1       0.378  13.560  18.794  0.00  0.00    +0.000 A 
ATOM     13  C   UNL     1      -0.424  14.695  18.975  0.00  0.00    +0.000 A 
ATOM     14  C   UNL     1       0.152  15.961  18.884  0.00  0.00    +0.000 A 
ATOM     15  C   UNL     1       1.514  16.078  18.625  0.00  0.00    +0.000 A 
ATOM     16  F   UNL     1       2.061  17.297  18.529  0.00  0.00    +0.000 F 
ATOM     17  C   UNL     1       2.318  14.953  18.467  0.00  0.00    +0.000 A 
ATOM     18  C   UNL     1       1.752  13.681  18.563  0.00  0.00    +0.000 A 
ENDBRANCH  10  12
ENDBRANCH   7  10
ENDBRANCH   1   7
BRANCH   4  19
ATOM     19  C   UNL     1       2.191   5.748  20.724  0.00  0.00    +0.000 C 
BRANCH  19  20
ATOM     20  C   UNL     1       1.095   4.923  20.038  0.00  0.00    +0.000 C 
BRANCH  20  21
ATOM     21  N   UNL     1       1.648   3.847  19.191  0.00  0.00    +0.000 NA
ATOM     22  C   UNL     1       1.904   4.344  17.831  0.00  0.00    +0.000 C 
ATOM     23  C   UNL     1       2.767   3.441  16.962  0.00  0.00    +0.000 C 
ATOM     24  C   UNL     1       4.027   2.949  17.676  0.00  0.00    +0.000 C 
ATOM     25  C   UNL     1       3.618   2.293  18.996  0.00  0.00    +0.000 C 
ATOM     26  C   UNL     1       2.773   3.205  19.879  0.00  0.00    +0.000 C 
BRANCH  24  27
ATOM     27  C   UNL     1       5.129   3.995  17.804  0.00  0.00    +0.000 A 
ATOM     28  C   UNL     1       5.487   4.607  19.022  0.00  0.00    +0.000 A 
ATOM     29  C   UNL     1       6.475   5.602  19.107  0.00  0.00    +0.000 A 
ATOM     30  C   UNL     1       7.150   6.017  17.968  0.00  0.00    +0.000 A 
ATOM     31  C   UNL     1       6.825   5.402  16.776  0.00  0.00    +0.000 A 
ATOM     32  C   UNL     1       5.845   4.414  16.686  0.00  0.00    +0.000 A 
ATOM     33  C   UNL     1       5.706   4.032  15.260  0.00  0.00    +0.000 C 
ATOM     34  C   UNL     1       7.000   4.632  14.718  0.00  0.00    +0.000 C 
ATOM     35  O   UNL     1       7.412   5.715  15.579  0.00  0.00    +0.000 OA
ENDBRANCH  24  27
ENDBRANCH  20  21
ENDBRANCH  19  20
ENDBRANCH   4  19
TORSDOF 7
ENDMDL
MODEL 8
REMARK VINA RESULT:      -8.9      1.846      2.218
REMARK  Name = 
REMARK  7 active torsions:
REMARK  status: ('A' for Active; 'I' for Inactive)
REMARK    1  A    between atoms: S_2  and  N_4
REMARK    2  A    between atoms: S_2  and  C_28
REMARK    3  A    between atoms: N_4  and  C_5
REMARK    4  A    between atoms: C_8  and  C_9
REMARK    5  A    between atoms: C_9  and  C_10
REMARK    6  A    between atoms: C_10  and  N_11
REMARK    7  A    between atoms: C_14  and  C_15
REMARK                            x       y       z     vdW  Elec       q    Type
REMARK                         _______ _______ _______ _____ _____    ______ ____
ROOT
ATOM      1  C   UNL     1       0.454  10.746  20.983  0.00  0.00    +0.000 C 
ATOM      2  C   UNL     1       0.431   9.731  22.132  0.00  0.00    +0.000 C 
ATOM      3  C   UNL     1       1.422   8.603  21.890  0.00  0.00    +0.000 C 
ATOM      4  C   UNL     1       1.169   7.910  20.543  0.00  0.00    +0.000 C 
ATOM      5  C   UNL     1       1.172   8.917  19.394  0.00  0.00    +0.000 C 
ATOM      6  C   UNL     1       0.186  10.048  19.650  0.00  0.00    +0.000 C 
ENDROOT
BRANCH   1   7
ATOM      7  N   UNL     1      -0.550  11.788  21.282  0.00  0.00    +0.000 NA
ATOM      8  H   UNL     1      -1.423  11.429  21.669  0.00  0.00    +0.000 HD
BRANCH   7  10
ATOM      9  O   UNL     1      -1.263  14.185  20.895  0.00  0.00    +0.000 OA
ATOM     10  S   UNL     1      -0.814  13.027  20.157  0.00  0.00    +0.000 S 
ATOM     11  O   UNL     1       0.306  13.077  19.245  0.00  0.00    +0.000 OA
BRANCH  10  12
ATOM     12  C   UNL     1      -2.241  12.420  19.280  0.00  0.00    +0.000 A 
ATOM     13  C   UNL     1      -2.058  11.885  17.998  0.00  0.00    +0.000 A 
ATOM     14  C   UNL     1      -3.163  11.434  17.279  0.00  0.00    +0.000 A 
ATOM     15  C   UNL     1      -4.430  11.513  17.849  0.00  0.00    +0.000 A 
ATOM     16  F   UNL     1      -5.491  11.088  17.150  0.00  0.00    +0.000 F 
ATOM     17  C   UNL     1      -4.615  12.023  19.130  0.00  0.00    +0.000 A 
ATOM     18  C   UNL     1      -3.513  12.471  19.860  0.00  0.00    +0.000 A 
ENDBRANCH  10  12
ENDBRANCH   7  10
ENDBRANCH   1   7
BRANCH   4  19
ATOM     19  C   UNL     1       2.205   6.806  20.282  0.00  0.00    +0.000 C 
BRANCH  19  20
ATOM     20  C   UNL     1       1.707   5.424  20.722  0.00  0.00    +0.000 C 
BRANCH  20  21
ATOM     21  N   UNL     1       1.993   4.378  19.720  0.00  0.00    +0.000 NA
ATOM     22  C   UNL     1       2.120   4.971  18.380  0.00  0.00    +0.000 C 
ATOM     23  C   UNL     1       2.730   4.061  17.324  0.00  0.00    +0.000 C 
ATOM     24  C   UNL     1       4.003   3.360  17.800  0.00  0.00    +0.000 C 
ATOM     25  C   UNL     1       3.701   2.632  19.111  0.00  0.00    +0.000 C 
ATOM     26  C   UNL     1       3.111   3.546  20.179  0.00  0.00    +0.000 C 
BRANCH  24  27
ATOM     27  C   UNL     1       5.238   4.254  17.843  0.00  0.00    +0.000 A 
ATOM     28  C   UNL     1       5.784   4.774  19.035  0.00  0.00    +0.000 A 
ATOM     29  C   UNL     1       6.895   5.633  19.045  0.00  0.00    +0.000 A 
ATOM     30  C   UNL     1       7.508   5.998  17.856  0.00  0.00    +0.000 A 
ATOM     31  C   UNL     1       6.997   5.470  16.687  0.00  0.00    +0.000 A 
ATOM     32  C   UNL     1       5.894   4.617  16.671  0.00  0.00    +0.000 A 
ATOM     33  C   UNL     1       5.575   4.305  15.257  0.00  0.00    +0.000 C 
ATOM     34  C   UNL     1       6.879   4.755  14.606  0.00  0.00    +0.000 C 
ATOM     35  O   UNL     1       7.506   5.747  15.446  0.00  0.00    +0.000 OA
ENDBRANCH  24  27
ENDBRANCH  20  21
ENDBRANCH  19  20
ENDBRANCH   4  19
TORSDOF 7
ENDMDL
MODEL 9
REMARK VINA RESULT:      -8.9      2.390      2.957
REMARK  Name = 
REMARK  7 active torsions:
REMARK  status: ('A' for Active; 'I' for Inactive)
REMARK    1  A    between atoms: S_2  and  N_4
REMARK    2  A    between atoms: S_2  and  C_28
REMARK    3  A    between atoms: N_4  and  C_5
REMARK    4  A    between atoms: C_8  and  C_9
REMARK    5  A    between atoms: C_9  and  C_10
REMARK    6  A    between atoms: C_10  and  N_11
REMARK    7  A    between atoms: C_14  and  C_15
REMARK                            x       y       z     vdW  Elec       q    Type
REMARK                         _______ _______ _______ _____ _____    ______ ____
ROOT
ATOM      1  C   UNL     1       0.363  10.079  19.685  0.00  0.00    +0.000 C 
ATOM      2  C   UNL     1       1.420   9.566  18.700  0.00  0.00    +0.000 C 
ATOM      3  C   UNL     1       1.690   8.083  18.906  0.00  0.00    +0.000 C 
ATOM      4  C   UNL     1       2.099   7.780  20.355  0.00  0.00    +0.000 C 
ATOM      5  C   UNL     1       1.059   8.305  21.344  0.00  0.00    +0.000 C 
ATOM      6  C   UNL     1       0.786   9.786  21.123  0.00  0.00    +0.000 C 
ENDROOT
BRANCH   1   7
ATOM      7  N   UNL     1       0.179  11.524  19.437  0.00  0.00    +0.000 NA
ATOM      8  H   UNL     1       0.957  12.103  19.753  0.00  0.00    +0.000 HD
BRANCH   7  10
ATOM      9  O   UNL     1      -1.848  11.590  20.950  0.00  0.00    +0.000 OA
ATOM     10  S   UNL     1      -1.322  12.235  19.769  0.00  0.00    +0.000 S 
ATOM     11  O   UNL     1      -1.194  13.670  19.661  0.00  0.00    +0.000 OA
BRANCH  10  12
ATOM     12  C   UNL     1      -2.308  11.643  18.407  0.00  0.00    +0.000 A 
ATOM     13  C   UNL     1      -1.651  11.129  17.281  0.00  0.00    +0.000 A 
ATOM     14  C   UNL     1      -2.400  10.692  16.190  0.00  0.00    +0.000 A 
ATOM     15  C   UNL     1      -3.789  10.764  16.239  0.00  0.00    +0.000 A 
ATOM     16  F   UNL     1      -4.504  10.352  15.184  0.00  0.00    +0.000 F 
ATOM     17  C   UNL     1      -4.447  11.253  17.363  0.00  0.00    +0.000 A 
ATOM     18  C   UNL     1      -3.706  11.688  18.463  0.00  0.00    +0.000 A 
ENDBRANCH  10  12
ENDBRANCH   7  10
ENDBRANCH   1   7
BRANCH   4  19
ATOM     19  C   UNL     1       2.320   6.275  20.568  0.00  0.00    +0.000 C 
BRANCH  19  20
ATOM     20  C   UNL     1       1.168   5.432  20.008  0.00  0.00    +0.000 C 
BRANCH  20  21
ATOM     21  N   UNL     1       1.647   4.271  19.230  0.00  0.00    +0.000 NA
ATOM     22  C   UNL     1       1.953   4.670  17.848  0.00  0.00    +0.000 C 
ATOM     23  C   UNL     1       2.754   3.657  17.044  0.00  0.00    +0.000 C 
ATOM     24  C   UNL     1       3.967   3.115  17.801  0.00  0.00    +0.000 C 
ATOM     25  C   UNL     1       3.498   2.568  19.150  0.00  0.00    +0.000 C 
ATOM     26  C   UNL     1       2.715   3.588  19.969  0.00  0.00    +0.000 C 
BRANCH  24  27
ATOM     27  C   UNL     1       5.143   4.082  17.885  0.00  0.00    +0.000 A 
ATOM     28  C   UNL     1       5.599   4.654  19.091  0.00  0.00    +0.000 A 
ATOM     29  C   UNL     1       6.655   5.579  19.136  0.00  0.00    +0.000 A 
ATOM     30  C   UNL     1       7.302   5.960  17.971  0.00  0.00    +0.000 A 
ATOM     31  C   UNL     1       6.880   5.383  16.790  0.00  0.00    +0.000 A 
ATOM     32  C   UNL     1       5.832   4.465  16.739  0.00  0.00    +0.000 A 
ATOM     33  C   UNL     1       5.601   4.110  15.318  0.00  0.00    +0.000 C 
ATOM     34  C   UNL     1       6.907   4.627  14.720  0.00  0.00    +0.000 C 
ATOM     35  O   UNL     1       7.432   5.669  15.569  0.00  0.00    +0.000 OA
ENDBRANCH  24  27
ENDBRANCH  20  21
ENDBRANCH  19  20
ENDBRANCH   4  19
TORSDOF 7
ENDMDL
