MODEL 1
REMARK VINA RESULT:      -7.4      0.000      0.000
REMARK  Name = 
REMARK  9 active torsions:
REMARK  status: ('A' for Active; 'I' for Inactive)
REMARK    1  A    between atoms: C_1  and  C_2
REMARK    2  A    between atoms: C_2  and  O_3
REMARK    3  A    between atoms: O_3  and  C_4
REMARK    4  A    between atoms: C_4  and  C_6
REMARK    5  A    between atoms: C_9  and  S_10
REMARK    6  A    between atoms: S_10  and  N_13
REMARK    7  A    between atoms: N_16  and  S_17
REMARK    8  A    between atoms: S_17  and  C_20
REMARK    9  A    between atoms: C_20  and  C_21
REMARK                            x       y       z     vdW  Elec       q    Type
REMARK                         _______ _______ _______ _____ _____    ______ ____
ROOT
ATOM      1  S   UNL     1       2.632   4.133  19.403  0.00  0.00    +0.000 S 
ATOM      2  O   UNL     1       2.970   3.605  20.704  0.00  0.00    +0.000 OA
ATOM      3  O   UNL     1       1.551   3.575  18.619  0.00  0.00    +0.000 OA
ENDROOT
BRANCH   1   7
ATOM      4  C   UNL     1       1.496   8.538  19.909  0.00  0.00    +0.000 A 
ATOM      5  C   UNL     1       2.046   8.087  18.701  0.00  0.00    +0.000 A 
ATOM      6  C   UNL     1       2.428   6.751  18.552  0.00  0.00    +0.000 A 
ATOM      7  C   UNL     1       2.266   5.862  19.622  0.00  0.00    +0.000 A 
ATOM      8  C   UNL     1       1.703   6.300  20.825  0.00  0.00    +0.000 A 
ATOM      9  C   UNL     1       1.323   7.637  20.971  0.00  0.00    +0.000 A 
BRANCH   4  10
ATOM     10  C   UNL     1       1.157   9.981  20.022  0.00  0.00    +0.000 C 
ATOM     11  O   UNL     1       1.214  10.759  19.084  0.00  0.00    +0.000 OA
BRANCH  10  12
ATOM     12  O   UNL     1       0.904  10.300  21.315  0.00  0.00    +0.000 OA
BRANCH  12  14
ATOM     13  C   UNL     1      -0.785  10.357  23.005  0.00  0.00    +0.000 C 
ATOM     14  C   UNL     1      -0.430  10.755  21.584  0.00  0.00    +0.000 C 
ENDBRANCH  12  14
ENDBRANCH  10  12
ENDBRANCH   4  10
ENDBRANCH   1   7
BRANCH   1  15
ATOM     15  N   UNL     1       4.017   4.146  18.462  0.00  0.00    +0.000 NA
ATOM     16  C   UNL     1       3.927   4.251  16.993  0.00  0.00    +0.000 C 
ATOM     17  C   UNL     1       4.538   5.563  16.496  0.00  0.00    +0.000 C 
ATOM     18  N   UNL     1       5.947   5.751  16.958  0.00  0.00    +0.000 NA
ATOM     19  C   UNL     1       6.014   5.680  18.459  0.00  0.00    +0.000 C 
ATOM     20  C   UNL     1       5.357   4.415  19.039  0.00  0.00    +0.000 C 
BRANCH  18  21
ATOM     21  S   UNL     1       7.169   4.894  16.139  0.00  0.00    +0.000 S 
ATOM     22  O   UNL     1       7.743   5.796  15.162  0.00  0.00    +0.000 OA
ATOM     23  O   UNL     1       8.001   4.255  17.134  0.00  0.00    +0.000 OA
BRANCH  21  24
ATOM     24  C   UNL     1       6.244   3.634  15.257  0.00  0.00    +0.000 C 
ATOM     25  C   UNL     1       6.229   3.906  13.766  0.00  0.00    +0.000 C 
ENDBRANCH  21  24
ENDBRANCH  18  21
ENDBRANCH   1  15
TORSDOF 7
ENDMDL
MODEL 2
REMARK VINA RESULT:      -7.3      0.874      1.300
REMARK  Name = 
REMARK  9 active torsions:
REMARK  status: ('A' for Active; 'I' for Inactive)
REMARK    1  A    between atoms: C_1  and  C_2
REMARK    2  A    between atoms: C_2  and  O_3
REMARK    3  A    between atoms: O_3  and  C_4
REMARK    4  A    between atoms: C_4  and  C_6
REMARK    5  A    between atoms: C_9  and  S_10
REMARK    6  A    between atoms: S_10  and  N_13
REMARK    7  A    between atoms: N_16  and  S_17
REMARK    8  A    between atoms: S_17  and  C_20
REMARK    9  A    between atoms: C_20  and  C_21
REMARK                            x       y       z     vdW  Elec       q    Type
REMARK                         _______ _______ _______ _____ _____    ______ ____
ROOT
ATOM      1  S   UNL     1       2.342   4.002  18.973  0.00  0.00    +0.000 S 
ATOM      2  O   UNL     1       2.524   3.224  20.176  0.00  0.00    +0.000 OA
ATOM      3  O   UNL     1       1.291   3.695  18.027  0.00  0.00    +0.000 OA
ENDROOT
BRANCH   1   7
ATOM      4  C   UNL     1       1.523   8.332  20.210  0.00  0.00    +0.000 A 
ATOM      5  C   UNL     1       2.034   8.048  18.936  0.00  0.00    +0.000 A 
ATOM      6  C   UNL     1       2.319   6.732  18.564  0.00  0.00    +0.000 A 
ATOM      7  C   UNL     1       2.100   5.693  19.477  0.00  0.00    +0.000 A 
ATOM      8  C   UNL     1       1.576   5.965  20.745  0.00  0.00    +0.000 A 
ATOM      9  C   UNL     1       1.292   7.283  21.114  0.00  0.00    +0.000 A 
BRANCH   4  10
ATOM     10  C   UNL     1       1.287   9.757  20.563  0.00  0.00    +0.000 C 
ATOM     11  O   UNL     1       1.157  10.151  21.711  0.00  0.00    +0.000 OA
BRANCH  10  12
ATOM     12  O   UNL     1       1.124  10.495  19.438  0.00  0.00    +0.000 OA
BRANCH  12  14
ATOM     13  C   UNL     1      -0.927  10.314  18.226  0.00  0.00    +0.000 C 
ATOM     14  C   UNL     1      -0.169  11.096  19.282  0.00  0.00    +0.000 C 
ENDBRANCH  12  14
ENDBRANCH  10  12
ENDBRANCH   4  10
ENDBRANCH   1   7
BRANCH   1  15
ATOM     15  N   UNL     1       3.799   4.048  18.149  0.00  0.00    +0.000 NA
ATOM     16  C   UNL     1       3.849   4.447  16.730  0.00  0.00    +0.000 C 
ATOM     17  C   UNL     1       4.621   5.756  16.552  0.00  0.00    +0.000 C 
ATOM     18  N   UNL     1       5.995   5.696  17.136  0.00  0.00    +0.000 NA
ATOM     19  C   UNL     1       5.923   5.326  18.591  0.00  0.00    +0.000 C 
ATOM     20  C   UNL     1       5.103   4.051  18.857  0.00  0.00    +0.000 C 
BRANCH  18  21
ATOM     21  S   UNL     1       7.199   4.888  16.244  0.00  0.00    +0.000 S 
ATOM     22  O   UNL     1       7.731   5.836  15.288  0.00  0.00    +0.000 OA
ATOM     23  O   UNL     1       8.068   4.217  17.184  0.00  0.00    +0.000 OA
BRANCH  21  24
ATOM     24  C   UNL     1       6.259   3.655  15.339  0.00  0.00    +0.000 C 
ATOM     25  C   UNL     1       6.252   3.950  13.852  0.00  0.00    +0.000 C 
ENDBRANCH  21  24
ENDBRANCH  18  21
ENDBRANCH   1  15
TORSDOF 7
ENDMDL
MODEL 3
REMARK VINA RESULT:      -7.3      3.875      6.666
REMARK  Name = 
REMARK  9 active torsions:
REMARK  status: ('A' for Active; 'I' for Inactive)
REMARK    1  A    between atoms: C_1  and  C_2
REMARK    2  A    between atoms: C_2  and  O_3
REMARK    3  A    between atoms: O_3  and  C_4
REMARK    4  A    between atoms: C_4  and  C_6
REMARK    5  A    between atoms: C_9  and  S_10
REMARK    6  A    between atoms: S_10  and  N_13
REMARK    7  A    between atoms: N_16  and  S_17
REMARK    8  A    between atoms: S_17  and  C_20
REMARK    9  A    between atoms: C_20  and  C_21
REMARK                            x       y       z     vdW  Elec       q    Type
REMARK                         _______ _______ _______ _____ _____    ______ ____
ROOT
ATOM      1  S   UNL     1       7.201   5.141  17.414  0.00  0.00    +0.000 S 
ATOM      2  O   UNL     1       7.328   5.036  15.979  0.00  0.00    +0.000 OA
ATOM      3  O   UNL     1       7.945   4.275  18.303  0.00  0.00    +0.000 OA
ENDROOT
BRANCH   1   7
ATOM      4  C   UNL     1       8.451   9.429  18.414  0.00  0.00    +0.000 A 
ATOM      5  C   UNL     1       8.899   8.363  19.206  0.00  0.00    +0.000 A 
ATOM      6  C   UNL     1       8.493   7.054  18.927  0.00  0.00    +0.000 A 
ATOM      7  C   UNL     1       7.626   6.813  17.855  0.00  0.00    +0.000 A 
ATOM      8  C   UNL     1       7.186   7.870  17.050  0.00  0.00    +0.000 A 
ATOM      9  C   UNL     1       7.594   9.177  17.331  0.00  0.00    +0.000 A 
BRANCH   4  10
ATOM     10  C   UNL     1       8.878  10.802  18.792  0.00  0.00    +0.000 C 
ATOM     11  O   UNL     1       9.030  11.703  17.984  0.00  0.00    +0.000 OA
BRANCH  10  12
ATOM     12  O   UNL     1       9.178  10.850  20.113  0.00  0.00    +0.000 OA
BRANCH  12  14
ATOM     13  C   UNL     1       9.861  12.795  21.321  0.00  0.00    +0.000 C 
ATOM     14  C   UNL     1      10.326  11.641  20.451  0.00  0.00    +0.000 C 
ENDBRANCH  12  14
ENDBRANCH  10  12
ENDBRANCH   4  10
ENDBRANCH   1   7
BRANCH   1  15
ATOM     15  N   UNL     1       5.577   5.037  17.810  0.00  0.00    +0.000 NA
ATOM     16  C   UNL     1       4.561   4.815  16.764  0.00  0.00    +0.000 C 
ATOM     17  C   UNL     1       3.871   3.460  16.944  0.00  0.00    +0.000 C 
ATOM     18  N   UNL     1       3.279   3.295  18.306  0.00  0.00    +0.000 NA
ATOM     19  C   UNL     1       4.336   3.487  19.358  0.00  0.00    +0.000 C 
ATOM     20  C   UNL     1       5.120   4.802  19.201  0.00  0.00    +0.000 C 
BRANCH  18  21
ATOM     21  S   UNL     1       1.796   4.070  18.622  0.00  0.00    +0.000 S 
ATOM     22  O   UNL     1       2.081   5.207  19.472  0.00  0.00    +0.000 OA
ATOM     23  O   UNL     1       1.111   4.241  17.361  0.00  0.00    +0.000 OA
BRANCH  21  24
ATOM     24  C   UNL     1       0.915   2.851  19.602  0.00  0.00    +0.000 C 
ATOM     25  C   UNL     1       1.190   3.031  21.082  0.00  0.00    +0.000 C 
ENDBRANCH  21  24
ENDBRANCH  18  21
ENDBRANCH   1  15
TORSDOF 7
ENDMDL
MODEL 4
REMARK VINA RESULT:      -7.3      3.827      6.679
REMARK  Name = 
REMARK  9 active torsions:
REMARK  status: ('A' for Active; 'I' for Inactive)
REMARK    1  A    between atoms: C_1  and  C_2
REMARK    2  A    between atoms: C_2  and  O_3
REMARK    3  A    between atoms: O_3  and  C_4
REMARK    4  A    between atoms: C_4  and  C_6
REMARK    5  A    between atoms: C_9  and  S_10
REMARK    6  A    between atoms: S_10  and  N_13
REMARK    7  A    between atoms: N_16  and  S_17
REMARK    8  A    between atoms: S_17  and  C_20
REMARK    9  A    between atoms: C_20  and  C_21
REMARK                            x       y       z     vdW  Elec       q    Type
REMARK                         _______ _______ _______ _____ _____    ______ ____
ROOT
ATOM      1  S   UNL     1       7.183   5.127  17.351  0.00  0.00    +0.000 S 
ATOM      2  O   UNL     1       7.273   5.082  15.910  0.00  0.00    +0.000 OA
ATOM      3  O   UNL     1       7.929   4.207  18.182  0.00  0.00    +0.000 OA
ENDROOT
BRANCH   1   7
ATOM      4  C   UNL     1       8.565   9.331  18.521  0.00  0.00    +0.000 A 
ATOM      5  C   UNL     1       8.888   8.233  19.330  0.00  0.00    +0.000 A 
ATOM      6  C   UNL     1       8.440   6.951  18.998  0.00  0.00    +0.000 A 
ATOM      7  C   UNL     1       7.655   6.769  17.852  0.00  0.00    +0.000 A 
ATOM      8  C   UNL     1       7.341   7.856  17.031  0.00  0.00    +0.000 A 
ATOM      9  C   UNL     1       7.791   9.137  17.366  0.00  0.00    +0.000 A 
BRANCH   4  10
ATOM     10  C   UNL     1       9.029  10.675  18.955  0.00  0.00    +0.000 C 
ATOM     11  O   UNL     1       8.872  11.105  20.086  0.00  0.00    +0.000 OA
BRANCH  10  12
ATOM     12  O   UNL     1       9.524  11.361  17.896  0.00  0.00    +0.000 OA
BRANCH  12  14
ATOM     13  C   UNL     1       7.735  12.798  17.229  0.00  0.00    +0.000 C 
ATOM     14  C   UNL     1       9.131  12.739  17.822  0.00  0.00    +0.000 C 
ENDBRANCH  12  14
ENDBRANCH  10  12
ENDBRANCH   4  10
ENDBRANCH   1   7
BRANCH   1  15
ATOM     15  N   UNL     1       5.567   5.040  17.782  0.00  0.00    +0.000 NA
ATOM     16  C   UNL     1       4.533   4.754  16.770  0.00  0.00    +0.000 C 
ATOM     17  C   UNL     1       3.853   3.410  17.040  0.00  0.00    +0.000 C 
ATOM     18  N   UNL     1       3.287   3.321  18.420  0.00  0.00    +0.000 NA
ATOM     19  C   UNL     1       4.362   3.576  19.439  0.00  0.00    +0.000 C 
ATOM     20  C   UNL     1       5.138   4.883  19.193  0.00  0.00    +0.000 C 
BRANCH  18  21
ATOM     21  S   UNL     1       1.807   4.107  18.719  0.00  0.00    +0.000 S 
ATOM     22  O   UNL     1       2.086   5.226  19.595  0.00  0.00    +0.000 OA
ATOM     23  O   UNL     1       1.150   4.309  17.447  0.00  0.00    +0.000 OA
BRANCH  21  24
ATOM     24  C   UNL     1       0.891   2.881  19.658  0.00  0.00    +0.000 C 
ATOM     25  C   UNL     1       1.172   3.004  21.143  0.00  0.00    +0.000 C 
ENDBRANCH  21  24
ENDBRANCH  18  21
ENDBRANCH   1  15
TORSDOF 7
ENDMDL
MODEL 5
REMARK VINA RESULT:      -7.2      3.506      8.097
REMARK  Name = 
REMARK  9 active torsions:
REMARK  status: ('A' for Active; 'I' for Inactive)
REMARK    1  A    between atoms: C_1  and  C_2
REMARK    2  A    between atoms: C_2  and  O_3
REMARK    3  A    between atoms: O_3  and  C_4
REMARK    4  A    between atoms: C_4  and  C_6
REMARK    5  A    between atoms: C_9  and  S_10
REMARK    6  A    between atoms: S_10  and  N_13
REMARK    7  A    between atoms: N_16  and  S_17
REMARK    8  A    between atoms: S_17  and  C_20
REMARK    9  A    between atoms: C_20  and  C_21
REMARK                            x       y       z     vdW  Elec       q    Type
REMARK                         _______ _______ _______ _____ _____    ______ ____
ROOT
ATOM      1  S   UNL     1       6.999   5.462  17.210  0.00  0.00    +0.000 S 
ATOM      2  O   UNL     1       8.059   4.595  17.672  0.00  0.00    +0.000 OA
ATOM      3  O   UNL     1       7.212   6.881  17.025  0.00  0.00    +0.000 OA
ENDROOT
BRANCH   1   7
ATOM      4  C   UNL     1       5.636   3.621  13.247  0.00  0.00    +0.000 A 
ATOM      5  C   UNL     1       6.896   4.228  13.346  0.00  0.00    +0.000 A 
ATOM      6  C   UNL     1       7.305   4.823  14.543  0.00  0.00    +0.000 A 
ATOM      7  C   UNL     1       6.443   4.818  15.646  0.00  0.00    +0.000 A 
ATOM      8  C   UNL     1       5.191   4.200  15.562  0.00  0.00    +0.000 A 
ATOM      9  C   UNL     1       4.785   3.606  14.364  0.00  0.00    +0.000 A 
BRANCH   4  10
ATOM     10  C   UNL     1       5.241   3.049  11.933  0.00  0.00    +0.000 C 
ATOM     11  O   UNL     1       5.695   2.007  11.491  0.00  0.00    +0.000 OA
BRANCH  10  12
ATOM     12  O   UNL     1       4.419   3.908  11.281  0.00  0.00    +0.000 OA
BRANCH  12  14
ATOM     13  C   UNL     1       2.845   4.292   9.525  0.00  0.00    +0.000 C 
ATOM     14  C   UNL     1       3.348   3.293  10.550  0.00  0.00    +0.000 C 
ENDBRANCH  12  14
ENDBRANCH  10  12
ENDBRANCH   4  10
ENDBRANCH   1   7
BRANCH   1  15
ATOM     15  N   UNL     1       5.672   5.251  18.210  0.00  0.00    +0.000 NA
ATOM     16  C   UNL     1       4.479   6.106  18.066  0.00  0.00    +0.000 C 
ATOM     17  C   UNL     1       3.266   5.288  17.616  0.00  0.00    +0.000 C 
ATOM     18  N   UNL     1       2.986   4.132  18.520  0.00  0.00    +0.000 NA
ATOM     19  C   UNL     1       4.200   3.251  18.625  0.00  0.00    +0.000 C 
ATOM     20  C   UNL     1       5.478   4.017  19.010  0.00  0.00    +0.000 C 
BRANCH  18  21
ATOM     21  S   UNL     1       2.198   4.453  19.994  0.00  0.00    +0.000 S 
ATOM     22  O   UNL     1       2.775   5.666  20.533  0.00  0.00    +0.000 OA
ATOM     23  O   UNL     1       0.774   4.350  19.764  0.00  0.00    +0.000 OA
BRANCH  21  24
ATOM     24  C   UNL     1       2.720   3.082  21.029  0.00  0.00    +0.000 C 
ATOM     25  C   UNL     1       1.593   2.611  21.927  0.00  0.00    +0.000 C 
ENDBRANCH  21  24
ENDBRANCH  18  21
ENDBRANCH   1  15
TORSDOF 7
ENDMDL
MODEL 6
REMARK VINA RESULT:      -7.1      3.413      7.841
REMARK  Name = 
REMARK  9 active torsions:
REMARK  status: ('A' for Active; 'I' for Inactive)
REMARK    1  A    between atoms: C_1  and  C_2
REMARK    2  A    between atoms: C_2  and  O_3
REMARK    3  A    between atoms: O_3  and  C_4
REMARK    4  A    between atoms: C_4  and  C_6
REMARK    5  A    between atoms: C_9  and  S_10
REMARK    6  A    between atoms: S_10  and  N_13
REMARK    7  A    between atoms: N_16  and  S_17
REMARK    8  A    between atoms: S_17  and  C_20
REMARK    9  A    between atoms: C_20  and  C_21
REMARK                            x       y       z     vdW  Elec       q    Type
REMARK                         _______ _______ _______ _____ _____    ______ ____
ROOT
ATOM      1  S   UNL     1       6.626   6.384  17.702  0.00  0.00    +0.000 S 
ATOM      2  O   UNL     1       7.886   5.910  18.227  0.00  0.00    +0.000 OA
ATOM      3  O   UNL     1       6.389   7.791  17.463  0.00  0.00    +0.000 OA
ENDROOT
BRANCH   1   7
ATOM      4  C   UNL     1       5.761   4.164  13.794  0.00  0.00    +0.000 A 
ATOM      5  C   UNL     1       6.550   3.563  14.786  0.00  0.00    +0.000 A 
ATOM      6  C   UNL     1       6.847   4.249  15.967  0.00  0.00    +0.000 A 
ATOM      7  C   UNL     1       6.359   5.548  16.153  0.00  0.00    +0.000 A 
ATOM      8  C   UNL     1       5.558   6.149  15.176  0.00  0.00    +0.000 A 
ATOM      9  C   UNL     1       5.263   5.461  13.996  0.00  0.00    +0.000 A 
BRANCH   4  10
ATOM     10  C   UNL     1       5.522   3.402  12.541  0.00  0.00    +0.000 C 
ATOM     11  O   UNL     1       6.406   2.826  11.927  0.00  0.00    +0.000 OA
BRANCH  10  12
ATOM     12  O   UNL     1       4.235   3.551  12.143  0.00  0.00    +0.000 OA
BRANCH  12  14
ATOM     13  C   UNL     1       3.202   4.068  10.052  0.00  0.00    +0.000 C 
ATOM     14  C   UNL     1       3.924   3.002  10.854  0.00  0.00    +0.000 C 
ENDBRANCH  12  14
ENDBRANCH  10  12
ENDBRANCH   4  10
ENDBRANCH   1   7
BRANCH   1  15
ATOM     15  N   UNL     1       5.395   5.798  18.675  0.00  0.00    +0.000 NA
ATOM     16  C   UNL     1       3.991   6.167  18.416  0.00  0.00    +0.000 C 
ATOM     17  C   UNL     1       3.166   4.946  18.006  0.00  0.00    +0.000 C 
ATOM     18  N   UNL     1       3.249   3.836  19.004  0.00  0.00    +0.000 NA
ATOM     19  C   UNL     1       4.684   3.447  19.228  0.00  0.00    +0.000 C 
ATOM     20  C   UNL     1       5.592   4.639  19.579  0.00  0.00    +0.000 C 
BRANCH  18  21
ATOM     21  S   UNL     1       2.309   3.972  20.417  0.00  0.00    +0.000 S 
ATOM     22  O   UNL     1       2.808   2.992  21.358  0.00  0.00    +0.000 OA
ATOM     23  O   UNL     1       2.245   5.372  20.771  0.00  0.00    +0.000 OA
BRANCH  21  24
ATOM     24  C   UNL     1       0.687   3.437  19.865  0.00  0.00    +0.000 C 
ATOM     25  C   UNL     1       0.791   2.267  18.906  0.00  0.00    +0.000 C 
ENDBRANCH  21  24
ENDBRANCH  18  21
ENDBRANCH   1  15
TORSDOF 7
ENDMDL
MODEL 7
REMARK VINA RESULT:      -7.1      3.883      7.039
REMARK  Name = 
REMARK  9 active torsions:
REMARK  status: ('A' for Active; 'I' for Inactive)
REMARK    1  A    between atoms: C_1  and  C_2
REMARK    2  A    between atoms: C_2  and  O_3
REMARK    3  A    between atoms: O_3  and  C_4
REMARK    4  A    between atoms: C_4  and  C_6
REMARK    5  A    between atoms: C_9  and  S_10
REMARK    6  A    between atoms: S_10  and  N_13
REMARK    7  A    between atoms: N_16  and  S_17
REMARK    8  A    between atoms: S_17  and  C_20
REMARK    9  A    between atoms: C_20  and  C_21
REMARK                            x       y       z     vdW  Elec       q    Type
REMARK                         _______ _______ _______ _____ _____    ______ ____
ROOT
ATOM      1  S   UNL     1       6.731   5.416  16.868  0.00  0.00    +0.000 S 
ATOM      2  O   UNL     1       6.370   5.776  15.516  0.00  0.00    +0.000 OA
ATOM      3  O   UNL     1       7.651   4.332  17.140  0.00  0.00    +0.000 OA
ENDROOT
BRANCH   1   7
ATOM      4  C   UNL     1       8.655   9.138  18.710  0.00  0.00    +0.000 A 
ATOM      5  C   UNL     1       8.799   7.890  19.332  0.00  0.00    +0.000 A 
ATOM      6  C   UNL     1       8.185   6.755  18.794  0.00  0.00    +0.000 A 
ATOM      7  C   UNL     1       7.414   6.872  17.631  0.00  0.00    +0.000 A 
ATOM      8  C   UNL     1       7.278   8.111  16.995  0.00  0.00    +0.000 A 
ATOM      9  C   UNL     1       7.893   9.243  17.535  0.00  0.00    +0.000 A 
BRANCH   4  10
ATOM     10  C   UNL     1       9.291  10.315  19.358  0.00  0.00    +0.000 C 
ATOM     11  O   UNL     1       9.047  10.664  20.502  0.00  0.00    +0.000 OA
BRANCH  10  12
ATOM     12  O   UNL     1      10.060  10.981  18.463  0.00  0.00    +0.000 OA
BRANCH  12  14
ATOM     13  C   UNL     1      12.176  11.733  19.279  0.00  0.00    +0.000 C 
ATOM     14  C   UNL     1      10.743  12.132  18.979  0.00  0.00    +0.000 C 
ENDBRANCH  12  14
ENDBRANCH  10  12
ENDBRANCH   4  10
ENDBRANCH   1   7
BRANCH   1  15
ATOM     15  N   UNL     1       5.325   5.147  17.736  0.00  0.00    +0.000 NA
ATOM     16  C   UNL     1       4.021   5.071  17.051  0.00  0.00    +0.000 C 
ATOM     17  C   UNL     1       3.415   3.671  17.172  0.00  0.00    +0.000 C 
ATOM     18  N   UNL     1       3.299   3.216  18.590  0.00  0.00    +0.000 NA
ATOM     19  C   UNL     1       4.643   3.264  19.262  0.00  0.00    +0.000 C 
ATOM     20  C   UNL     1       5.346   4.627  19.125  0.00  0.00    +0.000 C 
BRANCH  18  21
ATOM     21  S   UNL     1       2.008   3.832  19.514  0.00  0.00    +0.000 S 
ATOM     22  O   UNL     1       2.054   5.275  19.405  0.00  0.00    +0.000 OA
ATOM     23  O   UNL     1       0.816   3.100  19.149  0.00  0.00    +0.000 OA
BRANCH  21  24
ATOM     24  C   UNL     1       2.474   3.387  21.190  0.00  0.00    +0.000 C 
ATOM     25  C   UNL     1       1.412   2.526  21.846  0.00  0.00    +0.000 C 
ENDBRANCH  21  24
ENDBRANCH  18  21
ENDBRANCH   1  15
TORSDOF 7
ENDMDL
MODEL 8
REMARK VINA RESULT:      -7.1      1.223      2.011
REMARK  Name = 
REMARK  9 active torsions:
REMARK  status: ('A' for Active; 'I' for Inactive)
REMARK    1  A    between atoms: C_1  and  C_2
REMARK    2  A    between atoms: C_2  and  O_3
REMARK    3  A    between atoms: O_3  and  C_4
REMARK    4  A    between atoms: C_4  and  C_6
REMARK    5  A    between atoms: C_9  and  S_10
REMARK    6  A    between atoms: S_10  and  N_13
REMARK    7  A    between atoms: N_16  and  S_17
REMARK    8  A    between atoms: S_17  and  C_20
REMARK    9  A    between atoms: C_20  and  C_21
REMARK                            x       y       z     vdW  Elec       q    Type
REMARK                         _______ _______ _______ _____ _____    ______ ____
ROOT
ATOM      1  S   UNL     1       2.448   5.252  19.022  0.00  0.00    +0.000 S 
ATOM      2  O   UNL     1       2.545   4.553  20.282  0.00  0.00    +0.000 OA
ATOM      3  O   UNL     1       1.536   4.818  17.986  0.00  0.00    +0.000 OA
ENDROOT
BRANCH   1   7
ATOM      4  C   UNL     1       1.183   9.548  19.965  0.00  0.00    +0.000 A 
ATOM      5  C   UNL     1       1.484   9.176  18.648  0.00  0.00    +0.000 A 
ATOM      6  C   UNL     1       1.905   7.875  18.357  0.00  0.00    +0.000 A 
ATOM      7  C   UNL     1       2.034   6.943  19.394  0.00  0.00    +0.000 A 
ATOM      8  C   UNL     1       1.720   7.301  20.710  0.00  0.00    +0.000 A 
ATOM      9  C   UNL     1       1.300   8.603  20.996  0.00  0.00    +0.000 A 
BRANCH   4  10
ATOM     10  C   UNL     1       0.789  10.960  20.216  0.00  0.00    +0.000 C 
ATOM     11  O   UNL     1       0.616  11.776  19.326  0.00  0.00    +0.000 OA
BRANCH  10  12
ATOM     12  O   UNL     1       0.774  11.210  21.548  0.00  0.00    +0.000 OA
BRANCH  12  14
ATOM     13  C   UNL     1      -0.992  10.663  23.062  0.00  0.00    +0.000 C 
ATOM     14  C   UNL     1      -0.475  11.687  22.068  0.00  0.00    +0.000 C 
ENDBRANCH  12  14
ENDBRANCH  10  12
ENDBRANCH   4  10
ENDBRANCH   1   7
BRANCH   1  15
ATOM     15  N   UNL     1       3.983   5.366  18.361  0.00  0.00    +0.000 NA
ATOM     16  C   UNL     1       4.834   4.169  18.225  0.00  0.00    +0.000 C 
ATOM     17  C   UNL     1       5.093   3.841  16.753  0.00  0.00    +0.000 C 
ATOM     18  N   UNL     1       5.673   4.995  16.002  0.00  0.00    +0.000 NA
ATOM     19  C   UNL     1       4.775   6.195  16.119  0.00  0.00    +0.000 C 
ATOM     20  C   UNL     1       4.414   6.547  17.574  0.00  0.00    +0.000 C 
BRANCH  18  21
ATOM     21  S   UNL     1       7.334   5.315  16.202  0.00  0.00    +0.000 S 
ATOM     22  O   UNL     1       7.904   4.188  16.911  0.00  0.00    +0.000 OA
ATOM     23  O   UNL     1       7.861   5.727  14.921  0.00  0.00    +0.000 OA
BRANCH  21  24
ATOM     24  C   UNL     1       7.333   6.726  17.312  0.00  0.00    +0.000 C 
ATOM     25  C   UNL     1       7.870   6.351  18.679  0.00  0.00    +0.000 C 
ENDBRANCH  21  24
ENDBRANCH  18  21
ENDBRANCH   1  15
TORSDOF 7
ENDMDL
MODEL 9
REMARK VINA RESULT:      -7.1      0.908      1.490
REMARK  Name = 
REMARK  9 active torsions:
REMARK  status: ('A' for Active; 'I' for Inactive)
REMARK    1  A    between atoms: C_1  and  C_2
REMARK    2  A    between atoms: C_2  and  O_3
REMARK    3  A    between atoms: O_3  and  C_4
REMARK    4  A    between atoms: C_4  and  C_6
REMARK    5  A    between atoms: C_9  and  S_10
REMARK    6  A    between atoms: S_10  and  N_13
REMARK    7  A    between atoms: N_16  and  S_17
REMARK    8  A    between atoms: S_17  and  C_20
REMARK    9  A    between atoms: C_20  and  C_21
REMARK                            x       y       z     vdW  Elec       q    Type
REMARK                         _______ _______ _______ _____ _____    ______ ____
ROOT
ATOM      1  S   UNL     1       2.597   3.655  19.333  0.00  0.00    +0.000 S 
ATOM      2  O   UNL     1       2.928   3.040  20.597  0.00  0.00    +0.000 OA
ATOM      3  O   UNL     1       1.566   3.111  18.475  0.00  0.00    +0.000 OA
ENDROOT
BRANCH   1   7
ATOM      4  C   UNL     1       1.609   8.021  20.291  0.00  0.00    +0.000 A 
ATOM      5  C   UNL     1       1.311   7.012  21.217  0.00  0.00    +0.000 A 
ATOM      6  C   UNL     1       1.578   5.673  20.917  0.00  0.00    +0.000 A 
ATOM      7  C   UNL     1       2.138   5.341  19.678  0.00  0.00    +0.000 A 
ATOM      8  C   UNL     1       2.454   6.343  18.754  0.00  0.00    +0.000 A 
ATOM      9  C   UNL     1       2.186   7.681  19.057  0.00  0.00    +0.000 A 
BRANCH   4  10
ATOM     10  C   UNL     1       1.256   9.420  20.650  0.00  0.00    +0.000 C 
ATOM     11  O   UNL     1       1.299   9.851  21.790  0.00  0.00    +0.000 OA
BRANCH  10  12
ATOM     12  O   UNL     1       0.779  10.073  19.562  0.00  0.00    +0.000 OA
BRANCH  12  14
ATOM     13  C   UNL     1      -0.914  11.740  19.814  0.00  0.00    +0.000 C 
ATOM     14  C   UNL     1      -0.641  10.272  19.541  0.00  0.00    +0.000 C 
ENDBRANCH  12  14
ENDBRANCH  10  12
ENDBRANCH   4  10
ENDBRANCH   1   7
BRANCH   1  15
ATOM     15  N   UNL     1       4.003   3.812  18.437  0.00  0.00    +0.000 NA
ATOM     16  C   UNL     1       3.946   4.044  16.982  0.00  0.00    +0.000 C 
ATOM     17  C   UNL     1       4.509   5.420  16.620  0.00  0.00    +0.000 C 
ATOM     18  N   UNL     1       5.895   5.626  17.138  0.00  0.00    +0.000 NA
ATOM     19  C   UNL     1       5.928   5.424  18.627  0.00  0.00    +0.000 C 
ATOM     20  C   UNL     1       5.314   4.085  19.074  0.00  0.00    +0.000 C 
BRANCH  18  21
ATOM     21  S   UNL     1       7.176   4.899  16.282  0.00  0.00    +0.000 S 
ATOM     22  O   UNL     1       7.711   5.898  15.382  0.00  0.00    +0.000 OA
ATOM     23  O   UNL     1       8.028   4.237  17.244  0.00  0.00    +0.000 OA
BRANCH  21  24
ATOM     24  C   UNL     1       6.336   3.656  15.297  0.00  0.00    +0.000 C 
ATOM     25  C   UNL     1       6.384   4.000  13.821  0.00  0.00    +0.000 C 
ENDBRANCH  21  24
ENDBRANCH  18  21
ENDBRANCH   1  15
TORSDOF 7
ENDMDL
