MODEL 1
REMARK VINA RESULT:      -6.2      0.000      0.000
REMARK  Name = 
REMARK  4 active torsions:
REMARK  status: ('A' for Active; 'I' for Inactive)
REMARK    1  A    between atoms: C_1  and  C_2
REMARK    2  A    between atoms: C_2  and  C_3
REMARK    3  A    between atoms: C_3  and  C_4
REMARK    4  A    between atoms: C_9  and  O_10
REMARK                            x       y       z     vdW  Elec       q    Type
REMARK                         _______ _______ _______ _____ _____    ______ ____
ROOT
ATOM      1  C   UNL     1       2.563   4.561  17.951  0.00  0.00    +0.000 A 
ATOM      2  C   UNL     1       2.631   5.954  18.163  0.00  0.00    +0.000 A 
ATOM      3  C   UNL     1       3.693   6.726  17.668  0.00  0.00    +0.000 A 
ATOM      4  C   UNL     1       4.706   6.074  16.960  0.00  0.00    +0.000 A 
ATOM      5  N   UNL     1       5.852   6.558  16.375  0.00  0.00    +0.000 NA
ATOM      6  C   UNL     1       6.380   5.469  15.880  0.00  0.00    +0.000 A 
ATOM      7  O   UNL     1       5.717   4.305  16.064  0.00  0.00    +0.000 OA
ATOM      8  C   UNL     1       4.617   4.701  16.773  0.00  0.00    +0.000 A 
ATOM      9  C   UNL     1       3.581   3.900  17.242  0.00  0.00    +0.000 A 
ENDROOT
BRANCH   6  10
ATOM     10  O   UNL     1       7.511   5.419  15.217  0.00  0.00    +0.000 OA
ATOM     11  H   UNL     1       8.038   4.833  15.786  0.00  0.00    +0.000 HD
ENDBRANCH   6  10
BRANCH   1  12
ATOM     12  C   UNL     1       1.400   3.770  18.508  0.00  0.00    +0.000 C 
BRANCH  12  14
ATOM     13  C   UNL     1       1.345   2.889  20.869  0.00  0.00    +0.000 C 
ATOM     14  C   UNL     1       1.122   4.099  19.977  0.00  0.00    +0.000 C 
ENDBRANCH  12  14
ENDBRANCH   1  12
TORSDOF 3
ENDMDL
MODEL 2
REMARK VINA RESULT:      -6.1      1.671      1.849
REMARK  Name = 
REMARK  4 active torsions:
REMARK  status: ('A' for Active; 'I' for Inactive)
REMARK    1  A    between atoms: C_1  and  C_2
REMARK    2  A    between atoms: C_2  and  C_3
REMARK    3  A    between atoms: C_3  and  C_4
REMARK    4  A    between atoms: C_9  and  O_10
REMARK                            x       y       z     vdW  Elec       q    Type
REMARK                         _______ _______ _______ _____ _____    ______ ____
ROOT
ATOM      1  C   UNL     1       3.067   5.615  19.472  0.00  0.00    +0.000 A 
ATOM      2  C   UNL     1       3.060   6.553  18.419  0.00  0.00    +0.000 A 
ATOM      3  C   UNL     1       4.115   6.642  17.499  0.00  0.00    +0.000 A 
ATOM      4  C   UNL     1       5.200   5.774  17.657  0.00  0.00    +0.000 A 
ATOM      5  N   UNL     1       6.358   5.636  16.930  0.00  0.00    +0.000 NA
ATOM      6  C   UNL     1       6.964   4.672  17.572  0.00  0.00    +0.000 A 
ATOM      7  O   UNL     1       6.343   4.143  18.650  0.00  0.00    +0.000 OA
ATOM      8  C   UNL     1       5.184   4.865  18.707  0.00  0.00    +0.000 A 
ATOM      9  C   UNL     1       4.157   4.742  19.637  0.00  0.00    +0.000 A 
ENDROOT
BRANCH   6  10
ATOM     10  O   UNL     1       8.137   4.179  17.250  0.00  0.00    +0.000 OA
ATOM     11  H   UNL     1       8.713   4.623  17.896  0.00  0.00    +0.000 HD
ENDBRANCH   6  10
BRANCH   1  12
ATOM     12  C   UNL     1       1.907   5.561  20.442  0.00  0.00    +0.000 C 
BRANCH  12  14
ATOM     13  C   UNL     1       0.826   3.362  19.850  0.00  0.00    +0.000 C 
ATOM     14  C   UNL     1       1.600   4.135  20.904  0.00  0.00    +0.000 C 
ENDBRANCH  12  14
ENDBRANCH   1  12
TORSDOF 3
ENDMDL
MODEL 3
REMARK VINA RESULT:      -6.1      2.493      2.848
REMARK  Name = 
REMARK  4 active torsions:
REMARK  status: ('A' for Active; 'I' for Inactive)
REMARK    1  A    between atoms: C_1  and  C_2
REMARK    2  A    between atoms: C_2  and  C_3
REMARK    3  A    between atoms: C_3  and  C_4
REMARK    4  A    between atoms: C_9  and  O_10
REMARK                            x       y       z     vdW  Elec       q    Type
REMARK                         _______ _______ _______ _____ _____    ______ ____
ROOT
ATOM      1  C   UNL     1       3.416   4.561  17.803  0.00  0.00    +0.000 A 
ATOM      2  C   UNL     1       4.146   4.111  16.684  0.00  0.00    +0.000 A 
ATOM      3  C   UNL     1       5.549   4.092  16.674  0.00  0.00    +0.000 A 
ATOM      4  C   UNL     1       6.220   4.549  17.812  0.00  0.00    +0.000 A 
ATOM      5  N   UNL     1       7.563   4.654  18.086  0.00  0.00    +0.000 NA
ATOM      6  C   UNL     1       7.552   5.148  19.296  0.00  0.00    +0.000 A 
ATOM      7  O   UNL     1       6.352   5.387  19.870  0.00  0.00    +0.000 OA
ATOM      8  C   UNL     1       5.476   4.993  18.898  0.00  0.00    +0.000 A 
ATOM      9  C   UNL     1       4.086   5.023  18.949  0.00  0.00    +0.000 A 
ENDROOT
BRANCH   6  10
ATOM     10  O   UNL     1       8.623   5.435  19.998  0.00  0.00    +0.000 OA
ATOM     11  H   UNL     1       8.368   6.285  20.394  0.00  0.00    +0.000 HD
ENDBRANCH   6  10
BRANCH   1  12
ATOM     12  C   UNL     1       1.903   4.566  17.764  0.00  0.00    +0.000 C 
BRANCH  12  14
ATOM     13  C   UNL     1       1.384   2.296  18.727  0.00  0.00    +0.000 C 
ATOM     14  C   UNL     1       1.287   3.798  18.935  0.00  0.00    +0.000 C 
ENDBRANCH  12  14
ENDBRANCH   1  12
TORSDOF 3
ENDMDL
MODEL 4
REMARK VINA RESULT:      -6.1      1.737      2.037
REMARK  Name = 
REMARK  4 active torsions:
REMARK  status: ('A' for Active; 'I' for Inactive)
REMARK    1  A    between atoms: C_1  and  C_2
REMARK    2  A    between atoms: C_2  and  C_3
REMARK    3  A    between atoms: C_3  and  C_4
REMARK    4  A    between atoms: C_9  and  O_10
REMARK                            x       y       z     vdW  Elec       q    Type
REMARK                         _______ _______ _______ _____ _____    ______ ____
ROOT
ATOM      1  C   UNL     1       2.832   4.683  19.272  0.00  0.00    +0.000 A 
ATOM      2  C   UNL     1       2.506   4.575  17.905  0.00  0.00    +0.000 A 
ATOM      3  C   UNL     1       3.491   4.418  16.918  0.00  0.00    +0.000 A 
ATOM      4  C   UNL     1       4.828   4.383  17.324  0.00  0.00    +0.000 A 
ATOM      5  N   UNL     1       5.987   4.249  16.599  0.00  0.00    +0.000 NA
ATOM      6  C   UNL     1       6.897   4.294  17.537  0.00  0.00    +0.000 A 
ATOM      7  O   UNL     1       6.480   4.441  18.814  0.00  0.00    +0.000 OA
ATOM      8  C   UNL     1       5.122   4.499  18.677  0.00  0.00    +0.000 A 
ATOM      9  C   UNL     1       4.176   4.651  19.686  0.00  0.00    +0.000 A 
ENDROOT
BRANCH   6  10
ATOM     10  O   UNL     1       8.190   4.210  17.331  0.00  0.00    +0.000 OA
ATOM     11  H   UNL     1       8.532   4.290  18.238  0.00  0.00    +0.000 HD
ENDBRANCH   6  10
BRANCH   1  12
ATOM     12  C   UNL     1       1.734   4.856  20.298  0.00  0.00    +0.000 C 
BRANCH  12  14
ATOM     13  C   UNL     1       1.635   2.788  21.736  0.00  0.00    +0.000 C 
ATOM     14  C   UNL     1       0.994   3.547  20.586  0.00  0.00    +0.000 C 
ENDBRANCH  12  14
ENDBRANCH   1  12
TORSDOF 3
ENDMDL
MODEL 5
REMARK VINA RESULT:      -6.1      3.091      5.188
REMARK  Name = 
REMARK  4 active torsions:
REMARK  status: ('A' for Active; 'I' for Inactive)
REMARK    1  A    between atoms: C_1  and  C_2
REMARK    2  A    between atoms: C_2  and  C_3
REMARK    3  A    between atoms: C_3  and  C_4
REMARK    4  A    between atoms: C_9  and  O_10
REMARK                            x       y       z     vdW  Elec       q    Type
REMARK                         _______ _______ _______ _____ _____    ______ ____
ROOT
ATOM      1  C   UNL     1       6.272   4.388  15.158  0.00  0.00    +0.000 A 
ATOM      2  C   UNL     1       5.022   4.116  15.750  0.00  0.00    +0.000 A 
ATOM      3  C   UNL     1       4.809   4.259  17.130  0.00  0.00    +0.000 A 
ATOM      4  C   UNL     1       5.885   4.672  17.921  0.00  0.00    +0.000 A 
ATOM      5  N   UNL     1       5.977   4.889  19.275  0.00  0.00    +0.000 NA
ATOM      6  C   UNL     1       7.227   5.251  19.404  0.00  0.00    +0.000 A 
ATOM      7  O   UNL     1       7.987   5.305  18.287  0.00  0.00    +0.000 OA
ATOM      8  C   UNL     1       7.107   4.926  17.313  0.00  0.00    +0.000 A 
ATOM      9  C   UNL     1       7.358   4.800  15.950  0.00  0.00    +0.000 A 
ENDROOT
BRANCH   6  10
ATOM     10  O   UNL     1       7.802   5.565  20.540  0.00  0.00    +0.000 OA
ATOM     11  H   UNL     1       8.699   5.215  20.402  0.00  0.00    +0.000 HD
ENDBRANCH   6  10
BRANCH   1  12
ATOM     12  C   UNL     1       6.453   4.214  13.666  0.00  0.00    +0.000 C 
BRANCH  12  14
ATOM     13  C   UNL     1       5.536   2.763  11.821  0.00  0.00    +0.000 C 
ATOM     14  C   UNL     1       5.192   3.677  12.985  0.00  0.00    +0.000 C 
ENDBRANCH  12  14
ENDBRANCH   1  12
TORSDOF 3
ENDMDL
MODEL 6
REMARK VINA RESULT:      -6.0      2.186      2.500
REMARK  Name = 
REMARK  4 active torsions:
REMARK  status: ('A' for Active; 'I' for Inactive)
REMARK    1  A    between atoms: C_1  and  C_2
REMARK    2  A    between atoms: C_2  and  C_3
REMARK    3  A    between atoms: C_3  and  C_4
REMARK    4  A    between atoms: C_9  and  O_10
REMARK                            x       y       z     vdW  Elec       q    Type
REMARK                         _______ _______ _______ _____ _____    ______ ____
ROOT
ATOM      1  C   UNL     1       2.960   4.153  18.483  0.00  0.00    +0.000 A 
ATOM      2  C   UNL     1       3.477   3.734  17.241  0.00  0.00    +0.000 A 
ATOM      3  C   UNL     1       4.824   3.923  16.897  0.00  0.00    +0.000 A 
ATOM      4  C   UNL     1       5.656   4.560  17.823  0.00  0.00    +0.000 A 
ATOM      5  N   UNL     1       6.990   4.883  17.764  0.00  0.00    +0.000 NA
ATOM      6  C   UNL     1       7.177   5.461  18.922  0.00  0.00    +0.000 A 
ATOM      7  O   UNL     1       6.118   5.561  19.756  0.00  0.00    +0.000 OA
ATOM      8  C   UNL     1       5.118   4.969  19.037  0.00  0.00    +0.000 A 
ATOM      9  C   UNL     1       3.791   4.796  19.417  0.00  0.00    +0.000 A 
ENDROOT
BRANCH   6  10
ATOM     10  O   UNL     1       8.319   5.956  19.336  0.00  0.00    +0.000 OA
ATOM     11  H   UNL     1       8.016   6.619  19.980  0.00  0.00    +0.000 HD
ENDBRANCH   6  10
BRANCH   1  12
ATOM     12  C   UNL     1       1.499   3.931  18.806  0.00  0.00    +0.000 C 
BRANCH  12  14
ATOM     13  C   UNL     1       1.240   2.845  21.066  0.00  0.00    +0.000 C 
ATOM     14  C   UNL     1       1.189   4.150  20.288  0.00  0.00    +0.000 C 
ENDBRANCH  12  14
ENDBRANCH   1  12
TORSDOF 3
ENDMDL
MODEL 7
REMARK VINA RESULT:      -5.9      1.302      1.856
REMARK  Name = 
REMARK  4 active torsions:
REMARK  status: ('A' for Active; 'I' for Inactive)
REMARK    1  A    between atoms: C_1  and  C_2
REMARK    2  A    between atoms: C_2  and  C_3
REMARK    3  A    between atoms: C_3  and  C_4
REMARK    4  A    between atoms: C_9  and  O_10
REMARK                            x       y       z     vdW  Elec       q    Type
REMARK                         _______ _______ _______ _____ _____    ______ ____
ROOT
ATOM      1  C   UNL     1       2.718   4.810  19.128  0.00  0.00    +0.000 A 
ATOM      2  C   UNL     1       2.560   3.862  18.096  0.00  0.00    +0.000 A 
ATOM      3  C   UNL     1       3.490   3.742  17.052  0.00  0.00    +0.000 A 
ATOM      4  C   UNL     1       4.590   4.605  17.049  0.00  0.00    +0.000 A 
ATOM      5  N   UNL     1       5.639   4.724  16.170  0.00  0.00    +0.000 NA
ATOM      6  C   UNL     1       6.325   5.702  16.703  0.00  0.00    +0.000 A 
ATOM      7  O   UNL     1       5.855   6.254  17.844  0.00  0.00    +0.000 OA
ATOM      8  C   UNL     1       4.716   5.534  18.073  0.00  0.00    +0.000 A 
ATOM      9  C   UNL     1       3.821   5.683  19.127  0.00  0.00    +0.000 A 
ENDROOT
BRANCH   6  10
ATOM     10  O   UNL     1       7.438   6.192  16.210  0.00  0.00    +0.000 OA
ATOM     11  H   UNL     1       7.864   6.539  17.012  0.00  0.00    +0.000 HD
ENDBRANCH   6  10
BRANCH   1  12
ATOM     12  C   UNL     1       1.685   4.904  20.229  0.00  0.00    +0.000 C 
BRANCH  12  14
ATOM     13  C   UNL     1       1.592   2.788  21.595  0.00  0.00    +0.000 C 
ATOM     14  C   UNL     1       0.959   3.578  20.462  0.00  0.00    +0.000 C 
ENDBRANCH  12  14
ENDBRANCH   1  12
TORSDOF 3
ENDMDL
MODEL 8
REMARK VINA RESULT:      -5.9      2.159      2.198
REMARK  Name = 
REMARK  4 active torsions:
REMARK  status: ('A' for Active; 'I' for Inactive)
REMARK    1  A    between atoms: C_1  and  C_2
REMARK    2  A    between atoms: C_2  and  C_3
REMARK    3  A    between atoms: C_3  and  C_4
REMARK    4  A    between atoms: C_9  and  O_10
REMARK                            x       y       z     vdW  Elec       q    Type
REMARK                         _______ _______ _______ _____ _____    ______ ____
ROOT
ATOM      1  C   UNL     1       3.101   3.692  18.707  0.00  0.00    +0.000 A 
ATOM      2  C   UNL     1       2.893   4.705  17.748  0.00  0.00    +0.000 A 
ATOM      3  C   UNL     1       3.888   5.642  17.433  0.00  0.00    +0.000 A 
ATOM      4  C   UNL     1       5.108   5.559  18.111  0.00  0.00    +0.000 A 
ATOM      5  N   UNL     1       6.243   6.328  18.022  0.00  0.00    +0.000 NA
ATOM      6  C   UNL     1       7.023   5.758  18.903  0.00  0.00    +0.000 A 
ATOM      7  O   UNL     1       6.540   4.689  19.575  0.00  0.00    +0.000 OA
ATOM      8  C   UNL     1       5.283   4.557  19.056  0.00  0.00    +0.000 A 
ATOM      9  C   UNL     1       4.325   3.606  19.393  0.00  0.00    +0.000 A 
ENDROOT
BRANCH   6  10
ATOM     10  O   UNL     1       8.243   6.148  19.188  0.00  0.00    +0.000 OA
ATOM     11  H   UNL     1       8.221   7.072  18.886  0.00  0.00    +0.000 HD
ENDBRANCH   6  10
BRANCH   1  12
ATOM     12  C   UNL     1       1.995   2.707  19.015  0.00  0.00    +0.000 C 
BRANCH  12  14
ATOM     13  C   UNL     1       1.392   2.738  21.462  0.00  0.00    +0.000 C 
ATOM     14  C   UNL     1       1.024   3.234  20.074  0.00  0.00    +0.000 C 
ENDBRANCH  12  14
ENDBRANCH   1  12
TORSDOF 3
ENDMDL
MODEL 9
REMARK VINA RESULT:      -5.9      1.555      1.703
REMARK  Name = 
REMARK  4 active torsions:
REMARK  status: ('A' for Active; 'I' for Inactive)
REMARK    1  A    between atoms: C_1  and  C_2
REMARK    2  A    between atoms: C_2  and  C_3
REMARK    3  A    between atoms: C_3  and  C_4
REMARK    4  A    between atoms: C_9  and  O_10
REMARK                            x       y       z     vdW  Elec       q    Type
REMARK                         _______ _______ _______ _____ _____    ______ ____
ROOT
ATOM      1  C   UNL     1       3.853   3.620  18.207  0.00  0.00    +0.000 A 
ATOM      2  C   UNL     1       4.764   4.168  19.133  0.00  0.00    +0.000 A 
ATOM      3  C   UNL     1       5.961   4.775  18.724  0.00  0.00    +0.000 A 
ATOM      4  C   UNL     1       6.243   4.815  17.355  0.00  0.00    +0.000 A 
ATOM      5  N   UNL     1       7.319   5.327  16.671  0.00  0.00    +0.000 NA
ATOM      6  C   UNL     1       7.002   5.056  15.432  0.00  0.00    +0.000 A 
ATOM      7  O   UNL     1       5.832   4.420  15.204  0.00  0.00    +0.000 OA
ATOM      8  C   UNL     1       5.331   4.261  16.466  0.00  0.00    +0.000 A 
ATOM      9  C   UNL     1       4.133   3.655  16.830  0.00  0.00    +0.000 A 
ENDROOT
BRANCH   6  10
ATOM     10  O   UNL     1       7.739   5.354  14.388  0.00  0.00    +0.000 OA
ATOM     11  H   UNL     1       8.583   5.586  14.812  0.00  0.00    +0.000 HD
ENDBRANCH   6  10
BRANCH   1  12
ATOM     12  C   UNL     1       2.578   2.971  18.698  0.00  0.00    +0.000 C 
BRANCH  12  14
ATOM     13  C   UNL     1       0.994   3.990  20.373  0.00  0.00    +0.000 C 
ATOM     14  C   UNL     1       1.457   3.988  18.926  0.00  0.00    +0.000 C 
ENDBRANCH  12  14
ENDBRANCH   1  12
TORSDOF 3
ENDMDL
