MODEL 1
REMARK VINA RESULT:      -7.3      0.000      0.000
REMARK  Name = 
REMARK  12 active torsions:
REMARK  status: ('A' for Active; 'I' for Inactive)
REMARK    1  A    between atoms: C_1  and  O_2
REMARK    2  A    between atoms: O_2  and  C_3
REMARK    3  A    between atoms: C_5  and  C_6
REMARK    4  A    between atoms: C_12  and  C_13
REMARK    5  A    between atoms: C_15  and  O_16
REMARK    6  A    between atoms: O_16  and  C_17
REMARK    7  A    between atoms: C_18  and  O_19
REMARK    8  A    between atoms: O_19  and  C_20
REMARK    9  A    between atoms: C_21  and  O_22
REMARK   10  A    between atoms: O_22  and  C_23
REMARK   11  A    between atoms: C_29  and  O_30
REMARK   12  A    between atoms: O_30  and  C_31
REMARK                            x       y       z     vdW  Elec       q    Type
REMARK                         _______ _______ _______ _____ _____    ______ ____
ROOT
ATOM      1  C   UNL     1       0.013  10.778  21.411  0.00  0.00    +0.000 C 
ATOM      2  CA  UNL     1       0.694  10.053  20.512  0.00  0.00    +0.000 A 
ATOM      3  N   UNL     1       1.050  10.530  19.280  0.00  0.00    +0.000 N 
ATOM      4  C   UNL     1       1.742   9.832  18.335  0.00  0.00    +0.000 A 
ATOM      5  O   UNL     1       2.027  10.319  17.244  0.00  0.00    +0.000 OA
ATOM      6  CA  UNL     1       2.123   8.428  18.724  0.00  0.00    +0.000 A 
ATOM      7  C   UNL     1       2.782   7.691  17.817  0.00  0.00    +0.000 C 
ATOM      8  N   UNL     1       1.774   7.950  19.965  0.00  0.00    +0.000 N 
ATOM      9  C   UNL     1       1.086   8.650  20.911  0.00  0.00    +0.000 A 
ATOM     10  O   UNL     1       0.816   8.157  21.999  0.00  0.00    +0.000 OA
ATOM     11  H   UNL     1       0.791  11.474  19.018  0.00  0.00    +0.000 HD
ATOM     12  H   UNL     1       2.038   7.010  20.232  0.00  0.00    +0.000 HD
ENDROOT
BRANCH   1  15
ATOM     13  C   UNL     1      -2.231  13.741  20.843  0.00  0.00    +0.000 A 
ATOM     14  C   UNL     1      -1.773  12.424  20.902  0.00  0.00    +0.000 A 
ATOM     15  C   UNL     1      -0.438  12.153  21.213  0.00  0.00    +0.000 A 
ATOM     16  C   UNL     1       0.454  13.210  21.404  0.00  0.00    +0.000 A 
ATOM     17  C   UNL     1       0.004  14.530  21.354  0.00  0.00    +0.000 A 
ATOM     18  C   UNL     1      -1.340  14.793  21.072  0.00  0.00    +0.000 A 
BRANCH  13  20
ATOM     19  C   UNL     1      -4.272  12.692  20.204  0.00  0.00    +0.000 C 
ATOM     20  O   UNL     1      -3.571  13.867  20.591  0.00  0.00    +0.000 OA
ENDBRANCH  13  20
BRANCH  17  21
ATOM     21  O   UNL     1       0.964  15.466  21.630  0.00  0.00    +0.000 OA
ATOM     22  C   UNL     1       1.773  15.901  20.545  0.00  0.00    +0.000 C 
ENDBRANCH  17  21
ENDBRANCH   1  15
BRANCH   7  23
ATOM     23  C   UNL     1       3.151   6.291  17.999  0.00  0.00    +0.000 A 
ATOM     24  C   UNL     1       4.470   5.980  18.296  0.00  0.00    +0.000 A 
ATOM     25  C   UNL     1       4.849   4.663  18.566  0.00  0.00    +0.000 A 
ATOM     26  C   UNL     1       3.888   3.622  18.500  0.00  0.00    +0.000 A 
ATOM     27  C   UNL     1       2.555   3.937  18.126  0.00  0.00    +0.000 A 
ATOM     28  C   UNL     1       2.210   5.277  17.882  0.00  0.00    +0.000 A 
BRANCH  25  29
ATOM     29  O   UNL     1       6.156   4.353  18.886  0.00  0.00    +0.000 OA
ATOM     30  C   UNL     1       7.127   4.792  17.931  0.00  0.00    +0.000 C 
ENDBRANCH  25  29
BRANCH  26  31
ATOM     31  O   UNL     1       4.351   2.355  18.783  0.00  0.00    +0.000 OA
ATOM     32  C   UNL     1       4.364   1.937  20.146  0.00  0.00    +0.000 C 
ENDBRANCH  26  31
BRANCH  27  33
ATOM     33  O   UNL     1       1.647   2.922  17.991  0.00  0.00    +0.000 OA
ATOM     34  C   UNL     1       0.795   2.632  19.092  0.00  0.00    +0.000 C 
ENDBRANCH  27  33
ENDBRANCH   7  23
TORSDOF 7
ENDMDL
MODEL 2
REMARK VINA RESULT:      -7.2      2.127      3.217
REMARK  Name = 
REMARK  12 active torsions:
REMARK  status: ('A' for Active; 'I' for Inactive)
REMARK    1  A    between atoms: C_1  and  O_2
REMARK    2  A    between atoms: O_2  and  C_3
REMARK    3  A    between atoms: C_5  and  C_6
REMARK    4  A    between atoms: C_12  and  C_13
REMARK    5  A    between atoms: C_15  and  O_16
REMARK    6  A    between atoms: O_16  and  C_17
REMARK    7  A    between atoms: C_18  and  O_19
REMARK    8  A    between atoms: O_19  and  C_20
REMARK    9  A    between atoms: C_21  and  O_22
REMARK   10  A    between atoms: O_22  and  C_23
REMARK   11  A    between atoms: C_29  and  O_30
REMARK   12  A    between atoms: O_30  and  C_31
REMARK                            x       y       z     vdW  Elec       q    Type
REMARK                         _______ _______ _______ _____ _____    ______ ____
ROOT
ATOM      1  C   UNL     1      -0.473  11.124  22.732  0.00  0.00    +0.000 C 
ATOM      2  CA  UNL     1      -0.032  10.577  21.591  0.00  0.00    +0.000 A 
ATOM      3  N   UNL     1      -0.541  10.895  20.362  0.00  0.00    +0.000 N 
ATOM      4  C   UNL     1      -0.124  10.366  19.176  0.00  0.00    +0.000 A 
ATOM      5  O   UNL     1      -0.628  10.694  18.104  0.00  0.00    +0.000 OA
ATOM      6  CA  UNL     1       0.986   9.356  19.278  0.00  0.00    +0.000 A 
ATOM      7  C   UNL     1       1.413   8.787  18.140  0.00  0.00    +0.000 C 
ATOM      8  N   UNL     1       1.506   9.041  20.511  0.00  0.00    +0.000 N 
ATOM      9  C   UNL     1       1.092   9.573  21.696  0.00  0.00    +0.000 A 
ATOM     10  O   UNL     1       1.608   9.246  22.757  0.00  0.00    +0.000 OA
ATOM     11  H   UNL     1      -1.291  11.574  20.294  0.00  0.00    +0.000 HD
ATOM     12  H   UNL     1       2.259   8.369  20.581  0.00  0.00    +0.000 HD
ENDROOT
BRANCH   1  15
ATOM     13  C   UNL     1      -3.753  12.757  23.579  0.00  0.00    +0.000 A 
ATOM     14  C   UNL     1      -2.782  11.777  23.365  0.00  0.00    +0.000 A 
ATOM     15  C   UNL     1      -1.538  12.119  22.830  0.00  0.00    +0.000 A 
ATOM     16  C   UNL     1      -1.290  13.440  22.451  0.00  0.00    +0.000 A 
ATOM     17  C   UNL     1      -2.250  14.428  22.667  0.00  0.00    +0.000 A 
ATOM     18  C   UNL     1      -3.483  14.084  23.231  0.00  0.00    +0.000 A 
BRANCH  13  20
ATOM     19  C   UNL     1      -6.104  13.003  23.868  0.00  0.00    +0.000 C 
ATOM     20  O   UNL     1      -4.903  12.302  24.166  0.00  0.00    +0.000 OA
ENDBRANCH  13  20
BRANCH  17  21
ATOM     21  O   UNL     1      -1.853  15.691  22.318  0.00  0.00    +0.000 OA
ATOM     22  C   UNL     1      -0.831  15.797  21.335  0.00  0.00    +0.000 C 
ENDBRANCH  17  21
ENDBRANCH   1  15
BRANCH   7  23
ATOM     23  C   UNL     1       2.419   7.732  18.069  0.00  0.00    +0.000 A 
ATOM     24  C   UNL     1       2.166   6.523  18.701  0.00  0.00    +0.000 A 
ATOM     25  C   UNL     1       3.060   5.457  18.584  0.00  0.00    +0.000 A 
ATOM     26  C   UNL     1       4.261   5.616  17.847  0.00  0.00    +0.000 A 
ATOM     27  C   UNL     1       4.548   6.878  17.262  0.00  0.00    +0.000 A 
ATOM     28  C   UNL     1       3.612   7.919  17.385  0.00  0.00    +0.000 A 
BRANCH  25  29
ATOM     29  O   UNL     1       2.800   4.244  19.191  0.00  0.00    +0.000 OA
ATOM     30  C   UNL     1       1.426   4.023  19.525  0.00  0.00    +0.000 C 
ENDBRANCH  25  29
BRANCH  26  31
ATOM     31  O   UNL     1       5.082   4.511  17.784  0.00  0.00    +0.000 OA
ATOM     32  C   UNL     1       5.061   3.729  16.592  0.00  0.00    +0.000 C 
ENDBRANCH  26  31
BRANCH  27  33
ATOM     33  O   UNL     1       5.740   7.052  16.613  0.00  0.00    +0.000 OA
ATOM     34  C   UNL     1       6.882   7.394  17.388  0.00  0.00    +0.000 C 
ENDBRANCH  27  33
ENDBRANCH   7  23
TORSDOF 7
ENDMDL
MODEL 3
REMARK VINA RESULT:      -7.2      0.770     10.142
REMARK  Name = 
REMARK  12 active torsions:
REMARK  status: ('A' for Active; 'I' for Inactive)
REMARK    1  A    between atoms: C_1  and  O_2
REMARK    2  A    between atoms: O_2  and  C_3
REMARK    3  A    between atoms: C_5  and  C_6
REMARK    4  A    between atoms: C_12  and  C_13
REMARK    5  A    between atoms: C_15  and  O_16
REMARK    6  A    between atoms: O_16  and  C_17
REMARK    7  A    between atoms: C_18  and  O_19
REMARK    8  A    between atoms: O_19  and  C_20
REMARK    9  A    between atoms: C_21  and  O_22
REMARK   10  A    between atoms: O_22  and  C_23
REMARK   11  A    between atoms: C_29  and  O_30
REMARK   12  A    between atoms: O_30  and  C_31
REMARK                            x       y       z     vdW  Elec       q    Type
REMARK                         _______ _______ _______ _____ _____    ______ ____
ROOT
ATOM      1  C   UNL     1       2.775   7.481  17.867  0.00  0.00    +0.000 C 
ATOM      2  CA  UNL     1       2.135   8.237  18.770  0.00  0.00    +0.000 A 
ATOM      3  N   UNL     1       1.807   7.792  20.021  0.00  0.00    +0.000 N 
ATOM      4  C   UNL     1       1.158   8.523  20.972  0.00  0.00    +0.000 A 
ATOM      5  O   UNL     1       0.890   8.061  22.079  0.00  0.00    +0.000 OA
ATOM      6  CA  UNL     1       0.793   9.926  20.566  0.00  0.00    +0.000 A 
ATOM      7  C   UNL     1       0.129  10.676  21.459  0.00  0.00    +0.000 C 
ATOM      8  N   UNL     1       1.129  10.378  19.313  0.00  0.00    +0.000 N 
ATOM      9  C   UNL     1       1.782   9.648  18.364  0.00  0.00    +0.000 A 
ATOM     10  O   UNL     1       2.052  10.123  17.268  0.00  0.00    +0.000 OA
ATOM     11  H   UNL     1       2.051   6.847  20.294  0.00  0.00    +0.000 HD
ATOM     12  H   UNL     1       0.893  11.324  19.041  0.00  0.00    +0.000 HD
ENDROOT
BRANCH   1  15
ATOM     13  C   UNL     1       2.779   3.722  17.946  0.00  0.00    +0.000 A 
ATOM     14  C   UNL     1       2.327   5.041  17.870  0.00  0.00    +0.000 A 
ATOM     15  C   UNL     1       3.209   6.103  18.081  0.00  0.00    +0.000 A 
ATOM     16  C   UNL     1       4.535   5.840  18.431  0.00  0.00    +0.000 A 
ATOM     17  C   UNL     1       4.998   4.526  18.504  0.00  0.00    +0.000 A 
ATOM     18  C   UNL     1       4.116   3.467  18.262  0.00  0.00    +0.000 A 
BRANCH  13  20
ATOM     19  C   UNL     1       1.077   2.261  18.747  0.00  0.00    +0.000 C 
ATOM     20  O   UNL     1       1.831   2.777  17.657  0.00  0.00    +0.000 OA
ENDBRANCH  13  20
BRANCH  17  21
ATOM     21  O   UNL     1       6.332   4.410  18.785  0.00  0.00    +0.000 OA
ATOM     22  C   UNL     1       7.242   4.755  17.748  0.00  0.00    +0.000 C 
ENDBRANCH  17  21
ENDBRANCH   1  15
BRANCH   7  23
ATOM     23  C   UNL     1      -0.372  12.022  21.198  0.00  0.00    +0.000 A 
ATOM     24  C   UNL     1      -1.710  12.185  20.867  0.00  0.00    +0.000 A 
ATOM     25  C   UNL     1      -2.251  13.461  20.696  0.00  0.00    +0.000 A 
ATOM     26  C   UNL     1      -1.423  14.605  20.823  0.00  0.00    +0.000 A 
ATOM     27  C   UNL     1      -0.040  14.428  21.091  0.00  0.00    +0.000 A 
ATOM     28  C   UNL     1       0.462  13.129  21.276  0.00  0.00    +0.000 A 
BRANCH  25  29
ATOM     29  O   UNL     1      -3.587  13.628  20.391  0.00  0.00    +0.000 OA
ATOM     30  C   UNL     1      -4.482  12.792  21.132  0.00  0.00    +0.000 C 
ENDBRANCH  25  29
BRANCH  26  31
ATOM     31  O   UNL     1      -2.043  15.822  20.640  0.00  0.00    +0.000 OA
ATOM     32  C   UNL     1      -2.456  16.543  21.798  0.00  0.00    +0.000 C 
ENDBRANCH  26  31
BRANCH  27  33
ATOM     33  O   UNL     1       0.773  15.529  21.140  0.00  0.00    +0.000 OA
ATOM     34  C   UNL     1       1.953  15.457  21.929  0.00  0.00    +0.000 C 
ENDBRANCH  27  33
ENDBRANCH   7  23
TORSDOF 7
ENDMDL
MODEL 4
REMARK VINA RESULT:      -7.2      0.634      2.220
REMARK  Name = 
REMARK  12 active torsions:
REMARK  status: ('A' for Active; 'I' for Inactive)
REMARK    1  A    between atoms: C_1  and  O_2
REMARK    2  A    between atoms: O_2  and  C_3
REMARK    3  A    between atoms: C_5  and  C_6
REMARK    4  A    between atoms: C_12  and  C_13
REMARK    5  A    between atoms: C_15  and  O_16
REMARK    6  A    between atoms: O_16  and  C_17
REMARK    7  A    between atoms: C_18  and  O_19
REMARK    8  A    between atoms: O_19  and  C_20
REMARK    9  A    between atoms: C_21  and  O_22
REMARK   10  A    between atoms: O_22  and  C_23
REMARK   11  A    between atoms: C_29  and  O_30
REMARK   12  A    between atoms: O_30  and  C_31
REMARK                            x       y       z     vdW  Elec       q    Type
REMARK                         _______ _______ _______ _____ _____    ______ ____
ROOT
ATOM      1  C   UNL     1       0.034  10.684  21.470  0.00  0.00    +0.000 C 
ATOM      2  CA  UNL     1       0.711   9.941  20.583  0.00  0.00    +0.000 A 
ATOM      3  N   UNL     1       0.980  10.357  19.308  0.00  0.00    +0.000 N 
ATOM      4  C   UNL     1       1.665   9.638  18.373  0.00  0.00    +0.000 A 
ATOM      5  O   UNL     1       1.870  10.071  17.241  0.00  0.00    +0.000 OA
ATOM      6  CA  UNL     1       2.141   8.284  18.826  0.00  0.00    +0.000 A 
ATOM      7  C   UNL     1       2.796   7.527  17.932  0.00  0.00    +0.000 C 
ATOM      8  N   UNL     1       1.879   7.867  20.109  0.00  0.00    +0.000 N 
ATOM      9  C   UNL     1       1.199   8.588  21.045  0.00  0.00    +0.000 A 
ATOM     10  O   UNL     1       1.009   8.151  22.173  0.00  0.00    +0.000 OA
ATOM     11  H   UNL     1       0.658  11.268  19.003  0.00  0.00    +0.000 HD
ATOM     12  H   UNL     1       2.207   6.961  20.419  0.00  0.00    +0.000 HD
ENDROOT
BRANCH   1  15
ATOM     13  C   UNL     1      -0.148  14.362  20.713  0.00  0.00    +0.000 A 
ATOM     14  C   UNL     1       0.353  13.115  21.089  0.00  0.00    +0.000 A 
ATOM     15  C   UNL     1      -0.502  12.018  21.213  0.00  0.00    +0.000 A 
ATOM     16  C   UNL     1      -1.875  12.188  21.021  0.00  0.00    +0.000 A 
ATOM     17  C   UNL     1      -2.385  13.429  20.639  0.00  0.00    +0.000 A 
ATOM     18  C   UNL     1      -1.518  14.517  20.486  0.00  0.00    +0.000 A 
BRANCH  13  20
ATOM     19  C   UNL     1       0.926  15.932  19.280  0.00  0.00    +0.000 C 
ATOM     20  O   UNL     1       0.802  15.338  20.566  0.00  0.00    +0.000 OA
ENDBRANCH  13  20
BRANCH  17  21
ATOM     21  O   UNL     1      -3.735  13.441  20.413  0.00  0.00    +0.000 OA
ATOM     22  C   UNL     1      -4.504  14.384  21.148  0.00  0.00    +0.000 C 
ENDBRANCH  17  21
ENDBRANCH   1  15
BRANCH   7  23
ATOM     23  C   UNL     1       3.251   6.163  18.179  0.00  0.00    +0.000 A 
ATOM     24  C   UNL     1       4.565   5.956  18.575  0.00  0.00    +0.000 A 
ATOM     25  C   UNL     1       5.017   4.678  18.908  0.00  0.00    +0.000 A 
ATOM     26  C   UNL     1       4.141   3.568  18.806  0.00  0.00    +0.000 A 
ATOM     27  C   UNL     1       2.818   3.775  18.332  0.00  0.00    +0.000 A 
ATOM     28  C   UNL     1       2.396   5.080  18.027  0.00  0.00    +0.000 A 
BRANCH  25  29
ATOM     29  O   UNL     1       6.317   4.473  19.325  0.00  0.00    +0.000 OA
ATOM     30  C   UNL     1       7.194   5.586  19.128  0.00  0.00    +0.000 C 
ENDBRANCH  25  29
BRANCH  26  31
ATOM     31  O   UNL     1       4.672   2.345  19.156  0.00  0.00    +0.000 OA
ATOM     32  C   UNL     1       4.448   1.874  20.483  0.00  0.00    +0.000 C 
ENDBRANCH  26  31
BRANCH  27  33
ATOM     33  O   UNL     1       1.997   2.693  18.164  0.00  0.00    +0.000 OA
ATOM     34  C   UNL     1       0.768   2.665  18.879  0.00  0.00    +0.000 C 
ENDBRANCH  27  33
ENDBRANCH   7  23
TORSDOF 7
ENDMDL
MODEL 5
REMARK VINA RESULT:      -7.1      0.836      2.336
REMARK  Name = 
REMARK  12 active torsions:
REMARK  status: ('A' for Active; 'I' for Inactive)
REMARK    1  A    between atoms: C_1  and  O_2
REMARK    2  A    between atoms: O_2  and  C_3
REMARK    3  A    between atoms: C_5  and  C_6
REMARK    4  A    between atoms: C_12  and  C_13
REMARK    5  A    between atoms: C_15  and  O_16
REMARK    6  A    between atoms: O_16  and  C_17
REMARK    7  A    between atoms: C_18  and  O_19
REMARK    8  A    between atoms: O_19  and  C_20
REMARK    9  A    between atoms: C_21  and  O_22
REMARK   10  A    between atoms: O_22  and  C_23
REMARK   11  A    between atoms: C_29  and  O_30
REMARK   12  A    between atoms: O_30  and  C_31
REMARK                            x       y       z     vdW  Elec       q    Type
REMARK                         _______ _______ _______ _____ _____    ______ ____
ROOT
ATOM      1  C   UNL     1      -0.008  10.964  21.647  0.00  0.00    +0.000 C 
ATOM      2  CA  UNL     1       0.624  10.125  20.814  0.00  0.00    +0.000 A 
ATOM      3  N   UNL     1       0.832  10.398  19.490  0.00  0.00    +0.000 N 
ATOM      4  C   UNL     1       1.470   9.578  18.607  0.00  0.00    +0.000 A 
ATOM      5  O   UNL     1       1.620   9.883  17.427  0.00  0.00    +0.000 OA
ATOM      6  CA  UNL     1       1.966   8.278  19.181  0.00  0.00    +0.000 A 
ATOM      7  C   UNL     1       2.576   7.425  18.345  0.00  0.00    +0.000 C 
ATOM      8  N   UNL     1       1.766   8.005  20.513  0.00  0.00    +0.000 N 
ATOM      9  C   UNL     1       1.133   8.827  21.397  0.00  0.00    +0.000 A 
ATOM     10  O   UNL     1       0.997   8.517  22.574  0.00  0.00    +0.000 OA
ATOM     11  H   UNL     1       0.496  11.273  19.104  0.00  0.00    +0.000 HD
ATOM     12  H   UNL     1       2.108   7.136  20.904  0.00  0.00    +0.000 HD
ENDROOT
BRANCH   1  15
ATOM     13  C   UNL     1      -2.456  13.665  20.725  0.00  0.00    +0.000 A 
ATOM     14  C   UNL     1      -1.908  12.402  20.954  0.00  0.00    +0.000 A 
ATOM     15  C   UNL     1      -0.555  12.266  21.272  0.00  0.00    +0.000 A 
ATOM     16  C   UNL     1       0.264  13.396  21.299  0.00  0.00    +0.000 A 
ATOM     17  C   UNL     1      -0.275  14.664  21.078  0.00  0.00    +0.000 A 
ATOM     18  C   UNL     1      -1.637  14.796  20.790  0.00  0.00    +0.000 A 
BRANCH  13  20
ATOM     19  C   UNL     1      -4.604  12.792  21.272  0.00  0.00    +0.000 C 
ATOM     20  O   UNL     1      -3.805  13.666  20.485  0.00  0.00    +0.000 OA
ENDBRANCH  13  20
BRANCH  17  21
ATOM     21  O   UNL     1       0.621  15.690  21.205  0.00  0.00    +0.000 OA
ATOM     22  C   UNL     1       1.502  15.917  20.112  0.00  0.00    +0.000 C 
ENDBRANCH  17  21
ENDBRANCH   1  15
BRANCH   7  23
ATOM     23  C   UNL     1       3.041   6.092  18.718  0.00  0.00    +0.000 A 
ATOM     24  C   UNL     1       2.111   5.154  19.143  0.00  0.00    +0.000 A 
ATOM     25  C   UNL     1       2.499   3.842  19.424  0.00  0.00    +0.000 A 
ATOM     26  C   UNL     1       3.862   3.467  19.313  0.00  0.00    +0.000 A 
ATOM     27  C   UNL     1       4.819   4.449  18.946  0.00  0.00    +0.000 A 
ATOM     28  C   UNL     1       4.386   5.753  18.652  0.00  0.00    +0.000 A 
BRANCH  25  29
ATOM     29  O   UNL     1       1.573   2.900  19.824  0.00  0.00    +0.000 OA
ATOM     30  C   UNL     1       1.290   2.894  21.227  0.00  0.00    +0.000 C 
ENDBRANCH  25  29
BRANCH  26  31
ATOM     31  O   UNL     1       4.153   2.152  19.608  0.00  0.00    +0.000 OA
ATOM     32  C   UNL     1       3.980   1.182  18.578  0.00  0.00    +0.000 C 
ENDBRANCH  26  31
BRANCH  27  33
ATOM     33  O   UNL     1       6.144   4.104  18.910  0.00  0.00    +0.000 OA
ATOM     34  C   UNL     1       6.970   4.713  17.927  0.00  0.00    +0.000 C 
ENDBRANCH  27  33
ENDBRANCH   7  23
TORSDOF 7
ENDMDL
MODEL 6
REMARK VINA RESULT:      -7.1      0.774      9.822
REMARK  Name = 
REMARK  12 active torsions:
REMARK  status: ('A' for Active; 'I' for Inactive)
REMARK    1  A    between atoms: C_1  and  O_2
REMARK    2  A    between atoms: O_2  and  C_3
REMARK    3  A    between atoms: C_5  and  C_6
REMARK    4  A    between atoms: C_12  and  C_13
REMARK    5  A    between atoms: C_15  and  O_16
REMARK    6  A    between atoms: O_16  and  C_17
REMARK    7  A    between atoms: C_18  and  O_19
REMARK    8  A    between atoms: O_19  and  C_20
REMARK    9  A    between atoms: C_21  and  O_22
REMARK   10  A    between atoms: O_22  and  C_23
REMARK   11  A    between atoms: C_29  and  O_30
REMARK   12  A    between atoms: O_30  and  C_31
REMARK                            x       y       z     vdW  Elec       q    Type
REMARK                         _______ _______ _______ _____ _____    ______ ____
ROOT
ATOM      1  C   UNL     1       2.740   7.286  17.968  0.00  0.00    +0.000 C 
ATOM      2  CA  UNL     1       2.140   8.078  18.868  0.00  0.00    +0.000 A 
ATOM      3  N   UNL     1       1.919   7.706  20.165  0.00  0.00    +0.000 N 
ATOM      4  C   UNL     1       1.315   8.478  21.114  0.00  0.00    +0.000 A 
ATOM      5  O   UNL     1       1.143   8.080  22.264  0.00  0.00    +0.000 OA
ATOM      6  CA  UNL     1       0.874   9.840  20.650  0.00  0.00    +0.000 A 
ATOM      7  C   UNL     1       0.251  10.626  21.541  0.00  0.00    +0.000 C 
ATOM      8  N   UNL     1       1.104  10.220  19.349  0.00  0.00    +0.000 N 
ATOM      9  C   UNL     1       1.711   9.450  18.402  0.00  0.00    +0.000 A 
ATOM     10  O   UNL     1       1.886   9.861  17.261  0.00  0.00    +0.000 OA
ATOM     11  H   UNL     1       2.214   6.788  20.477  0.00  0.00    +0.000 HD
ATOM     12  H   UNL     1       0.817  11.139  19.037  0.00  0.00    +0.000 HD
ENDROOT
BRANCH   1  15
ATOM     13  C   UNL     1       2.906   3.537  18.206  0.00  0.00    +0.000 A 
ATOM     14  C   UNL     1       2.397   4.831  18.080  0.00  0.00    +0.000 A 
ATOM     15  C   UNL     1       3.235   5.938  18.235  0.00  0.00    +0.000 A 
ATOM     16  C   UNL     1       4.574   5.747  18.581  0.00  0.00    +0.000 A 
ATOM     17  C   UNL     1       5.094   4.458  18.703  0.00  0.00    +0.000 A 
ATOM     18  C   UNL     1       4.257   3.353  18.516  0.00  0.00    +0.000 A 
BRANCH  13  20
ATOM     19  C   UNL     1       0.843   2.506  18.800  0.00  0.00    +0.000 C 
ATOM     20  O   UNL     1       1.997   2.541  17.969  0.00  0.00    +0.000 OA
ENDBRANCH  13  20
BRANCH  17  21
ATOM     21  O   UNL     1       6.435   4.411  18.973  0.00  0.00    +0.000 OA
ATOM     22  C   UNL     1       7.317   4.807  17.930  0.00  0.00    +0.000 C 
ENDBRANCH  17  21
ENDBRANCH   1  15
BRANCH   7  23
ATOM     23  C   UNL     1      -0.313  11.937  21.234  0.00  0.00    +0.000 A 
ATOM     24  C   UNL     1       0.534  13.034  21.180  0.00  0.00    +0.000 A 
ATOM     25  C   UNL     1       0.053  14.289  20.804  0.00  0.00    +0.000 A 
ATOM     26  C   UNL     1      -1.324  14.461  20.510  0.00  0.00    +0.000 A 
ATOM     27  C   UNL     1      -2.199  13.350  20.635  0.00  0.00    +0.000 A 
ATOM     28  C   UNL     1      -1.672  12.099  20.997  0.00  0.00    +0.000 A 
BRANCH  25  29
ATOM     29  O   UNL     1       0.898  15.378  20.726  0.00  0.00    +0.000 OA
ATOM     30  C   UNL     1       2.219  15.080  20.264  0.00  0.00    +0.000 C 
ENDBRANCH  25  29
BRANCH  26  31
ATOM     31  O   UNL     1      -1.709  15.734  20.146  0.00  0.00    +0.000 OA
ATOM     32  C   UNL     1      -2.375  16.535  21.120  0.00  0.00    +0.000 C 
ENDBRANCH  26  31
BRANCH  27  33
ATOM     33  O   UNL     1      -3.539  13.534  20.422  0.00  0.00    +0.000 OA
ATOM     34  C   UNL     1      -4.448  13.029  21.391  0.00  0.00    +0.000 C 
ENDBRANCH  27  33
ENDBRANCH   7  23
TORSDOF 7
ENDMDL
MODEL 7
REMARK VINA RESULT:      -7.1      2.139      3.777
REMARK  Name = 
REMARK  12 active torsions:
REMARK  status: ('A' for Active; 'I' for Inactive)
REMARK    1  A    between atoms: C_1  and  O_2
REMARK    2  A    between atoms: O_2  and  C_3
REMARK    3  A    between atoms: C_5  and  C_6
REMARK    4  A    between atoms: C_12  and  C_13
REMARK    5  A    between atoms: C_15  and  O_16
REMARK    6  A    between atoms: O_16  and  C_17
REMARK    7  A    between atoms: C_18  and  O_19
REMARK    8  A    between atoms: O_19  and  C_20
REMARK    9  A    between atoms: C_21  and  O_22
REMARK   10  A    between atoms: O_22  and  C_23
REMARK   11  A    between atoms: C_29  and  O_30
REMARK   12  A    between atoms: O_30  and  C_31
REMARK                            x       y       z     vdW  Elec       q    Type
REMARK                         _______ _______ _______ _____ _____    ______ ____
ROOT
ATOM      1  C   UNL     1      -0.831  11.446  22.905  0.00  0.00    +0.000 C 
ATOM      2  CA  UNL     1      -0.306  10.857  21.822  0.00  0.00    +0.000 A 
ATOM      3  N   UNL     1      -0.666  11.182  20.543  0.00  0.00    +0.000 N 
ATOM      4  C   UNL     1      -0.159  10.612  19.413  0.00  0.00    +0.000 A 
ATOM      5  O   UNL     1      -0.530  10.949  18.291  0.00  0.00    +0.000 OA
ATOM      6  CA  UNL     1       0.878   9.545  19.641  0.00  0.00    +0.000 A 
ATOM      7  C   UNL     1       1.387   8.935  18.560  0.00  0.00    +0.000 C 
ATOM      8  N   UNL     1       1.248   9.223  20.925  0.00  0.00    +0.000 N 
ATOM      9  C   UNL     1       0.744   9.796  22.054  0.00  0.00    +0.000 A 
ATOM     10  O   UNL     1       1.129   9.459  23.167  0.00  0.00    +0.000 OA
ATOM     11  H   UNL     1      -1.366  11.899  20.390  0.00  0.00    +0.000 HD
ATOM     12  H   UNL     1       1.952   8.512  21.080  0.00  0.00    +0.000 HD
ENDROOT
BRANCH   1  15
ATOM     13  C   UNL     1      -2.453  14.817  22.524  0.00  0.00    +0.000 A 
ATOM     14  C   UNL     1      -1.477  13.831  22.679  0.00  0.00    +0.000 A 
ATOM     15  C   UNL     1      -1.844  12.499  22.881  0.00  0.00    +0.000 A 
ATOM     16  C   UNL     1      -3.195  12.164  22.990  0.00  0.00    +0.000 A 
ATOM     17  C   UNL     1      -4.179  13.141  22.830  0.00  0.00    +0.000 A 
ATOM     18  C   UNL     1      -3.805  14.468  22.598  0.00  0.00    +0.000 A 
BRANCH  13  20
ATOM     19  C   UNL     1      -0.573  16.279  22.490  0.00  0.00    +0.000 C 
ATOM     20  O   UNL     1      -1.963  16.070  22.270  0.00  0.00    +0.000 OA
ENDBRANCH  13  20
BRANCH  17  21
ATOM     21  O   UNL     1      -5.461  12.667  22.888  0.00  0.00    +0.000 OA
ATOM     22  C   UNL     1      -6.064  12.589  24.173  0.00  0.00    +0.000 C 
ENDBRANCH  17  21
ENDBRANCH   1  15
BRANCH   7  23
ATOM     23  C   UNL     1       2.335   7.826  18.606  0.00  0.00    +0.000 A 
ATOM     24  C   UNL     1       2.143   6.820  19.542  0.00  0.00    +0.000 A 
ATOM     25  C   UNL     1       2.973   5.697  19.563  0.00  0.00    +0.000 A 
ATOM     26  C   UNL     1       4.050   5.596  18.646  0.00  0.00    +0.000 A 
ATOM     27  C   UNL     1       4.285   6.661  17.738  0.00  0.00    +0.000 A 
ATOM     28  C   UNL     1       3.415   7.764  17.735  0.00  0.00    +0.000 A 
BRANCH  25  29
ATOM     29  O   UNL     1       2.769   4.683  20.476  0.00  0.00    +0.000 OA
ATOM     30  C   UNL     1       1.401   4.303  20.657  0.00  0.00    +0.000 C 
ENDBRANCH  25  29
BRANCH  26  31
ATOM     31  O   UNL     1       4.815   4.453  18.738  0.00  0.00    +0.000 OA
ATOM     32  C   UNL     1       4.381   3.298  18.023  0.00  0.00    +0.000 C 
ENDBRANCH  26  31
BRANCH  27  33
ATOM     33  O   UNL     1       5.369   6.595  16.903  0.00  0.00    +0.000 OA
ATOM     34  C   UNL     1       5.196   5.998  15.625  0.00  0.00    +0.000 C 
ENDBRANCH  27  33
ENDBRANCH   7  23
TORSDOF 7
ENDMDL
MODEL 8
REMARK VINA RESULT:      -7.1      2.111      3.078
REMARK  Name = 
REMARK  12 active torsions:
REMARK  status: ('A' for Active; 'I' for Inactive)
REMARK    1  A    between atoms: C_1  and  O_2
REMARK    2  A    between atoms: O_2  and  C_3
REMARK    3  A    between atoms: C_5  and  C_6
REMARK    4  A    between atoms: C_12  and  C_13
REMARK    5  A    between atoms: C_15  and  O_16
REMARK    6  A    between atoms: O_16  and  C_17
REMARK    7  A    between atoms: C_18  and  O_19
REMARK    8  A    between atoms: O_19  and  C_20
REMARK    9  A    between atoms: C_21  and  O_22
REMARK   10  A    between atoms: O_22  and  C_23
REMARK   11  A    between atoms: C_29  and  O_30
REMARK   12  A    between atoms: O_30  and  C_31
REMARK                            x       y       z     vdW  Elec       q    Type
REMARK                         _______ _______ _______ _____ _____    ______ ____
ROOT
ATOM      1  C   UNL     1      -0.847  11.455  22.902  0.00  0.00    +0.000 C 
ATOM      2  CA  UNL     1      -0.313  10.873  21.819  0.00  0.00    +0.000 A 
ATOM      3  N   UNL     1      -0.659  11.212  20.540  0.00  0.00    +0.000 N 
ATOM      4  C   UNL     1      -0.142  10.651  19.409  0.00  0.00    +0.000 A 
ATOM      5  O   UNL     1      -0.500  11.000  18.287  0.00  0.00    +0.000 OA
ATOM      6  CA  UNL     1       0.886   9.576  19.638  0.00  0.00    +0.000 A 
ATOM      7  C   UNL     1       1.404   8.974  18.556  0.00  0.00    +0.000 C 
ATOM      8  N   UNL     1       1.241   9.239  20.922  0.00  0.00    +0.000 N 
ATOM      9  C   UNL     1       0.729   9.804  22.052  0.00  0.00    +0.000 A 
ATOM     10  O   UNL     1       1.100   9.455  23.166  0.00  0.00    +0.000 OA
ATOM     11  H   UNL     1      -1.353  11.934  20.386  0.00  0.00    +0.000 HD
ATOM     12  H   UNL     1       1.940   8.524  21.079  0.00  0.00    +0.000 HD
ENDROOT
BRANCH   1  15
ATOM     13  C   UNL     1      -4.174  13.200  22.747  0.00  0.00    +0.000 A 
ATOM     14  C   UNL     1      -3.196  12.210  22.640  0.00  0.00    +0.000 A 
ATOM     15  C   UNL     1      -1.854  12.513  22.877  0.00  0.00    +0.000 A 
ATOM     16  C   UNL     1      -1.484  13.829  23.160  0.00  0.00    +0.000 A 
ATOM     17  C   UNL     1      -2.453  14.825  23.276  0.00  0.00    +0.000 A 
ATOM     18  C   UNL     1      -3.800  14.509  23.068  0.00  0.00    +0.000 A 
BRANCH  13  20
ATOM     19  C   UNL     1      -5.837  12.444  21.219  0.00  0.00    +0.000 C 
ATOM     20  O   UNL     1      -5.456  12.760  22.553  0.00  0.00    +0.000 OA
ENDBRANCH  13  20
BRANCH  17  21
ATOM     21  O   UNL     1      -1.964  16.054  23.629  0.00  0.00    +0.000 OA
ATOM     22  C   UNL     1      -0.580  16.288  23.398  0.00  0.00    +0.000 C 
ENDBRANCH  17  21
ENDBRANCH   1  15
BRANCH   7  23
ATOM     23  C   UNL     1       2.346   7.859  18.602  0.00  0.00    +0.000 A 
ATOM     24  C   UNL     1       2.147   6.853  19.537  0.00  0.00    +0.000 A 
ATOM     25  C   UNL     1       2.971   5.726  19.556  0.00  0.00    +0.000 A 
ATOM     26  C   UNL     1       4.048   5.619  18.640  0.00  0.00    +0.000 A 
ATOM     27  C   UNL     1       4.289   6.684  17.733  0.00  0.00    +0.000 A 
ATOM     28  C   UNL     1       3.425   7.792  17.731  0.00  0.00    +0.000 A 
BRANCH  25  29
ATOM     29  O   UNL     1       2.761   4.711  20.469  0.00  0.00    +0.000 OA
ATOM     30  C   UNL     1       1.396   4.310  20.617  0.00  0.00    +0.000 C 
ENDBRANCH  25  29
BRANCH  26  31
ATOM     31  O   UNL     1       4.807   4.472  18.731  0.00  0.00    +0.000 OA
ATOM     32  C   UNL     1       4.423   3.351  17.937  0.00  0.00    +0.000 C 
ENDBRANCH  26  31
BRANCH  27  33
ATOM     33  O   UNL     1       5.373   6.613  16.899  0.00  0.00    +0.000 OA
ATOM     34  C   UNL     1       5.175   6.115  15.583  0.00  0.00    +0.000 C 
ENDBRANCH  27  33
ENDBRANCH   7  23
TORSDOF 7
ENDMDL
MODEL 9
REMARK VINA RESULT:      -7.1      0.877      3.245
REMARK  Name = 
REMARK  12 active torsions:
REMARK  status: ('A' for Active; 'I' for Inactive)
REMARK    1  A    between atoms: C_1  and  O_2
REMARK    2  A    between atoms: O_2  and  C_3
REMARK    3  A    between atoms: C_5  and  C_6
REMARK    4  A    between atoms: C_12  and  C_13
REMARK    5  A    between atoms: C_15  and  O_16
REMARK    6  A    between atoms: O_16  and  C_17
REMARK    7  A    between atoms: C_18  and  O_19
REMARK    8  A    between atoms: O_19  and  C_20
REMARK    9  A    between atoms: C_21  and  O_22
REMARK   10  A    between atoms: O_22  and  C_23
REMARK   11  A    between atoms: C_29  and  O_30
REMARK   12  A    between atoms: O_30  and  C_31
REMARK                            x       y       z     vdW  Elec       q    Type
REMARK                         _______ _______ _______ _____ _____    ______ ____
ROOT
ATOM      1  C   UNL     1       0.057  11.021  21.686  0.00  0.00    +0.000 C 
ATOM      2  CA  UNL     1       0.670  10.172  20.849  0.00  0.00    +0.000 A 
ATOM      3  N   UNL     1       0.864  10.436  19.521  0.00  0.00    +0.000 N 
ATOM      4  C   UNL     1       1.483   9.606  18.634  0.00  0.00    +0.000 A 
ATOM      5  O   UNL     1       1.621   9.904  17.450  0.00  0.00    +0.000 OA
ATOM      6  CA  UNL     1       1.974   8.304  19.209  0.00  0.00    +0.000 A 
ATOM      7  C   UNL     1       2.566   7.441  18.369  0.00  0.00    +0.000 C 
ATOM      8  N   UNL     1       1.789   8.039  20.544  0.00  0.00    +0.000 N 
ATOM      9  C   UNL     1       1.175   8.872  21.432  0.00  0.00    +0.000 A 
ATOM     10  O   UNL     1       1.051   8.569  22.612  0.00  0.00    +0.000 OA
ATOM     11  H   UNL     1       0.531  11.312  19.135  0.00  0.00    +0.000 HD
ATOM     12  H   UNL     1       2.127   7.169  20.935  0.00  0.00    +0.000 HD
ENDROOT
BRANCH   1  15
ATOM     13  C   UNL     1      -0.152  14.562  20.438  0.00  0.00    +0.000 A 
ATOM     14  C   UNL     1       0.370  13.361  20.921  0.00  0.00    +0.000 A 
ATOM     15  C   UNL     1      -0.483  12.325  21.311  0.00  0.00    +0.000 A 
ATOM     16  C   UNL     1      -1.865  12.520  21.276  0.00  0.00    +0.000 A 
ATOM     17  C   UNL     1      -2.397  13.714  20.788  0.00  0.00    +0.000 A 
ATOM     18  C   UNL     1      -1.537  14.735  20.371  0.00  0.00    +0.000 A 
BRANCH  13  20
ATOM     19  C   UNL     1       1.795  15.005  19.140  0.00  0.00    +0.000 C 
ATOM     20  O   UNL     1       0.789  15.470  20.031  0.00  0.00    +0.000 OA
ENDBRANCH  13  20
BRANCH  17  21
ATOM     21  O   UNL     1      -3.765  13.746  20.739  0.00  0.00    +0.000 OA
ATOM     22  C   UNL     1      -4.460  12.721  21.437  0.00  0.00    +0.000 C 
ENDBRANCH  17  21
ENDBRANCH   1  15
BRANCH   7  23
ATOM     23  C   UNL     1       3.023   6.106  18.742  0.00  0.00    +0.000 A 
ATOM     24  C   UNL     1       2.088   5.173  19.169  0.00  0.00    +0.000 A 
ATOM     25  C   UNL     1       2.468   3.860  19.451  0.00  0.00    +0.000 A 
ATOM     26  C   UNL     1       3.829   3.477  19.340  0.00  0.00    +0.000 A 
ATOM     27  C   UNL     1       4.792   4.453  18.971  0.00  0.00    +0.000 A 
ATOM     28  C   UNL     1       4.366   5.759  18.676  0.00  0.00    +0.000 A 
BRANCH  25  29
ATOM     29  O   UNL     1       1.536   2.923  19.852  0.00  0.00    +0.000 OA
ATOM     30  C   UNL     1       0.632   2.499  18.828  0.00  0.00    +0.000 C 
ENDBRANCH  25  29
BRANCH  26  31
ATOM     31  O   UNL     1       4.112   2.161  19.636  0.00  0.00    +0.000 OA
ATOM     32  C   UNL     1       4.010   1.202  18.585  0.00  0.00    +0.000 C 
ENDBRANCH  26  31
BRANCH  27  33
ATOM     33  O   UNL     1       6.114   4.100  18.936  0.00  0.00    +0.000 OA
ATOM     34  C   UNL     1       6.942   4.700  17.948  0.00  0.00    +0.000 C 
ENDBRANCH  27  33
ENDBRANCH   7  23
TORSDOF 7
ENDMDL
