MODEL 1
REMARK VINA RESULT:      -6.8      0.000      0.000
REMARK  Name = 
REMARK  5 active torsions:
REMARK  status: ('A' for Active; 'I' for Inactive)
REMARK    1  A    between atoms: C_1  and  S_2
REMARK    2  A    between atoms: S_2  and  N_5
REMARK    3  A    between atoms: N_5  and  N_6
REMARK    4  A    between atoms: N_6  and  S_7
REMARK    5  A    between atoms: S_7  and  C_10
REMARK                            x       y       z     vdW  Elec       q    Type
REMARK                         _______ _______ _______ _____ _____    ______ ____
ROOT
ATOM      1  S   UNL     1       6.495   5.393  18.528  0.00  0.00    +0.000 S 
ATOM      2  O   UNL     1       7.211   5.233  19.776  0.00  0.00    +0.000 OA
ATOM      3  O   UNL     1       6.317   6.698  17.922  0.00  0.00    +0.000 OA
ENDROOT
BRANCH   1   4
ATOM      4  C   UNL     1       4.897   4.641  18.707  0.00  0.00    +0.000 A 
ATOM      5  C   UNL     1       3.780   5.252  18.124  0.00  0.00    +0.000 A 
ATOM      6  C   UNL     1       2.533   4.628  18.196  0.00  0.00    +0.000 A 
ATOM      7  C   UNL     1       2.410   3.402  18.851  0.00  0.00    +0.000 A 
ATOM      8 BR   UNL     1       0.725   2.548  18.922  0.00  0.00    +0.000 Br
ATOM      9  C   UNL     1       3.521   2.795  19.438  0.00  0.00    +0.000 A 
ATOM     10  C   UNL     1       4.774   3.414  19.364  0.00  0.00    +0.000 A 
ENDBRANCH   1   4
BRANCH   1  11
ATOM     11  N   UNL     1       7.265   4.393  17.372  0.00  0.00    +0.000 NA
ATOM     12  H   UNL     1       8.138   4.806  17.010  0.00  0.00    +0.000 HD
BRANCH  11  13
ATOM     13  N   UNL     1       6.362   3.979  16.352  0.00  0.00    +0.000 NA
ATOM     14  H   UNL     1       6.475   2.983  16.108  0.00  0.00    +0.000 HD
BRANCH  13  16
ATOM     15  C   UNL     1       6.096   3.798  13.682  0.00  0.00    +0.000 C 
ATOM     16  S   UNL     1       6.452   4.975  14.965  0.00  0.00    +0.000 S 
ATOM     17  O   UNL     1       7.831   5.396  14.835  0.00  0.00    +0.000 OA
ATOM     18  O   UNL     1       5.371   5.935  15.056  0.00  0.00    +0.000 OA
ENDBRANCH  13  16
ENDBRANCH  11  13
ENDBRANCH   1  11
TORSDOF 4
ENDMDL
MODEL 2
REMARK VINA RESULT:      -6.8      0.613      1.343
REMARK  Name = 
REMARK  5 active torsions:
REMARK  status: ('A' for Active; 'I' for Inactive)
REMARK    1  A    between atoms: C_1  and  S_2
REMARK    2  A    between atoms: S_2  and  N_5
REMARK    3  A    between atoms: N_5  and  N_6
REMARK    4  A    between atoms: N_6  and  S_7
REMARK    5  A    between atoms: S_7  and  C_10
REMARK                            x       y       z     vdW  Elec       q    Type
REMARK                         _______ _______ _______ _____ _____    ______ ____
ROOT
ATOM      1  S   UNL     1       6.951   5.473  18.447  0.00  0.00    +0.000 S 
ATOM      2  O   UNL     1       7.752   5.215  19.625  0.00  0.00    +0.000 OA
ATOM      3  O   UNL     1       6.868   6.799  17.867  0.00  0.00    +0.000 OA
ENDROOT
BRANCH   1   4
ATOM      4  C   UNL     1       5.301   4.901  18.763  0.00  0.00    +0.000 A 
ATOM      5  C   UNL     1       5.106   3.616  19.283  0.00  0.00    +0.000 A 
ATOM      6  C   UNL     1       3.816   3.187  19.605  0.00  0.00    +0.000 A 
ATOM      7  C   UNL     1       2.733   4.043  19.404  0.00  0.00    +0.000 A 
ATOM      8 BR   UNL     1       0.993   3.468  19.867  0.00  0.00    +0.000 Br
ATOM      9  C   UNL     1       2.925   5.322  18.879  0.00  0.00    +0.000 A 
ATOM     10  C   UNL     1       4.216   5.758  18.559  0.00  0.00    +0.000 A 
ENDBRANCH   1   4
BRANCH   1  11
ATOM     11  N   UNL     1       7.500   4.412  17.221  0.00  0.00    +0.000 NA
ATOM     12  H   UNL     1       8.356   4.751  16.757  0.00  0.00    +0.000 HD
BRANCH  11  13
ATOM     13  N   UNL     1       6.455   4.071  16.316  0.00  0.00    +0.000 NA
ATOM     14  H   UNL     1       6.437   3.064  16.096  0.00  0.00    +0.000 HD
BRANCH  13  16
ATOM     15  C   UNL     1       6.102   3.798  13.663  0.00  0.00    +0.000 C 
ATOM     16  S   UNL     1       6.498   5.019  14.893  0.00  0.00    +0.000 S 
ATOM     17  O   UNL     1       7.870   5.437  14.703  0.00  0.00    +0.000 OA
ATOM     18  O   UNL     1       5.417   5.980  14.986  0.00  0.00    +0.000 OA
ENDBRANCH  13  16
ENDBRANCH  11  13
ENDBRANCH   1  11
TORSDOF 4
ENDMDL
MODEL 3
REMARK VINA RESULT:      -6.6      1.132      1.744
REMARK  Name = 
REMARK  5 active torsions:
REMARK  status: ('A' for Active; 'I' for Inactive)
REMARK    1  A    between atoms: C_1  and  S_2
REMARK    2  A    between atoms: S_2  and  N_5
REMARK    3  A    between atoms: N_5  and  N_6
REMARK    4  A    between atoms: N_6  and  S_7
REMARK    5  A    between atoms: S_7  and  C_10
REMARK                            x       y       z     vdW  Elec       q    Type
REMARK                         _______ _______ _______ _____ _____    ______ ____
ROOT
ATOM      1  S   UNL     1       6.772   5.454  18.797  0.00  0.00    +0.000 S 
ATOM      2  O   UNL     1       7.522   5.290  20.024  0.00  0.00    +0.000 OA
ATOM      3  O   UNL     1       6.684   6.740  18.133  0.00  0.00    +0.000 OA
ENDROOT
BRANCH   1   4
ATOM      4  C   UNL     1       5.123   4.857  19.071  0.00  0.00    +0.000 A 
ATOM      5  C   UNL     1       4.931   3.546  19.521  0.00  0.00    +0.000 A 
ATOM      6  C   UNL     1       3.642   3.094  19.811  0.00  0.00    +0.000 A 
ATOM      7  C   UNL     1       2.555   3.953  19.648  0.00  0.00    +0.000 A 
ATOM      8 BR   UNL     1       0.815   3.346  20.067  0.00  0.00    +0.000 Br
ATOM      9  C   UNL     1       2.744   5.260  19.193  0.00  0.00    +0.000 A 
ATOM     10  C   UNL     1       4.034   5.719  18.906  0.00  0.00    +0.000 A 
ENDBRANCH   1   4
BRANCH   1  11
ATOM     11  N   UNL     1       7.404   4.337  17.666  0.00  0.00    +0.000 NA
ATOM     12  H   UNL     1       8.266   4.677  17.212  0.00  0.00    +0.000 HD
BRANCH  11  13
ATOM     13  N   UNL     1       6.407   3.900  16.747  0.00  0.00    +0.000 NA
ATOM     14  H   UNL     1       6.391   2.874  16.643  0.00  0.00    +0.000 HD
BRANCH  13  16
ATOM     15  C   UNL     1       5.165   5.801  15.306  0.00  0.00    +0.000 C 
ATOM     16  S   UNL     1       6.541   4.678  15.230  0.00  0.00    +0.000 S 
ATOM     17  O   UNL     1       6.267   3.681  14.217  0.00  0.00    +0.000 OA
ATOM     18  O   UNL     1       7.780   5.428  15.240  0.00  0.00    +0.000 OA
ENDBRANCH  13  16
ENDBRANCH  11  13
ENDBRANCH   1  11
TORSDOF 4
ENDMDL
MODEL 4
REMARK VINA RESULT:      -6.5      2.982      3.606
REMARK  Name = 
REMARK  5 active torsions:
REMARK  status: ('A' for Active; 'I' for Inactive)
REMARK    1  A    between atoms: C_1  and  S_2
REMARK    2  A    between atoms: S_2  and  N_5
REMARK    3  A    between atoms: N_5  and  N_6
REMARK    4  A    between atoms: N_6  and  S_7
REMARK    5  A    between atoms: S_7  and  C_10
REMARK                            x       y       z     vdW  Elec       q    Type
REMARK                         _______ _______ _______ _____ _____    ______ ____
ROOT
ATOM      1  S   UNL     1       3.412   3.135  17.828  0.00  0.00    +0.000 S 
ATOM      2  O   UNL     1       2.474   2.918  16.747  0.00  0.00    +0.000 OA
ATOM      3  O   UNL     1       3.707   2.092  18.791  0.00  0.00    +0.000 OA
ENDROOT
BRANCH   1   4
ATOM      4  C   UNL     1       2.907   4.586  18.716  0.00  0.00    +0.000 A 
ATOM      5  C   UNL     1       3.026   5.841  18.109  0.00  0.00    +0.000 A 
ATOM      6  C   UNL     1       2.561   6.979  18.772  0.00  0.00    +0.000 A 
ATOM      7  C   UNL     1       1.983   6.855  20.036  0.00  0.00    +0.000 A 
ATOM      8 BR   UNL     1       1.331   8.394  20.918  0.00  0.00    +0.000 Br
ATOM      9  C   UNL     1       1.870   5.604  20.646  0.00  0.00    +0.000 A 
ATOM     10  C   UNL     1       2.330   4.461  19.984  0.00  0.00    +0.000 A 
ENDBRANCH   1   4
BRANCH   1  11
ATOM     11  N   UNL     1       4.896   3.611  17.120  0.00  0.00    +0.000 NA
ATOM     12  H   UNL     1       5.182   2.993  16.346  0.00  0.00    +0.000 HD
BRANCH  11  13
ATOM     13  N   UNL     1       5.908   3.803  18.104  0.00  0.00    +0.000 NA
ATOM     14  H   UNL     1       5.529   4.161  18.994  0.00  0.00    +0.000 HD
BRANCH  13  16
ATOM     15  C   UNL     1       6.915   4.705  15.779  0.00  0.00    +0.000 C 
ATOM     16  S   UNL     1       7.188   4.783  17.534  0.00  0.00    +0.000 S 
ATOM     17  O   UNL     1       8.421   4.091  17.840  0.00  0.00    +0.000 OA
ATOM     18  O   UNL     1       6.937   6.131  18.003  0.00  0.00    +0.000 OA
ENDBRANCH  13  16
ENDBRANCH  11  13
ENDBRANCH   1  11
TORSDOF 4
ENDMDL
MODEL 5
REMARK VINA RESULT:      -6.5      0.909      1.095
REMARK  Name = 
REMARK  5 active torsions:
REMARK  status: ('A' for Active; 'I' for Inactive)
REMARK    1  A    between atoms: C_1  and  S_2
REMARK    2  A    between atoms: S_2  and  N_5
REMARK    3  A    between atoms: N_5  and  N_6
REMARK    4  A    between atoms: N_6  and  S_7
REMARK    5  A    between atoms: S_7  and  C_10
REMARK                            x       y       z     vdW  Elec       q    Type
REMARK                         _______ _______ _______ _____ _____    ______ ____
ROOT
ATOM      1  S   UNL     1       6.536   5.398  18.648  0.00  0.00    +0.000 S 
ATOM      2  O   UNL     1       7.239   5.254  19.905  0.00  0.00    +0.000 OA
ATOM      3  O   UNL     1       6.380   6.694  18.015  0.00  0.00    +0.000 OA
ENDROOT
BRANCH   1   4
ATOM      4  C   UNL     1       4.927   4.670  18.826  0.00  0.00    +0.000 A 
ATOM      5  C   UNL     1       3.808   5.343  18.322  0.00  0.00    +0.000 A 
ATOM      6  C   UNL     1       2.549   4.742  18.392  0.00  0.00    +0.000 A 
ATOM      7  C   UNL     1       2.417   3.477  18.965  0.00  0.00    +0.000 A 
ATOM      8 BR   UNL     1       0.716   2.657  19.033  0.00  0.00    +0.000 Br
ATOM      9  C   UNL     1       3.532   2.808  19.474  0.00  0.00    +0.000 A 
ATOM     10  C   UNL     1       4.796   3.404  19.402  0.00  0.00    +0.000 A 
ENDBRANCH   1   4
BRANCH   1  11
ATOM     11  N   UNL     1       7.304   4.367  17.518  0.00  0.00    +0.000 NA
ATOM     12  H   UNL     1       8.150   4.790  17.107  0.00  0.00    +0.000 HD
BRANCH  11  13
ATOM     13  N   UNL     1       6.384   3.871  16.551  0.00  0.00    +0.000 NA
ATOM     14  H   UNL     1       6.424   2.845  16.460  0.00  0.00    +0.000 HD
BRANCH  13  16
ATOM     15  C   UNL     1       5.182   5.755  15.053  0.00  0.00    +0.000 C 
ATOM     16  S   UNL     1       6.565   4.639  15.033  0.00  0.00    +0.000 S 
ATOM     17  O   UNL     1       6.332   3.633  14.019  0.00  0.00    +0.000 OA
ATOM     18  O   UNL     1       7.800   5.396  15.081  0.00  0.00    +0.000 OA
ENDBRANCH  13  16
ENDBRANCH  11  13
ENDBRANCH   1  11
TORSDOF 4
ENDMDL
MODEL 6
REMARK VINA RESULT:      -6.5      3.031      3.889
REMARK  Name = 
REMARK  5 active torsions:
REMARK  status: ('A' for Active; 'I' for Inactive)
REMARK    1  A    between atoms: C_1  and  S_2
REMARK    2  A    between atoms: S_2  and  N_5
REMARK    3  A    between atoms: N_5  and  N_6
REMARK    4  A    between atoms: N_6  and  S_7
REMARK    5  A    between atoms: S_7  and  C_10
REMARK                            x       y       z     vdW  Elec       q    Type
REMARK                         _______ _______ _______ _____ _____    ______ ____
ROOT
ATOM      1  S   UNL     1       3.818   3.185  18.619  0.00  0.00    +0.000 S 
ATOM      2  O   UNL     1       3.471   2.981  17.228  0.00  0.00    +0.000 OA
ATOM      3  O   UNL     1       3.596   2.151  19.611  0.00  0.00    +0.000 OA
ENDROOT
BRANCH   1   4
ATOM      4  C   UNL     1       3.021   4.670  19.176  0.00  0.00    +0.000 A 
ATOM      5  C   UNL     1       2.294   4.653  20.372  0.00  0.00    +0.000 A 
ATOM      6  C   UNL     1       1.728   5.835  20.855  0.00  0.00    +0.000 A 
ATOM      7  C   UNL     1       1.890   7.023  20.140  0.00  0.00    +0.000 A 
ATOM      8 BR   UNL     1       1.145   8.624  20.812  0.00  0.00    +0.000 Br
ATOM      9  C   UNL     1       2.610   7.039  18.944  0.00  0.00    +0.000 A 
ATOM     10  C   UNL     1       3.183   5.859  18.459  0.00  0.00    +0.000 A 
ENDBRANCH   1   4
BRANCH   1  11
ATOM     11  N   UNL     1       5.479   3.594  18.670  0.00  0.00    +0.000 NA
ATOM     12  H   UNL     1       5.690   4.306  19.386  0.00  0.00    +0.000 HD
BRANCH  11  13
ATOM     13  N   UNL     1       5.979   3.919  17.377  0.00  0.00    +0.000 NA
ATOM     14  H   UNL     1       6.151   3.081  16.800  0.00  0.00    +0.000 HD
BRANCH  13  16
ATOM     15  C   UNL     1       6.977   5.926  18.862  0.00  0.00    +0.000 C 
ATOM     16  S   UNL     1       7.364   4.918  17.450  0.00  0.00    +0.000 S 
ATOM     17  O   UNL     1       7.347   5.754  16.268  0.00  0.00    +0.000 OA
ATOM     18  O   UNL     1       8.493   4.064  17.760  0.00  0.00    +0.000 OA
ENDBRANCH  13  16
ENDBRANCH  11  13
ENDBRANCH   1  11
TORSDOF 4
ENDMDL
MODEL 7
REMARK VINA RESULT:      -6.5      1.084      1.701
REMARK  Name = 
REMARK  5 active torsions:
REMARK  status: ('A' for Active; 'I' for Inactive)
REMARK    1  A    between atoms: C_1  and  S_2
REMARK    2  A    between atoms: S_2  and  N_5
REMARK    3  A    between atoms: N_5  and  N_6
REMARK    4  A    between atoms: N_6  and  S_7
REMARK    5  A    between atoms: S_7  and  C_10
REMARK                            x       y       z     vdW  Elec       q    Type
REMARK                         _______ _______ _______ _____ _____    ______ ____
ROOT
ATOM      1  S   UNL     1       6.760   5.464  18.861  0.00  0.00    +0.000 S 
ATOM      2  O   UNL     1       7.513   5.273  20.083  0.00  0.00    +0.000 OA
ATOM      3  O   UNL     1       6.667   6.766  18.229  0.00  0.00    +0.000 OA
ENDROOT
BRANCH   1   4
ATOM      4  C   UNL     1       5.113   4.857  19.125  0.00  0.00    +0.000 A 
ATOM      5  C   UNL     1       4.905   3.483  19.298  0.00  0.00    +0.000 A 
ATOM      6  C   UNL     1       3.624   3.006  19.580  0.00  0.00    +0.000 A 
ATOM      7  C   UNL     1       2.560   3.903  19.686  0.00  0.00    +0.000 A 
ATOM      8 BR   UNL     1       0.832   3.256  20.096  0.00  0.00    +0.000 Br
ATOM      9  C   UNL     1       2.764   5.273  19.508  0.00  0.00    +0.000 A 
ATOM     10  C   UNL     1       4.047   5.756  19.229  0.00  0.00    +0.000 A 
ENDBRANCH   1   4
BRANCH   1  11
ATOM     11  N   UNL     1       7.393   4.376  17.702  0.00  0.00    +0.000 NA
ATOM     12  H   UNL     1       8.277   3.942  18.008  0.00  0.00    +0.000 HD
BRANCH  11  13
ATOM     13  N   UNL     1       7.464   4.970  16.410  0.00  0.00    +0.000 NA
ATOM     14  H   UNL     1       7.665   5.981  16.452  0.00  0.00    +0.000 HD
BRANCH  13  16
ATOM     15  C   UNL     1       6.782   4.468  13.857  0.00  0.00    +0.000 C 
ATOM     16  S   UNL     1       6.068   4.652  15.474  0.00  0.00    +0.000 S 
ATOM     17  O   UNL     1       5.263   5.855  15.489  0.00  0.00    +0.000 OA
ATOM     18  O   UNL     1       5.537   3.379  15.916  0.00  0.00    +0.000 OA
ENDBRANCH  13  16
ENDBRANCH  11  13
ENDBRANCH   1  11
TORSDOF 4
ENDMDL
MODEL 8
REMARK VINA RESULT:      -6.5      2.856      3.926
REMARK  Name = 
REMARK  5 active torsions:
REMARK  status: ('A' for Active; 'I' for Inactive)
REMARK    1  A    between atoms: C_1  and  S_2
REMARK    2  A    between atoms: S_2  and  N_5
REMARK    3  A    between atoms: N_5  and  N_6
REMARK    4  A    between atoms: N_6  and  S_7
REMARK    5  A    between atoms: S_7  and  C_10
REMARK                            x       y       z     vdW  Elec       q    Type
REMARK                         _______ _______ _______ _____ _____    ______ ____
ROOT
ATOM      1  S   UNL     1       4.147   3.769  17.609  0.00  0.00    +0.000 S 
ATOM      2  O   UNL     1       4.565   4.347  16.349  0.00  0.00    +0.000 OA
ATOM      3  O   UNL     1       3.387   2.535  17.658  0.00  0.00    +0.000 OA
ENDROOT
BRANCH   1   4
ATOM      4  C   UNL     1       3.256   5.007  18.517  0.00  0.00    +0.000 A 
ATOM      5  C   UNL     1       2.671   4.673  19.744  0.00  0.00    +0.000 A 
ATOM      6  C   UNL     1       2.033   5.659  20.499  0.00  0.00    +0.000 A 
ATOM      7  C   UNL     1       1.982   6.970  20.023  0.00  0.00    +0.000 A 
ATOM      8 BR   UNL     1       1.141   8.307  21.060  0.00  0.00    +0.000 Br
ATOM      9  C   UNL     1       2.559   7.303  18.796  0.00  0.00    +0.000 A 
ATOM     10  C   UNL     1       3.204   6.319  18.038  0.00  0.00    +0.000 A 
ENDBRANCH   1   4
BRANCH   1  11
ATOM     11  N   UNL     1       5.557   3.539  18.551  0.00  0.00    +0.000 NA
ATOM     12  H   UNL     1       5.450   2.786  19.248  0.00  0.00    +0.000 HD
BRANCH  11  13
ATOM     13  N   UNL     1       6.026   4.766  19.102  0.00  0.00    +0.000 NA
ATOM     14  H   UNL     1       5.334   5.526  19.015  0.00  0.00    +0.000 HD
BRANCH  13  16
ATOM     15  C   UNL     1       7.156   6.839  17.812  0.00  0.00    +0.000 C 
ATOM     16  S   UNL     1       7.541   5.227  18.456  0.00  0.00    +0.000 S 
ATOM     17  O   UNL     1       7.817   4.340  17.346  0.00  0.00    +0.000 OA
ATOM     18  O   UNL     1       8.459   5.357  19.569  0.00  0.00    +0.000 OA
ENDBRANCH  13  16
ENDBRANCH  11  13
ENDBRANCH   1  11
TORSDOF 4
ENDMDL
MODEL 9
REMARK VINA RESULT:      -6.5      1.309      1.555
REMARK  Name = 
REMARK  5 active torsions:
REMARK  status: ('A' for Active; 'I' for Inactive)
REMARK    1  A    between atoms: C_1  and  S_2
REMARK    2  A    between atoms: S_2  and  N_5
REMARK    3  A    between atoms: N_5  and  N_6
REMARK    4  A    between atoms: N_6  and  S_7
REMARK    5  A    between atoms: S_7  and  C_10
REMARK                            x       y       z     vdW  Elec       q    Type
REMARK                         _______ _______ _______ _____ _____    ______ ____
ROOT
ATOM      1  S   UNL     1       7.136   6.223  17.787  0.00  0.00    +0.000 S 
ATOM      2  O   UNL     1       7.995   6.323  18.949  0.00  0.00    +0.000 OA
ATOM      3  O   UNL     1       6.918   7.358  16.912  0.00  0.00    +0.000 OA
ENDROOT
BRANCH   1   4
ATOM      4  C   UNL     1       5.554   5.620  18.319  0.00  0.00    +0.000 A 
ATOM      5  C   UNL     1       4.393   6.309  17.947  0.00  0.00    +0.000 A 
ATOM      6  C   UNL     1       3.142   5.799  18.298  0.00  0.00    +0.000 A 
ATOM      7  C   UNL     1       3.058   4.607  19.018  0.00  0.00    +0.000 A 
ATOM      8 BR   UNL     1       1.361   3.906  19.467  0.00  0.00    +0.000 Br
ATOM      9  C   UNL     1       4.215   3.921  19.395  0.00  0.00    +0.000 A 
ATOM     10  C   UNL     1       5.471   4.426  19.042  0.00  0.00    +0.000 A 
ENDBRANCH   1   4
BRANCH   1  11
ATOM     11  N   UNL     1       7.735   4.942  16.824  0.00  0.00    +0.000 NA
ATOM     12  H   UNL     1       8.705   4.685  17.065  0.00  0.00    +0.000 HD
BRANCH  11  13
ATOM     13  N   UNL     1       7.538   5.193  15.436  0.00  0.00    +0.000 NA
ATOM     14  H   UNL     1       7.585   6.197  15.208  0.00  0.00    +0.000 HD
BRANCH  13  16
ATOM     15  C   UNL     1       6.608   3.967  13.230  0.00  0.00    +0.000 C 
ATOM     16  S   UNL     1       6.094   4.488  14.850  0.00  0.00    +0.000 S 
ATOM     17  O   UNL     1       5.129   5.557  14.707  0.00  0.00    +0.000 OA
ATOM     18  O   UNL     1       5.822   3.325  15.670  0.00  0.00    +0.000 OA
ENDBRANCH  13  16
ENDBRANCH  11  13
ENDBRANCH   1  11
TORSDOF 4
ENDMDL
