MODEL 1
REMARK VINA RESULT:      -7.3      0.000      0.000
REMARK  Name = 
REMARK  3 active torsions:
REMARK  status: ('A' for Active; 'I' for Inactive)
REMARK    1  A    between atoms: C_5  and  C_6
REMARK    2  A    between atoms: C_12  and  C_13
REMARK    3  A    between atoms: N_20  and  C_21
REMARK                            x       y       z     vdW  Elec       q    Type
REMARK                         _______ _______ _______ _____ _____    ______ ____
ROOT
ATOM      1  C   UNL     1       2.796   7.385  18.125  0.00  0.00    +0.000 A 
ATOM      2  C   UNL     1       3.052   8.578  17.416  0.00  0.00    +0.000 A 
ATOM      3  C   UNL     1       2.521   9.772  17.850  0.00  0.00    +0.000 A 
ATOM      4  N   UNL     1       1.729   9.909  18.915  0.00  0.00    +0.000 NA
ATOM      5  C   UNL     1       1.483   8.766  19.597  0.00  0.00    +0.000 A 
ATOM      6  C   UNL     1       1.992   7.497  19.304  0.00  0.00    +0.000 A 
ATOM      7  C   UNL     1       1.494   6.677  20.383  0.00  0.00    +0.000 A 
ATOM      8  N   UNL     1       0.690   7.375  21.203  0.00  0.00    +0.000 NA
ATOM      9  N   UNL     1       0.678   8.646  20.721  0.00  0.00    +0.000 N 
ENDROOT
BRANCH   1  14
ATOM     10  F   UNL     1       5.153   2.548  16.485  0.00  0.00    +0.000 F 
ATOM     11  C   UNL     1       4.570   3.709  16.808  0.00  0.00    +0.000 A 
ATOM     12  C   UNL     1       5.316   4.877  16.790  0.00  0.00    +0.000 A 
ATOM     13  C   UNL     1       4.725   6.073  17.209  0.00  0.00    +0.000 A 
ATOM     14  C   UNL     1       3.378   6.123  17.629  0.00  0.00    +0.000 A 
ATOM     15  C   UNL     1       2.628   4.939  17.535  0.00  0.00    +0.000 A 
ATOM     16  C   UNL     1       3.231   3.730  17.168  0.00  0.00    +0.000 A 
ENDBRANCH   1  14
BRANCH   7  17
ATOM     17  C   UNL     1       1.702   5.248  20.664  0.00  0.00    +0.000 A 
ATOM     18  C   UNL     1       2.933   4.760  21.112  0.00  0.00    +0.000 A 
ATOM     19  C   UNL     1       3.174   3.382  21.172  0.00  0.00    +0.000 A 
ATOM     20  C   UNL     1       2.159   2.480  20.867  0.00  0.00    +0.000 A 
ATOM     21  C   UNL     1       0.890   2.953  20.540  0.00  0.00    +0.000 A 
ATOM     22  C   UNL     1       0.664   4.328  20.437  0.00  0.00    +0.000 A 
ENDBRANCH   7  17
BRANCH   9  23
ATOM     23  C   UNL     1      -0.111   9.652  21.376  0.00  0.00    +0.000 A 
ATOM     24  C   UNL     1      -0.375   9.542  22.749  0.00  0.00    +0.000 A 
ATOM     25  C   UNL     1      -1.109  10.535  23.414  0.00  0.00    +0.000 A 
ATOM     26  C   UNL     1      -1.596  11.635  22.709  0.00  0.00    +0.000 A 
ATOM     27  C   UNL     1      -1.363  11.739  21.344  0.00  0.00    +0.000 A 
ATOM     28  C   UNL     1      -0.626  10.756  20.678  0.00  0.00    +0.000 A 
ENDBRANCH   9  23
TORSDOF 3
ENDMDL
MODEL 2
REMARK VINA RESULT:      -7.3      9.190     11.003
REMARK  Name = 
REMARK  3 active torsions:
REMARK  status: ('A' for Active; 'I' for Inactive)
REMARK    1  A    between atoms: C_5  and  C_6
REMARK    2  A    between atoms: C_12  and  C_13
REMARK    3  A    between atoms: N_20  and  C_21
REMARK                            x       y       z     vdW  Elec       q    Type
REMARK                         _______ _______ _______ _____ _____    ______ ____
ROOT
ATOM      1  C   UNL     1       8.800  15.597  21.262  0.00  0.00    +0.000 A 
ATOM      2  C   UNL     1       8.282  16.678  22.007  0.00  0.00    +0.000 A 
ATOM      3  C   UNL     1       7.685  16.457  23.227  0.00  0.00    +0.000 A 
ATOM      4  N   UNL     1       7.520  15.256  23.787  0.00  0.00    +0.000 NA
ATOM      5  C   UNL     1       8.016  14.218  23.073  0.00  0.00    +0.000 A 
ATOM      6  C   UNL     1       8.689  14.296  21.849  0.00  0.00    +0.000 A 
ATOM      7  C   UNL     1       9.072  12.930  21.588  0.00  0.00    +0.000 A 
ATOM      8  N   UNL     1       8.599  12.095  22.529  0.00  0.00    +0.000 NA
ATOM      9  N   UNL     1       7.950  12.879  23.430  0.00  0.00    +0.000 N 
ENDROOT
BRANCH   1  14
ATOM     10  F   UNL     1      11.231  16.355  16.245  0.00  0.00    +0.000 F 
ATOM     11  C   UNL     1      10.658  16.245  17.451  0.00  0.00    +0.000 A 
ATOM     12  C   UNL     1      11.441  15.944  18.555  0.00  0.00    +0.000 A 
ATOM     13  C   UNL     1      10.827  15.748  19.795  0.00  0.00    +0.000 A 
ATOM     14  C   UNL     1       9.430  15.870  19.956  0.00  0.00    +0.000 A 
ATOM     15  C   UNL     1       8.685  16.277  18.835  0.00  0.00    +0.000 A 
ATOM     16  C   UNL     1       9.290  16.422  17.581  0.00  0.00    +0.000 A 
ENDBRANCH   1  14
BRANCH   7  17
ATOM     17  C   UNL     1       9.832  12.354  20.466  0.00  0.00    +0.000 A 
ATOM     18  C   UNL     1      11.180  12.006  20.596  0.00  0.00    +0.000 A 
ATOM     19  C   UNL     1      11.937  11.660  19.471  0.00  0.00    +0.000 A 
ATOM     20  C   UNL     1      11.333  11.576  18.219  0.00  0.00    +0.000 A 
ATOM     21  C   UNL     1       9.964  11.799  18.097  0.00  0.00    +0.000 A 
ATOM     22  C   UNL     1       9.218  12.187  19.213  0.00  0.00    +0.000 A 
ENDBRANCH   7  17
BRANCH   9  23
ATOM     23  C   UNL     1       7.311  12.281  24.569  0.00  0.00    +0.000 A 
ATOM     24  C   UNL     1       7.843  12.486  25.851  0.00  0.00    +0.000 A 
ATOM     25  C   UNL     1       7.209  11.943  26.979  0.00  0.00    +0.000 A 
ATOM     26  C   UNL     1       6.051  11.181  26.831  0.00  0.00    +0.000 A 
ATOM     27  C   UNL     1       5.532  10.950  25.564  0.00  0.00    +0.000 A 
ATOM     28  C   UNL     1       6.156  11.495  24.437  0.00  0.00    +0.000 A 
ENDBRANCH   9  23
TORSDOF 3
ENDMDL
MODEL 3
REMARK VINA RESULT:      -7.1      4.980     10.145
REMARK  Name = 
REMARK  3 active torsions:
REMARK  status: ('A' for Active; 'I' for Inactive)
REMARK    1  A    between atoms: C_5  and  C_6
REMARK    2  A    between atoms: C_12  and  C_13
REMARK    3  A    between atoms: N_20  and  C_21
REMARK                            x       y       z     vdW  Elec       q    Type
REMARK                         _______ _______ _______ _____ _____    ______ ____
ROOT
ATOM      1  C   UNL     1      -0.215  14.578  22.508  0.00  0.00    +0.000 A 
ATOM      2  C   UNL     1       1.059  15.104  22.204  0.00  0.00    +0.000 A 
ATOM      3  C   UNL     1       1.940  14.385  21.427  0.00  0.00    +0.000 A 
ATOM      4  N   UNL     1       1.699  13.170  20.932  0.00  0.00    +0.000 NA
ATOM      5  C   UNL     1       0.477  12.664  21.222  0.00  0.00    +0.000 A 
ATOM      6  C   UNL     1      -0.533  13.297  21.954  0.00  0.00    +0.000 A 
ATOM      7  C   UNL     1      -1.634  12.366  21.883  0.00  0.00    +0.000 A 
ATOM      8  N   UNL     1      -1.287  11.239  21.238  0.00  0.00    +0.000 NA
ATOM      9  N   UNL     1       0.001  11.418  20.841  0.00  0.00    +0.000 N 
ENDROOT
BRANCH   1  14
ATOM     10  F   UNL     1      -3.925  17.442  25.620  0.00  0.00    +0.000 F 
ATOM     11  C   UNL     1      -2.993  16.812  24.892  0.00  0.00    +0.000 A 
ATOM     12  C   UNL     1      -2.930  17.031  23.525  0.00  0.00    +0.000 A 
ATOM     13  C   UNL     1      -2.012  16.307  22.758  0.00  0.00    +0.000 A 
ATOM     14  C   UNL     1      -1.131  15.374  23.347  0.00  0.00    +0.000 A 
ATOM     15  C   UNL     1      -1.157  15.257  24.747  0.00  0.00    +0.000 A 
ATOM     16  C   UNL     1      -2.111  15.940  25.511  0.00  0.00    +0.000 A 
ENDBRANCH   1  14
BRANCH   7  17
ATOM     17  C   UNL     1      -2.996  12.463  22.432  0.00  0.00    +0.000 A 
ATOM     18  C   UNL     1      -4.092  12.773  21.621  0.00  0.00    +0.000 A 
ATOM     19  C   UNL     1      -5.338  13.066  22.190  0.00  0.00    +0.000 A 
ATOM     20  C   UNL     1      -5.519  12.969  23.567  0.00  0.00    +0.000 A 
ATOM     21  C   UNL     1      -4.467  12.541  24.373  0.00  0.00    +0.000 A 
ATOM     22  C   UNL     1      -3.213  12.291  23.809  0.00  0.00    +0.000 A 
ENDBRANCH   7  17
BRANCH   9  23
ATOM     23  C   UNL     1       0.679  10.373  20.126  0.00  0.00    +0.000 A 
ATOM     24  C   UNL     1       1.065   9.207  20.803  0.00  0.00    +0.000 A 
ATOM     25  C   UNL     1       1.693   8.159  20.113  0.00  0.00    +0.000 A 
ATOM     26  C   UNL     1       1.951   8.276  18.748  0.00  0.00    +0.000 A 
ATOM     27  C   UNL     1       1.596   9.438  18.075  0.00  0.00    +0.000 A 
ATOM     28  C   UNL     1       0.965  10.482  18.756  0.00  0.00    +0.000 A 
ENDBRANCH   9  23
TORSDOF 3
ENDMDL
MODEL 4
REMARK VINA RESULT:      -7.0      4.189      9.302
REMARK  Name = 
REMARK  3 active torsions:
REMARK  status: ('A' for Active; 'I' for Inactive)
REMARK    1  A    between atoms: C_5  and  C_6
REMARK    2  A    between atoms: C_12  and  C_13
REMARK    3  A    between atoms: N_20  and  C_21
REMARK                            x       y       z     vdW  Elec       q    Type
REMARK                         _______ _______ _______ _____ _____    ______ ____
ROOT
ATOM      1  C   UNL     1      -0.724  11.628  22.132  0.00  0.00    +0.000 A 
ATOM      2  C   UNL     1      -1.041  10.627  23.075  0.00  0.00    +0.000 A 
ATOM      3  C   UNL     1      -0.553   9.349  22.921  0.00  0.00    +0.000 A 
ATOM      4  N   UNL     1       0.206   8.942  21.902  0.00  0.00    +0.000 NA
ATOM      5  C   UNL     1       0.511   9.902  20.996  0.00  0.00    +0.000 A 
ATOM      6  C   UNL     1       0.130  11.246  21.049  0.00  0.00    +0.000 A 
ATOM      7  C   UNL     1       0.790  11.828  19.905  0.00  0.00    +0.000 A 
ATOM      8  N   UNL     1       1.440  10.899  19.184  0.00  0.00    +0.000 NA
ATOM      9  N   UNL     1       1.265   9.724  19.845  0.00  0.00    +0.000 N 
ENDROOT
BRANCH   1  14
ATOM     10  F   UNL     1      -2.680  16.880  22.620  0.00  0.00    +0.000 F 
ATOM     11  C   UNL     1      -2.233  15.619  22.573  0.00  0.00    +0.000 A 
ATOM     12  C   UNL     1      -0.897  15.356  22.835  0.00  0.00    +0.000 A 
ATOM     13  C   UNL     1      -0.418  14.050  22.701  0.00  0.00    +0.000 A 
ATOM     14  C   UNL     1      -1.267  12.986  22.327  0.00  0.00    +0.000 A 
ATOM     15  C   UNL     1      -2.633  13.276  22.170  0.00  0.00    +0.000 A 
ATOM     16  C   UNL     1      -3.106  14.591  22.251  0.00  0.00    +0.000 A 
ENDBRANCH   1  14
BRANCH   7  17
ATOM     17  C   UNL     1       0.809  13.219  19.424  0.00  0.00    +0.000 A 
ATOM     18  C   UNL     1       1.982  13.981  19.428  0.00  0.00    +0.000 A 
ATOM     19  C   UNL     1       1.939  15.355  19.168  0.00  0.00    +0.000 A 
ATOM     20  C   UNL     1       0.737  15.965  18.819  0.00  0.00    +0.000 A 
ATOM     21  C   UNL     1      -0.416  15.194  18.691  0.00  0.00    +0.000 A 
ATOM     22  C   UNL     1      -0.381  13.830  18.994  0.00  0.00    +0.000 A 
ENDBRANCH   7  17
BRANCH   9  23
ATOM     23  C   UNL     1       1.833   8.515  19.317  0.00  0.00    +0.000 A 
ATOM     24  C   UNL     1       2.308   8.490  17.998  0.00  0.00    +0.000 A 
ATOM     25  C   UNL     1       2.903   7.330  17.478  0.00  0.00    +0.000 A 
ATOM     26  C   UNL     1       3.014   6.187  18.269  0.00  0.00    +0.000 A 
ATOM     27  C   UNL     1       2.523   6.194  19.567  0.00  0.00    +0.000 A 
ATOM     28  C   UNL     1       1.936   7.349  20.092  0.00  0.00    +0.000 A 
ENDBRANCH   9  23
TORSDOF 3
ENDMDL
MODEL 5
REMARK VINA RESULT:      -6.9      4.485      9.146
REMARK  Name = 
REMARK  3 active torsions:
REMARK  status: ('A' for Active; 'I' for Inactive)
REMARK    1  A    between atoms: C_5  and  C_6
REMARK    2  A    between atoms: C_12  and  C_13
REMARK    3  A    between atoms: N_20  and  C_21
REMARK                            x       y       z     vdW  Elec       q    Type
REMARK                         _______ _______ _______ _____ _____    ______ ____
ROOT
ATOM      1  C   UNL     1       0.651  13.989  19.500  0.00  0.00    +0.000 A 
ATOM      2  C   UNL     1       1.780  14.276  18.704  0.00  0.00    +0.000 A 
ATOM      3  C   UNL     1       2.546  13.255  18.190  0.00  0.00    +0.000 A 
ATOM      4  N   UNL     1       2.325  11.957  18.405  0.00  0.00    +0.000 NA
ATOM      5  C   UNL     1       1.242  11.678  19.169  0.00  0.00    +0.000 A 
ATOM      6  C   UNL     1       0.349  12.606  19.714  0.00  0.00    +0.000 A 
ATOM      7  C   UNL     1      -0.650  11.779  20.347  0.00  0.00    +0.000 A 
ATOM      8  N   UNL     1      -0.339  10.474  20.261  0.00  0.00    +0.000 NA
ATOM      9  N   UNL     1       0.817  10.414  19.548  0.00  0.00    +0.000 N 
ENDROOT
BRANCH   1  14
ATOM     10  F   UNL     1      -2.621  18.121  21.465  0.00  0.00    +0.000 F 
ATOM     11  C   UNL     1      -1.785  17.180  21.008  0.00  0.00    +0.000 A 
ATOM     12  C   UNL     1      -1.534  17.091  19.648  0.00  0.00    +0.000 A 
ATOM     13  C   UNL     1      -0.728  16.055  19.167  0.00  0.00    +0.000 A 
ATOM     14  C   UNL     1      -0.145  15.109  20.038  0.00  0.00    +0.000 A 
ATOM     15  C   UNL     1      -0.341  15.295  21.417  0.00  0.00    +0.000 A 
ATOM     16  C   UNL     1      -1.190  16.298  21.896  0.00  0.00    +0.000 A 
ENDBRANCH   1  14
BRANCH   7  17
ATOM     17  C   UNL     1      -1.874  12.155  21.073  0.00  0.00    +0.000 A 
ATOM     18  C   UNL     1      -2.963  12.740  20.420  0.00  0.00    +0.000 A 
ATOM     19  C   UNL     1      -4.027  13.280  21.153  0.00  0.00    +0.000 A 
ATOM     20  C   UNL     1      -4.051  13.164  22.541  0.00  0.00    +0.000 A 
ATOM     21  C   UNL     1      -3.032  12.474  23.194  0.00  0.00    +0.000 A 
ATOM     22  C   UNL     1      -1.950  11.974  22.465  0.00  0.00    +0.000 A 
ENDBRANCH   7  17
BRANCH   9  23
ATOM     23  C   UNL     1       1.430   9.141  19.289  0.00  0.00    +0.000 A 
ATOM     24  C   UNL     1       1.597   8.224  20.337  0.00  0.00    +0.000 A 
ATOM     25  C   UNL     1       2.157   6.961  20.094  0.00  0.00    +0.000 A 
ATOM     26  C   UNL     1       2.566   6.612  18.808  0.00  0.00    +0.000 A 
ATOM     27  C   UNL     1       2.429   7.523  17.769  0.00  0.00    +0.000 A 
ATOM     28  C   UNL     1       1.866   8.780  18.004  0.00  0.00    +0.000 A 
ENDBRANCH   9  23
TORSDOF 3
ENDMDL
MODEL 6
REMARK VINA RESULT:      -6.9      8.864     10.687
REMARK  Name = 
REMARK  3 active torsions:
REMARK  status: ('A' for Active; 'I' for Inactive)
REMARK    1  A    between atoms: C_5  and  C_6
REMARK    2  A    between atoms: C_12  and  C_13
REMARK    3  A    between atoms: N_20  and  C_21
REMARK                            x       y       z     vdW  Elec       q    Type
REMARK                         _______ _______ _______ _____ _____    ______ ____
ROOT
ATOM      1  C   UNL     1       8.202  15.274  21.403  0.00  0.00    +0.000 A 
ATOM      2  C   UNL     1       7.543  16.344  22.046  0.00  0.00    +0.000 A 
ATOM      3  C   UNL     1       6.944  16.155  23.271  0.00  0.00    +0.000 A 
ATOM      4  N   UNL     1       6.905  14.993  23.927  0.00  0.00    +0.000 NA
ATOM      5  C   UNL     1       7.536  13.965  23.312  0.00  0.00    +0.000 A 
ATOM      6  C   UNL     1       8.226  14.022  22.096  0.00  0.00    +0.000 A 
ATOM      7  C   UNL     1       8.772  12.692  21.958  0.00  0.00    +0.000 A 
ATOM      8  N   UNL     1       8.374  11.888  22.959  0.00  0.00    +0.000 NA
ATOM      9  N   UNL     1       7.616  12.662  23.780  0.00  0.00    +0.000 N 
ENDROOT
BRANCH   1  14
ATOM     10  F   UNL     1      10.472  16.439  16.389  0.00  0.00    +0.000 F 
ATOM     11  C   UNL     1       9.952  16.093  17.574  0.00  0.00    +0.000 A 
ATOM     12  C   UNL     1       8.616  15.734  17.656  0.00  0.00    +0.000 A 
ATOM     13  C   UNL     1       8.058  15.456  18.907  0.00  0.00    +0.000 A 
ATOM     14  C   UNL     1       8.829  15.511  20.089  0.00  0.00    +0.000 A 
ATOM     15  C   UNL     1      10.202  15.779  19.951  0.00  0.00    +0.000 A 
ATOM     16  C   UNL     1      10.751  16.109  18.707  0.00  0.00    +0.000 A 
ENDBRANCH   1  14
BRANCH   7  17
ATOM     17  C   UNL     1       9.622  12.120  20.902  0.00  0.00    +0.000 A 
ATOM     18  C   UNL     1      11.005  12.324  20.882  0.00  0.00    +0.000 A 
ATOM     19  C   UNL     1      11.764  11.953  19.766  0.00  0.00    +0.000 A 
ATOM     20  C   UNL     1      11.161  11.299  18.695  0.00  0.00    +0.000 A 
ATOM     21  C   UNL     1       9.807  10.979  18.756  0.00  0.00    +0.000 A 
ATOM     22  C   UNL     1       9.041  11.389  19.851  0.00  0.00    +0.000 A 
ENDBRANCH   7  17
BRANCH   9  23
ATOM     23  C   UNL     1       7.022  12.088  24.955  0.00  0.00    +0.000 A 
ATOM     24  C   UNL     1       5.875  11.290  24.832  0.00  0.00    +0.000 A 
ATOM     25  C   UNL     1       5.304  10.688  25.964  0.00  0.00    +0.000 A 
ATOM     26  C   UNL     1       5.866  10.891  27.223  0.00  0.00    +0.000 A 
ATOM     27  C   UNL     1       6.985  11.702  27.358  0.00  0.00    +0.000 A 
ATOM     28  C   UNL     1       7.563  12.298  26.233  0.00  0.00    +0.000 A 
ENDBRANCH   9  23
TORSDOF 3
ENDMDL
MODEL 7
REMARK VINA RESULT:      -6.9      4.400      9.546
REMARK  Name = 
REMARK  3 active torsions:
REMARK  status: ('A' for Active; 'I' for Inactive)
REMARK    1  A    between atoms: C_5  and  C_6
REMARK    2  A    between atoms: C_12  and  C_13
REMARK    3  A    between atoms: N_20  and  C_21
REMARK                            x       y       z     vdW  Elec       q    Type
REMARK                         _______ _______ _______ _____ _____    ______ ____
ROOT
ATOM      1  C   UNL     1      -0.842  12.048  22.206  0.00  0.00    +0.000 A 
ATOM      2  C   UNL     1      -1.191  11.054  23.145  0.00  0.00    +0.000 A 
ATOM      3  C   UNL     1      -0.735   9.765  22.995  0.00  0.00    +0.000 A 
ATOM      4  N   UNL     1       0.023   9.340  21.981  0.00  0.00    +0.000 NA
ATOM      5  C   UNL     1       0.359  10.291  21.079  0.00  0.00    +0.000 A 
ATOM      6  C   UNL     1       0.012  11.645  21.129  0.00  0.00    +0.000 A 
ATOM      7  C   UNL     1       0.696  12.211  19.991  0.00  0.00    +0.000 A 
ATOM      8  N   UNL     1       1.328  11.265  19.275  0.00  0.00    +0.000 NA
ATOM      9  N   UNL     1       1.118  10.095  19.934  0.00  0.00    +0.000 N 
ENDROOT
BRANCH   1  14
ATOM     10  F   UNL     1      -2.922  17.185  23.170  0.00  0.00    +0.000 F 
ATOM     11  C   UNL     1      -2.406  15.985  22.875  0.00  0.00    +0.000 A 
ATOM     12  C   UNL     1      -3.221  15.004  22.332  0.00  0.00    +0.000 A 
ATOM     13  C   UNL     1      -2.699  13.728  22.106  0.00  0.00    +0.000 A 
ATOM     14  C   UNL     1      -1.352  13.419  22.396  0.00  0.00    +0.000 A 
ATOM     15  C   UNL     1      -0.533  14.468  22.849  0.00  0.00    +0.000 A 
ATOM     16  C   UNL     1      -1.066  15.731  23.127  0.00  0.00    +0.000 A 
ENDBRANCH   1  14
BRANCH   7  17
ATOM     17  C   UNL     1       0.753  13.601  19.511  0.00  0.00    +0.000 A 
ATOM     18  C   UNL     1       1.952  14.321  19.491  0.00  0.00    +0.000 A 
ATOM     19  C   UNL     1       1.952  15.696  19.233  0.00  0.00    +0.000 A 
ATOM     20  C   UNL     1       0.765  16.349  18.910  0.00  0.00    +0.000 A 
ATOM     21  C   UNL     1      -0.417  15.619  18.805  0.00  0.00    +0.000 A 
ATOM     22  C   UNL     1      -0.423  14.254  19.106  0.00  0.00    +0.000 A 
ENDBRANCH   7  17
BRANCH   9  23
ATOM     23  C   UNL     1       1.660   8.873  19.410  0.00  0.00    +0.000 A 
ATOM     24  C   UNL     1       1.826   7.768  20.258  0.00  0.00    +0.000 A 
ATOM     25  C   UNL     1       2.316   6.553  19.756  0.00  0.00    +0.000 A 
ATOM     26  C   UNL     1       2.656   6.440  18.409  0.00  0.00    +0.000 A 
ATOM     27  C   UNL     1       2.520   7.536  17.567  0.00  0.00    +0.000 A 
ATOM     28  C   UNL     1       2.026   8.746  18.061  0.00  0.00    +0.000 A 
ENDBRANCH   9  23
TORSDOF 3
ENDMDL
MODEL 8
REMARK VINA RESULT:      -6.8      4.335      9.568
REMARK  Name = 
REMARK  3 active torsions:
REMARK  status: ('A' for Active; 'I' for Inactive)
REMARK    1  A    between atoms: C_5  and  C_6
REMARK    2  A    between atoms: C_12  and  C_13
REMARK    3  A    between atoms: N_20  and  C_21
REMARK                            x       y       z     vdW  Elec       q    Type
REMARK                         _______ _______ _______ _____ _____    ______ ____
ROOT
ATOM      1  C   UNL     1      -0.894  11.877  22.324  0.00  0.00    +0.000 A 
ATOM      2  C   UNL     1      -1.229  10.825  23.202  0.00  0.00    +0.000 A 
ATOM      3  C   UNL     1      -0.744   9.556  22.982  0.00  0.00    +0.000 A 
ATOM      4  N   UNL     1       0.029   9.205  21.953  0.00  0.00    +0.000 NA
ATOM      5  C   UNL     1       0.351  10.214  21.108  0.00  0.00    +0.000 A 
ATOM      6  C   UNL     1      -0.025  11.555  21.233  0.00  0.00    +0.000 A 
ATOM      7  C   UNL     1       0.655  12.198  20.134  0.00  0.00    +0.000 A 
ATOM      8  N   UNL     1       1.312  11.309  19.371  0.00  0.00    +0.000 NA
ATOM      9  N   UNL     1       1.122  10.099  19.961  0.00  0.00    +0.000 N 
ENDROOT
BRANCH   1  14
ATOM     10  F   UNL     1      -2.828  17.104  23.090  0.00  0.00    +0.000 F 
ATOM     11  C   UNL     1      -2.390  15.844  22.974  0.00  0.00    +0.000 A 
ATOM     12  C   UNL     1      -1.071  15.548  23.282  0.00  0.00    +0.000 A 
ATOM     13  C   UNL     1      -0.596  14.249  23.079  0.00  0.00    +0.000 A 
ATOM     14  C   UNL     1      -1.435  13.224  22.588  0.00  0.00    +0.000 A 
ATOM     15  C   UNL     1      -2.789  13.541  22.386  0.00  0.00    +0.000 A 
ATOM     16  C   UNL     1      -3.254  14.853  22.537  0.00  0.00    +0.000 A 
ENDBRANCH   1  14
BRANCH   7  17
ATOM     17  C   UNL     1       0.686  13.615  19.736  0.00  0.00    +0.000 A 
ATOM     18  C   UNL     1      -0.469  14.287  19.325  0.00  0.00    +0.000 A 
ATOM     19  C   UNL     1      -0.386  15.562  18.753  0.00  0.00    +0.000 A 
ATOM     20  C   UNL     1       0.842  16.211  18.664  0.00  0.00    +0.000 A 
ATOM     21  C   UNL     1       1.983  15.603  19.183  0.00  0.00    +0.000 A 
ATOM     22  C   UNL     1       1.906  14.312  19.714  0.00  0.00    +0.000 A 
ENDBRANCH   7  17
BRANCH   9  23
ATOM     23  C   UNL     1       1.694   8.920  19.372  0.00  0.00    +0.000 A 
ATOM     24  C   UNL     1       2.066   8.930  18.020  0.00  0.00    +0.000 A 
ATOM     25  C   UNL     1       2.664   7.801  17.439  0.00  0.00    +0.000 A 
ATOM     26  C   UNL     1       2.878   6.653  18.201  0.00  0.00    +0.000 A 
ATOM     27  C   UNL     1       2.488   6.625  19.533  0.00  0.00    +0.000 A 
ATOM     28  C   UNL     1       1.899   7.749  20.119  0.00  0.00    +0.000 A 
ENDBRANCH   9  23
TORSDOF 3
ENDMDL
MODEL 9
REMARK VINA RESULT:      -6.7      4.471      9.056
REMARK  Name = 
REMARK  3 active torsions:
REMARK  status: ('A' for Active; 'I' for Inactive)
REMARK    1  A    between atoms: C_5  and  C_6
REMARK    2  A    between atoms: C_12  and  C_13
REMARK    3  A    between atoms: N_20  and  C_21
REMARK                            x       y       z     vdW  Elec       q    Type
REMARK                         _______ _______ _______ _____ _____    ______ ____
ROOT
ATOM      1  C   UNL     1       0.792  13.858  19.304  0.00  0.00    +0.000 A 
ATOM      2  C   UNL     1       1.909  14.060  18.465  0.00  0.00    +0.000 A 
ATOM      3  C   UNL     1       2.630  12.985  17.998  0.00  0.00    +0.000 A 
ATOM      4  N   UNL     1       2.376  11.710  18.300  0.00  0.00    +0.000 NA
ATOM      5  C   UNL     1       1.306  11.514  19.106  0.00  0.00    +0.000 A 
ATOM      6  C   UNL     1       0.454  12.501  19.612  0.00  0.00    +0.000 A 
ATOM      7  C   UNL     1      -0.552  11.747  20.320  0.00  0.00    +0.000 A 
ATOM      8  N   UNL     1      -0.282  10.430  20.309  0.00  0.00    +0.000 NA
ATOM      9  N   UNL     1       0.853  10.289  19.575  0.00  0.00    +0.000 N 
ENDROOT
BRANCH   1  14
ATOM     10  F   UNL     1      -1.809  18.473  21.197  0.00  0.00    +0.000 F 
ATOM     11  C   UNL     1      -1.253  17.340  20.749  0.00  0.00    +0.000 A 
ATOM     12  C   UNL     1      -0.675  16.458  21.650  0.00  0.00    +0.000 A 
ATOM     13  C   UNL     1      -0.022  15.320  21.170  0.00  0.00    +0.000 A 
ATOM     14  C   UNL     1       0.044  15.033  19.789  0.00  0.00    +0.000 A 
ATOM     15  C   UNL     1      -0.641  15.897  18.918  0.00  0.00    +0.000 A 
ATOM     16  C   UNL     1      -1.249  17.066  19.390  0.00  0.00    +0.000 A 
ENDBRANCH   1  14
BRANCH   7  17
ATOM     17  C   UNL     1      -1.745  12.205  21.050  0.00  0.00    +0.000 A 
ATOM     18  C   UNL     1      -1.857  12.061  22.436  0.00  0.00    +0.000 A 
ATOM     19  C   UNL     1      -3.074  12.308  23.081  0.00  0.00    +0.000 A 
ATOM     20  C   UNL     1      -4.166  12.783  22.360  0.00  0.00    +0.000 A 
ATOM     21  C   UNL     1      -4.031  13.048  20.999  0.00  0.00    +0.000 A 
ATOM     22  C   UNL     1      -2.828  12.760  20.348  0.00  0.00    +0.000 A 
ENDBRANCH   7  17
BRANCH   9  23
ATOM     23  C   UNL     1       1.422   8.984  19.381  0.00  0.00    +0.000 A 
ATOM     24  C   UNL     1       1.861   8.601  18.105  0.00  0.00    +0.000 A 
ATOM     25  C   UNL     1       2.455   7.345  17.906  0.00  0.00    +0.000 A 
ATOM     26  C   UNL     1       2.601   6.463  18.975  0.00  0.00    +0.000 A 
ATOM     27  C   UNL     1       2.146   6.823  20.236  0.00  0.00    +0.000 A 
ATOM     28  C   UNL     1       1.559   8.075  20.442  0.00  0.00    +0.000 A 
ENDBRANCH   9  23
TORSDOF 3
ENDMDL
