MODEL 1
REMARK VINA RESULT:      -6.7      0.000      0.000
REMARK  Name = 
REMARK  14 active torsions:
REMARK  status: ('A' for Active; 'I' for Inactive)
REMARK    1  A    between atoms: C_1  and  C_2
REMARK    2  A    between atoms: C_2  and  C_4
REMARK    3  A    between atoms: C_4  and  C_5
REMARK    4  A    between atoms: C_4  and  C_6
REMARK    5  A    between atoms: C_6  and  C_7
REMARK    6  A    between atoms: C_8  and  C_9
REMARK    7  A    between atoms: C_9  and  O_11
REMARK    8  A    between atoms: O_11  and  C_12
REMARK    9  A    between atoms: C_13  and  C_14
REMARK   10  A    between atoms: C_18  and  O_19
REMARK   11  A    between atoms: C_20  and  O_21
REMARK   12  A    between atoms: C_27  and  C_28
REMARK   13  A    between atoms: C_27  and  C_29
REMARK   14  A    between atoms: C_32  and  C_33
REMARK                            x       y       z     vdW  Elec       q    Type
REMARK                         _______ _______ _______ _____ _____    ______ ____
ROOT
ATOM      1  C   UNL     1      -4.526  13.625  21.618  0.00  0.00    +0.000 C 
ATOM      2  C   UNL     1      -5.661  13.600  20.552  0.00  0.00    +0.000 C 
ATOM      3  C   UNL     1      -7.001  14.277  20.730  0.00  0.00    +0.000 C 
ATOM      4  C   UNL     1      -5.733  12.190  19.992  0.00  0.00    +0.000 C 
ATOM      5  C   UNL     1      -4.507  12.070  19.084  0.00  0.00    +0.000 C 
ATOM      6  O   UNL     1      -3.348  12.275  19.884  0.00  0.00    +0.000 OA
ATOM      7  C   UNL     1      -3.225  13.486  20.704  0.00  0.00    +0.000 C 
ATOM      8  C   UNL     1      -1.837  13.409  21.465  0.00  0.00    +0.000 C 
ATOM      9  C   UNL     1      -0.677  13.313  20.430  0.00  0.00    +0.000 C 
ATOM     10  C   UNL     1       0.766  13.204  20.918  0.00  0.00    +0.000 C 
ATOM     11  C   UNL     1       1.342  11.956  20.238  0.00  0.00    +0.000 C 
ATOM     12  C   UNL     1       0.330  11.625  19.160  0.00  0.00    +0.000 C 
ATOM     13  O   UNL     1      -0.889  12.106  19.708  0.00  0.00    +0.000 OA
ATOM     14  C   UNL     1       0.058  10.149  18.735  0.00  0.00    +0.000 C 
ATOM     15  C   UNL     1       1.263   9.543  18.018  0.00  0.00    +0.000 C 
ATOM     16  C   UNL     1      -0.293   9.268  19.956  0.00  0.00    +0.000 C 
ATOM     17  C   UNL     1      -1.109  10.268  17.734  0.00  0.00    +0.000 C 
ATOM     18  C   UNL     1      -2.373   9.866  17.947  0.00  0.00    +0.000 C 
ATOM     19  C   UNL     1      -3.593  10.369  17.221  0.00  0.00    +0.000 C 
ATOM     20  C   UNL     1      -3.405  11.498  16.210  0.00  0.00    +0.000 C 
ATOM     21  C   UNL     1      -4.622  10.727  18.303  0.00  0.00    +0.000 C 
ATOM     22  O   UNL     1      -5.541   9.927  18.534  0.00  0.00    +0.000 OA
ENDROOT
BRANCH   7  23
ATOM     23  O   UNL     1      -3.120  14.666  19.871  0.00  0.00    +0.000 OA
ATOM     24  H   UNL     1      -3.955  15.162  19.944  0.00  0.00    +0.000 HD
ENDBRANCH   7  23
BRANCH   8  25
ATOM     25  O   UNL     1      -1.782  12.259  22.320  0.00  0.00    +0.000 OA
ATOM     26  H   UNL     1      -2.716  12.155  22.603  0.00  0.00    +0.000 HD
ENDBRANCH   8  25
BRANCH   1  27
ATOM     27  O   UNL     1      -4.589  12.529  22.575  0.00  0.00    +0.000 OA
BRANCH  27  28
ATOM     28  C   UNL     1      -4.897  12.788  23.869  0.00  0.00    +0.000 C 
ATOM     29  O   UNL     1      -5.861  12.332  24.468  0.00  0.00    +0.000 OA
BRANCH  28  32
ATOM     30  C   UNL     1      -4.042  15.090  24.568  0.00  0.00    +0.000 C 
ATOM     31  C   UNL     1      -5.316  15.792  24.163  0.00  0.00    +0.000 C 
ATOM     32  C   UNL     1      -3.891  13.747  24.445  0.00  0.00    +0.000 C 
BRANCH  30  33
ATOM     33  C   UNL     1      -2.955  15.974  25.190  0.00  0.00    +0.000 C 
ATOM     34  C   UNL     1      -3.367  17.452  25.234  0.00  0.00    +0.000 C 
BRANCH  33  36
ATOM     35  C   UNL     1      -1.403  16.659  23.211  0.00  0.00    +0.000 C 
ATOM     36  C   UNL     1      -1.590  15.860  24.473  0.00  0.00    +0.000 C 
ATOM     37  O   UNL     1      -0.672  15.159  24.908  0.00  0.00    +0.000 OA
ENDBRANCH  33  36
ENDBRANCH  30  33
ENDBRANCH  28  32
ENDBRANCH  27  28
ENDBRANCH   1  27
TORSDOF 7
ENDMDL
MODEL 2
REMARK VINA RESULT:      -6.6      2.805      8.036
REMARK  Name = 
REMARK  14 active torsions:
REMARK  status: ('A' for Active; 'I' for Inactive)
REMARK    1  A    between atoms: C_1  and  C_2
REMARK    2  A    between atoms: C_2  and  C_4
REMARK    3  A    between atoms: C_4  and  C_5
REMARK    4  A    between atoms: C_4  and  C_6
REMARK    5  A    between atoms: C_6  and  C_7
REMARK    6  A    between atoms: C_8  and  C_9
REMARK    7  A    between atoms: C_9  and  O_11
REMARK    8  A    between atoms: O_11  and  C_12
REMARK    9  A    between atoms: C_13  and  C_14
REMARK   10  A    between atoms: C_18  and  O_19
REMARK   11  A    between atoms: C_20  and  O_21
REMARK   12  A    between atoms: C_27  and  C_28
REMARK   13  A    between atoms: C_27  and  C_29
REMARK   14  A    between atoms: C_32  and  C_33
REMARK                            x       y       z     vdW  Elec       q    Type
REMARK                         _______ _______ _______ _____ _____    ______ ____
ROOT
ATOM      1  C   UNL     1       0.557  10.971  19.471  0.00  0.00    +0.000 C 
ATOM      2  C   UNL     1       0.809  12.050  20.565  0.00  0.00    +0.000 C 
ATOM      3  C   UNL     1       2.157  12.308  21.200  0.00  0.00    +0.000 C 
ATOM      4  C   UNL     1      -0.351  11.991  21.543  0.00  0.00    +0.000 C 
ATOM      5  C   UNL     1      -1.522  12.634  20.795  0.00  0.00    +0.000 C 
ATOM      6  O   UNL     1      -1.765  11.866  19.621  0.00  0.00    +0.000 OA
ATOM      7  C   UNL     1      -0.674  11.602  18.676  0.00  0.00    +0.000 C 
ATOM      8  C   UNL     1      -1.267  10.731  17.493  0.00  0.00    +0.000 C 
ATOM      9  C   UNL     1      -2.430  11.506  16.804  0.00  0.00    +0.000 C 
ATOM     10  C   UNL     1      -3.185  10.863  15.642  0.00  0.00    +0.000 C 
ATOM     11  C   UNL     1      -4.667  10.909  16.031  0.00  0.00    +0.000 C 
ATOM     12  C   UNL     1      -4.708  11.862  17.209  0.00  0.00    +0.000 C 
ATOM     13  O   UNL     1      -3.427  11.693  17.801  0.00  0.00    +0.000 OA
ATOM     14  C   UNL     1      -5.741  11.676  18.361  0.00  0.00    +0.000 C 
ATOM     15  C   UNL     1      -7.167  11.950  17.882  0.00  0.00    +0.000 C 
ATOM     16  C   UNL     1      -5.677  10.248  18.950  0.00  0.00    +0.000 C 
ATOM     17  C   UNL     1      -5.345  12.758  19.385  0.00  0.00    +0.000 C 
ATOM     18  C   UNL     1      -4.785  12.538  20.586  0.00  0.00    +0.000 C 
ATOM     19  C   UNL     1      -3.981  13.532  21.382  0.00  0.00    +0.000 C 
ATOM     20  C   UNL     1      -3.693  14.889  20.742  0.00  0.00    +0.000 C 
ATOM     21  C   UNL     1      -2.695  12.808  21.804  0.00  0.00    +0.000 C 
ATOM     22  O   UNL     1      -2.615  12.373  22.962  0.00  0.00    +0.000 OA
ENDROOT
BRANCH   7  23
ATOM     23  O   UNL     1      -0.232  12.828  18.041  0.00  0.00    +0.000 OA
ATOM     24  H   UNL     1      -0.015  13.469  18.742  0.00  0.00    +0.000 HD
ENDBRANCH   7  23
BRANCH   8  25
ATOM     25  O   UNL     1      -1.776   9.482  17.978  0.00  0.00    +0.000 OA
ATOM     26  H   UNL     1      -1.267   9.349  18.807  0.00  0.00    +0.000 HD
ENDBRANCH   8  25
BRANCH   1  27
ATOM     27  O   UNL     1       0.195   9.663  20.002  0.00  0.00    +0.000 OA
BRANCH  27  28
ATOM     28  C   UNL     1       1.162   8.853  20.499  0.00  0.00    +0.000 C 
ATOM     29  O   UNL     1       1.458   8.755  21.681  0.00  0.00    +0.000 OA
BRANCH  28  32
ATOM     30  C   UNL     1       2.146   6.798  19.347  0.00  0.00    +0.000 C 
ATOM     31  C   UNL     1       1.794   5.872  20.486  0.00  0.00    +0.000 C 
ATOM     32  C   UNL     1       1.833   8.119  19.371  0.00  0.00    +0.000 C 
BRANCH  30  33
ATOM     33  C   UNL     1       2.816   6.146  18.133  0.00  0.00    +0.000 C 
ATOM     34  C   UNL     1       2.237   4.756  17.830  0.00  0.00    +0.000 C 
BRANCH  33  36
ATOM     35  C   UNL     1       5.194   6.631  17.183  0.00  0.00    +0.000 C 
ATOM     36  C   UNL     1       4.351   6.025  18.272  0.00  0.00    +0.000 C 
ATOM     37  O   UNL     1       4.885   5.469  19.236  0.00  0.00    +0.000 OA
ENDBRANCH  33  36
ENDBRANCH  30  33
ENDBRANCH  28  32
ENDBRANCH  27  28
ENDBRANCH   1  27
TORSDOF 7
ENDMDL
MODEL 3
REMARK VINA RESULT:      -6.6      0.959      1.207
REMARK  Name = 
REMARK  14 active torsions:
REMARK  status: ('A' for Active; 'I' for Inactive)
REMARK    1  A    between atoms: C_1  and  C_2
REMARK    2  A    between atoms: C_2  and  C_4
REMARK    3  A    between atoms: C_4  and  C_5
REMARK    4  A    between atoms: C_4  and  C_6
REMARK    5  A    between atoms: C_6  and  C_7
REMARK    6  A    between atoms: C_8  and  C_9
REMARK    7  A    between atoms: C_9  and  O_11
REMARK    8  A    between atoms: O_11  and  C_12
REMARK    9  A    between atoms: C_13  and  C_14
REMARK   10  A    between atoms: C_18  and  O_19
REMARK   11  A    between atoms: C_20  and  O_21
REMARK   12  A    between atoms: C_27  and  C_28
REMARK   13  A    between atoms: C_27  and  C_29
REMARK   14  A    between atoms: C_32  and  C_33
REMARK                            x       y       z     vdW  Elec       q    Type
REMARK                         _______ _______ _______ _____ _____    ______ ____
ROOT
ATOM      1  C   UNL     1      -4.790  13.694  21.669  0.00  0.00    +0.000 C 
ATOM      2  C   UNL     1      -5.908  13.646  20.586  0.00  0.00    +0.000 C 
ATOM      3  C   UNL     1      -7.260  14.303  20.741  0.00  0.00    +0.000 C 
ATOM      4  C   UNL     1      -5.949  12.233  20.032  0.00  0.00    +0.000 C 
ATOM      5  C   UNL     1      -4.708  12.128  19.143  0.00  0.00    +0.000 C 
ATOM      6  O   UNL     1      -3.564  12.354  19.960  0.00  0.00    +0.000 OA
ATOM      7  C   UNL     1      -3.473  13.571  20.776  0.00  0.00    +0.000 C 
ATOM      8  C   UNL     1      -2.096  13.519  21.558  0.00  0.00    +0.000 C 
ATOM      9  C   UNL     1      -0.918  13.436  20.541  0.00  0.00    +0.000 C 
ATOM     10  C   UNL     1       0.519  13.352  21.051  0.00  0.00    +0.000 C 
ATOM     11  C   UNL     1       1.124  12.110  20.387  0.00  0.00    +0.000 C 
ATOM     12  C   UNL     1       0.134  11.758  19.295  0.00  0.00    +0.000 C 
ATOM     13  O   UNL     1      -1.101  12.224  19.821  0.00  0.00    +0.000 OA
ATOM     14  C   UNL     1      -0.109  10.277  18.873  0.00  0.00    +0.000 C 
ATOM     15  C   UNL     1       1.116   9.686  18.177  0.00  0.00    +0.000 C 
ATOM     16  C   UNL     1      -0.464   9.396  20.093  0.00  0.00    +0.000 C 
ATOM     17  C   UNL     1      -1.261  10.373  17.854  0.00  0.00    +0.000 C 
ATOM     18  C   UNL     1      -2.522   9.953  18.050  0.00  0.00    +0.000 C 
ATOM     19  C   UNL     1      -3.739  10.432  17.303  0.00  0.00    +0.000 C 
ATOM     20  C   UNL     1      -3.554  11.559  16.289  0.00  0.00    +0.000 C 
ATOM     21  C   UNL     1      -4.790  10.780  18.368  0.00  0.00    +0.000 C 
ATOM     22  O   UNL     1      -5.699   9.966  18.588  0.00  0.00    +0.000 OA
ENDROOT
BRANCH   7  23
ATOM     23  O   UNL     1      -3.373  14.749  19.938  0.00  0.00    +0.000 OA
ATOM     24  H   UNL     1      -4.192  15.266  20.046  0.00  0.00    +0.000 HD
ENDBRANCH   7  23
BRANCH   8  25
ATOM     25  O   UNL     1      -2.036  12.374  22.419  0.00  0.00    +0.000 OA
ATOM     26  H   UNL     1      -2.978  12.227  22.649  0.00  0.00    +0.000 HD
ENDBRANCH   8  25
BRANCH   1  27
ATOM     27  O   UNL     1      -4.849  12.601  22.630  0.00  0.00    +0.000 OA
BRANCH  27  28
ATOM     28  C   UNL     1      -5.062  12.875  23.940  0.00  0.00    +0.000 C 
ATOM     29  O   UNL     1      -5.163  12.038  24.827  0.00  0.00    +0.000 OA
BRANCH  28  32
ATOM     30  C   UNL     1      -4.241  15.186  24.654  0.00  0.00    +0.000 C 
ATOM     31  C   UNL     1      -2.883  14.677  25.077  0.00  0.00    +0.000 C 
ATOM     32  C   UNL     1      -5.185  14.362  24.131  0.00  0.00    +0.000 C 
BRANCH  30  33
ATOM     33  C   UNL     1      -4.465  16.695  24.785  0.00  0.00    +0.000 C 
ATOM     34  C   UNL     1      -5.756  17.151  24.089  0.00  0.00    +0.000 C 
BRANCH  33  36
ATOM     35  C   UNL     1      -2.511  18.358  25.244  0.00  0.00    +0.000 C 
ATOM     36  C   UNL     1      -3.286  17.538  24.247  0.00  0.00    +0.000 C 
ATOM     37  O   UNL     1      -2.967  17.543  23.055  0.00  0.00    +0.000 OA
ENDBRANCH  33  36
ENDBRANCH  30  33
ENDBRANCH  28  32
ENDBRANCH  27  28
ENDBRANCH   1  27
TORSDOF 7
ENDMDL
MODEL 4
REMARK VINA RESULT:      -6.4      2.746      7.992
REMARK  Name = 
REMARK  14 active torsions:
REMARK  status: ('A' for Active; 'I' for Inactive)
REMARK    1  A    between atoms: C_1  and  C_2
REMARK    2  A    between atoms: C_2  and  C_4
REMARK    3  A    between atoms: C_4  and  C_5
REMARK    4  A    between atoms: C_4  and  C_6
REMARK    5  A    between atoms: C_6  and  C_7
REMARK    6  A    between atoms: C_8  and  C_9
REMARK    7  A    between atoms: C_9  and  O_11
REMARK    8  A    between atoms: O_11  and  C_12
REMARK    9  A    between atoms: C_13  and  C_14
REMARK   10  A    between atoms: C_18  and  O_19
REMARK   11  A    between atoms: C_20  and  O_21
REMARK   12  A    between atoms: C_27  and  C_28
REMARK   13  A    between atoms: C_27  and  C_29
REMARK   14  A    between atoms: C_32  and  C_33
REMARK                            x       y       z     vdW  Elec       q    Type
REMARK                         _______ _______ _______ _____ _____    ______ ____
ROOT
ATOM      1  C   UNL     1       0.450  10.896  19.589  0.00  0.00    +0.000 C 
ATOM      2  C   UNL     1       0.734  11.994  20.656  0.00  0.00    +0.000 C 
ATOM      3  C   UNL     1       2.085  12.220  21.294  0.00  0.00    +0.000 C 
ATOM      4  C   UNL     1      -0.435  12.005  21.625  0.00  0.00    +0.000 C 
ATOM      5  C   UNL     1      -1.576  12.670  20.850  0.00  0.00    +0.000 C 
ATOM      6  O   UNL     1      -1.839  11.880  19.696  0.00  0.00    +0.000 OA
ATOM      7  C   UNL     1      -0.751  11.550  18.767  0.00  0.00    +0.000 C 
ATOM      8  C   UNL     1      -1.368  10.669  17.603  0.00  0.00    +0.000 C 
ATOM      9  C   UNL     1      -2.497  11.467  16.884  0.00  0.00    +0.000 C 
ATOM     10  C   UNL     1      -3.266  10.821  15.733  0.00  0.00    +0.000 C 
ATOM     11  C   UNL     1      -4.748  10.931  16.110  0.00  0.00    +0.000 C 
ATOM     12  C   UNL     1      -4.762  11.917  17.261  0.00  0.00    +0.000 C 
ATOM     13  O   UNL     1      -3.493  11.717  17.867  0.00  0.00    +0.000 OA
ATOM     14  C   UNL     1      -5.810  11.800  18.409  0.00  0.00    +0.000 C 
ATOM     15  C   UNL     1      -7.221  12.113  17.911  0.00  0.00    +0.000 C 
ATOM     16  C   UNL     1      -5.803  10.387  19.036  0.00  0.00    +0.000 C 
ATOM     17  C   UNL     1      -5.382  12.895  19.406  0.00  0.00    +0.000 C 
ATOM     18  C   UNL     1      -4.839  12.687  20.617  0.00  0.00    +0.000 C 
ATOM     19  C   UNL     1      -4.004  13.673  21.392  0.00  0.00    +0.000 C 
ATOM     20  C   UNL     1      -3.662  15.000  20.718  0.00  0.00    +0.000 C 
ATOM     21  C   UNL     1      -2.749  12.914  21.845  0.00  0.00    +0.000 C 
ATOM     22  O   UNL     1      -2.694  12.508  23.015  0.00  0.00    +0.000 OA
ENDROOT
BRANCH   7  23
ATOM     23  O   UNL     1      -0.260  12.740  18.103  0.00  0.00    +0.000 OA
ATOM     24  H   UNL     1      -0.989  13.386  18.064  0.00  0.00    +0.000 HD
ENDBRANCH   7  23
BRANCH   8  25
ATOM     25  O   UNL     1      -1.926   9.453  18.118  0.00  0.00    +0.000 OA
ATOM     26  H   UNL     1      -1.498   8.766  17.563  0.00  0.00    +0.000 HD
ENDBRANCH   8  25
BRANCH   1  27
ATOM     27  O   UNL     1       0.036   9.617  20.152  0.00  0.00    +0.000 OA
BRANCH  27  28
ATOM     28  C   UNL     1       0.942   8.852  20.809  0.00  0.00    +0.000 C 
ATOM     29  O   UNL     1       1.010   8.728  22.024  0.00  0.00    +0.000 OA
BRANCH  28  32
ATOM     30  C   UNL     1       2.228   6.896  19.788  0.00  0.00    +0.000 C 
ATOM     31  C   UNL     1       1.670   5.893  20.769  0.00  0.00    +0.000 C 
ATOM     32  C   UNL     1       1.869   8.205  19.817  0.00  0.00    +0.000 C 
BRANCH  30  33
ATOM     33  C   UNL     1       3.169   6.337  18.716  0.00  0.00    +0.000 C 
ATOM     34  C   UNL     1       3.402   7.336  17.573  0.00  0.00    +0.000 C 
BRANCH  33  36
ATOM     35  C   UNL     1       3.598   3.809  18.249  0.00  0.00    +0.000 C 
ATOM     36  C   UNL     1       2.684   4.998  18.114  0.00  0.00    +0.000 C 
ATOM     37  O   UNL     1       1.591   4.883  17.555  0.00  0.00    +0.000 OA
ENDBRANCH  33  36
ENDBRANCH  30  33
ENDBRANCH  28  32
ENDBRANCH  27  28
ENDBRANCH   1  27
TORSDOF 7
ENDMDL
MODEL 5
REMARK VINA RESULT:      -6.4      2.056      5.159
REMARK  Name = 
REMARK  14 active torsions:
REMARK  status: ('A' for Active; 'I' for Inactive)
REMARK    1  A    between atoms: C_1  and  C_2
REMARK    2  A    between atoms: C_2  and  C_4
REMARK    3  A    between atoms: C_4  and  C_5
REMARK    4  A    between atoms: C_4  and  C_6
REMARK    5  A    between atoms: C_6  and  C_7
REMARK    6  A    between atoms: C_8  and  C_9
REMARK    7  A    between atoms: C_9  and  O_11
REMARK    8  A    between atoms: O_11  and  C_12
REMARK    9  A    between atoms: C_13  and  C_14
REMARK   10  A    between atoms: C_18  and  O_19
REMARK   11  A    between atoms: C_20  and  O_21
REMARK   12  A    between atoms: C_27  and  C_28
REMARK   13  A    between atoms: C_27  and  C_29
REMARK   14  A    between atoms: C_32  and  C_33
REMARK                            x       y       z     vdW  Elec       q    Type
REMARK                         _______ _______ _______ _____ _____    ______ ____
ROOT
ATOM      1  C   UNL     1      -2.668  15.199  22.650  0.00  0.00    +0.000 C 
ATOM      2  C   UNL     1      -1.917  16.505  22.256  0.00  0.00    +0.000 C 
ATOM      3  C   UNL     1      -2.289  17.878  22.767  0.00  0.00    +0.000 C 
ATOM      4  C   UNL     1      -1.632  16.438  20.766  0.00  0.00    +0.000 C 
ATOM      5  C   UNL     1      -0.494  15.422  20.635  0.00  0.00    +0.000 C 
ATOM      6  O   UNL     1      -0.955  14.179  21.152  0.00  0.00    +0.000 OA
ATOM      7  C   UNL     1      -1.511  14.109  22.509  0.00  0.00    +0.000 C 
ATOM      8  C   UNL     1      -1.928  12.603  22.776  0.00  0.00    +0.000 C 
ATOM      9  C   UNL     1      -0.681  11.681  22.633  0.00  0.00    +0.000 C 
ATOM     10  C   UNL     1      -0.828  10.173  22.822  0.00  0.00    +0.000 C 
ATOM     11  C   UNL     1      -0.249   9.536  21.554  0.00  0.00    +0.000 C 
ATOM     12  C   UNL     1       0.492  10.672  20.878  0.00  0.00    +0.000 C 
ATOM     13  O   UNL     1      -0.238  11.819  21.289  0.00  0.00    +0.000 OA
ATOM     14  C   UNL     1       0.591  10.758  19.324  0.00  0.00    +0.000 C 
ATOM     15  C   UNL     1       1.460   9.637  18.756  0.00  0.00    +0.000 C 
ATOM     16  C   UNL     1      -0.807  10.689  18.667  0.00  0.00    +0.000 C 
ATOM     17  C   UNL     1       1.296  12.107  19.079  0.00  0.00    +0.000 C 
ATOM     18  C   UNL     1       0.730  13.208  18.560  0.00  0.00    +0.000 C 
ATOM     19  C   UNL     1       1.222  14.621  18.735  0.00  0.00    +0.000 C 
ATOM     20  C   UNL     1       2.423  14.848  19.652  0.00  0.00    +0.000 C 
ATOM     21  C   UNL     1       0.004  15.454  19.159  0.00  0.00    +0.000 C 
ATOM     22  O   UNL     1      -0.564  16.149  18.304  0.00  0.00    +0.000 OA
ENDROOT
BRANCH   7  23
ATOM     23  O   UNL     1      -0.493  14.387  23.500  0.00  0.00    +0.000 OA
ATOM     24  H   UNL     1       0.062  15.116  23.166  0.00  0.00    +0.000 HD
ENDBRANCH   7  23
BRANCH   8  25
ATOM     25  O   UNL     1      -2.924  12.171  21.840  0.00  0.00    +0.000 OA
ATOM     26  H   UNL     1      -2.485  11.420  21.388  0.00  0.00    +0.000 HD
ENDBRANCH   8  25
BRANCH   1  27
ATOM     27  O   UNL     1      -3.781  14.868  21.770  0.00  0.00    +0.000 OA
BRANCH  27  28
ATOM     28  C   UNL     1      -5.052  15.020  22.215  0.00  0.00    +0.000 C 
ATOM     29  O   UNL     1      -5.428  15.887  22.992  0.00  0.00    +0.000 OA
BRANCH  28  32
ATOM     30  C   UNL     1      -6.548  13.975  20.428  0.00  0.00    +0.000 C 
ATOM     31  C   UNL     1      -6.391  15.140  19.480  0.00  0.00    +0.000 C 
ATOM     32  C   UNL     1      -5.923  13.940  21.632  0.00  0.00    +0.000 C 
BRANCH  30  33
ATOM     33  C   UNL     1      -7.399  12.806  19.922  0.00  0.00    +0.000 C 
ATOM     34  C   UNL     1      -7.553  11.703  20.979  0.00  0.00    +0.000 C 
BRANCH  33  36
ATOM     35  C   UNL     1      -5.751  11.162  18.750  0.00  0.00    +0.000 C 
ATOM     36  C   UNL     1      -6.857  12.174  18.619  0.00  0.00    +0.000 C 
ATOM     37  O   UNL     1      -7.309  12.462  17.508  0.00  0.00    +0.000 OA
ENDBRANCH  33  36
ENDBRANCH  30  33
ENDBRANCH  28  32
ENDBRANCH  27  28
ENDBRANCH   1  27
TORSDOF 7
ENDMDL
MODEL 6
REMARK VINA RESULT:      -6.2      2.107      5.003
REMARK  Name = 
REMARK  14 active torsions:
REMARK  status: ('A' for Active; 'I' for Inactive)
REMARK    1  A    between atoms: C_1  and  C_2
REMARK    2  A    between atoms: C_2  and  C_4
REMARK    3  A    between atoms: C_4  and  C_5
REMARK    4  A    between atoms: C_4  and  C_6
REMARK    5  A    between atoms: C_6  and  C_7
REMARK    6  A    between atoms: C_8  and  C_9
REMARK    7  A    between atoms: C_9  and  O_11
REMARK    8  A    between atoms: O_11  and  C_12
REMARK    9  A    between atoms: C_13  and  C_14
REMARK   10  A    between atoms: C_18  and  O_19
REMARK   11  A    between atoms: C_20  and  O_21
REMARK   12  A    between atoms: C_27  and  C_28
REMARK   13  A    between atoms: C_27  and  C_29
REMARK   14  A    between atoms: C_32  and  C_33
REMARK                            x       y       z     vdW  Elec       q    Type
REMARK                         _______ _______ _______ _____ _____    ______ ____
ROOT
ATOM      1  C   UNL     1      -2.667  15.538  22.772  0.00  0.00    +0.000 C 
ATOM      2  C   UNL     1      -1.881  16.808  22.329  0.00  0.00    +0.000 C 
ATOM      3  C   UNL     1      -2.198  18.206  22.810  0.00  0.00    +0.000 C 
ATOM      4  C   UNL     1      -1.628  16.693  20.836  0.00  0.00    +0.000 C 
ATOM      5  C   UNL     1      -0.527  15.637  20.710  0.00  0.00    +0.000 C 
ATOM      6  O   UNL     1      -1.018  14.424  21.269  0.00  0.00    +0.000 OA
ATOM      7  C   UNL     1      -1.549  14.407  22.637  0.00  0.00    +0.000 C 
ATOM      8  C   UNL     1      -2.009  12.924  22.952  0.00  0.00    +0.000 C 
ATOM      9  C   UNL     1      -0.796  11.957  22.810  0.00  0.00    +0.000 C 
ATOM     10  C   UNL     1      -0.989  10.460  23.042  0.00  0.00    +0.000 C 
ATOM     11  C   UNL     1      -0.457   9.771  21.780  0.00  0.00    +0.000 C 
ATOM     12  C   UNL     1       0.308  10.864  21.060  0.00  0.00    +0.000 C 
ATOM     13  O   UNL     1      -0.376  12.045  21.455  0.00  0.00    +0.000 OA
ATOM     14  C   UNL     1       0.378  10.907  19.503  0.00  0.00    +0.000 C 
ATOM     15  C   UNL     1       1.199   9.743  18.949  0.00  0.00    +0.000 C 
ATOM     16  C   UNL     1      -1.034  10.868  18.875  0.00  0.00    +0.000 C 
ATOM     17  C   UNL     1       1.122  12.224  19.209  0.00  0.00    +0.000 C 
ATOM     18  C   UNL     1       0.582  13.331  18.671  0.00  0.00    +0.000 C 
ATOM     19  C   UNL     1       1.124  14.730  18.799  0.00  0.00    +0.000 C 
ATOM     20  C   UNL     1       2.349  14.941  19.687  0.00  0.00    +0.000 C 
ATOM     21  C   UNL     1      -0.057  15.613  19.225  0.00  0.00    +0.000 C 
ATOM     22  O   UNL     1      -0.619  16.305  18.363  0.00  0.00    +0.000 OA
ENDROOT
BRANCH   7  23
ATOM     23  O   UNL     1      -0.502  14.677  23.601  0.00  0.00    +0.000 OA
ATOM     24  H   UNL     1       0.345  14.392  23.214  0.00  0.00    +0.000 HD
ENDBRANCH   7  23
BRANCH   8  25
ATOM     25  O   UNL     1      -3.038  12.501  22.048  0.00  0.00    +0.000 OA
ATOM     26  H   UNL     1      -2.598  12.567  21.173  0.00  0.00    +0.000 HD
ENDBRANCH   8  25
BRANCH   1  27
ATOM     27  O   UNL     1      -3.807  15.222  21.922  0.00  0.00    +0.000 OA
BRANCH  27  28
ATOM     28  C   UNL     1      -5.057  15.549  22.333  0.00  0.00    +0.000 C 
ATOM     29  O   UNL     1      -5.434  16.679  22.611  0.00  0.00    +0.000 OA
BRANCH  28  32
ATOM     30  C   UNL     1      -6.932  13.973  21.608  0.00  0.00    +0.000 C 
ATOM     31  C   UNL     1      -7.335  14.837  20.438  0.00  0.00    +0.000 C 
ATOM     32  C   UNL     1      -5.899  14.305  22.424  0.00  0.00    +0.000 C 
BRANCH  30  33
ATOM     33  C   UNL     1      -7.713  12.667  21.781  0.00  0.00    +0.000 C 
ATOM     34  C   UNL     1      -7.642  12.135  23.220  0.00  0.00    +0.000 C 
BRANCH  33  36
ATOM     35  C   UNL     1      -5.950  11.750  20.094  0.00  0.00    +0.000 C 
ATOM     36  C   UNL     1      -7.256  11.548  20.815  0.00  0.00    +0.000 C 
ATOM     37  O   UNL     1      -7.912  10.519  20.639  0.00  0.00    +0.000 OA
ENDBRANCH  33  36
ENDBRANCH  30  33
ENDBRANCH  28  32
ENDBRANCH  27  28
ENDBRANCH   1  27
TORSDOF 7
ENDMDL
MODEL 7
REMARK VINA RESULT:      -6.2      2.857      7.847
REMARK  Name = 
REMARK  14 active torsions:
REMARK  status: ('A' for Active; 'I' for Inactive)
REMARK    1  A    between atoms: C_1  and  C_2
REMARK    2  A    between atoms: C_2  and  C_4
REMARK    3  A    between atoms: C_4  and  C_5
REMARK    4  A    between atoms: C_4  and  C_6
REMARK    5  A    between atoms: C_6  and  C_7
REMARK    6  A    between atoms: C_8  and  C_9
REMARK    7  A    between atoms: C_9  and  O_11
REMARK    8  A    between atoms: O_11  and  C_12
REMARK    9  A    between atoms: C_13  and  C_14
REMARK   10  A    between atoms: C_18  and  O_19
REMARK   11  A    between atoms: C_20  and  O_21
REMARK   12  A    between atoms: C_27  and  C_28
REMARK   13  A    between atoms: C_27  and  C_29
REMARK   14  A    between atoms: C_32  and  C_33
REMARK                            x       y       z     vdW  Elec       q    Type
REMARK                         _______ _______ _______ _____ _____    ______ ____
ROOT
ATOM      1  C   UNL     1      -0.241  10.971  20.625  0.00  0.00    +0.000 C 
ATOM      2  C   UNL     1       0.263  11.210  19.171  0.00  0.00    +0.000 C 
ATOM      3  C   UNL     1       0.616  10.099  18.208  0.00  0.00    +0.000 C 
ATOM      4  C   UNL     1       1.263  12.353  19.214  0.00  0.00    +0.000 C 
ATOM      5  C   UNL     1       0.408  13.607  19.413  0.00  0.00    +0.000 C 
ATOM      6  O   UNL     1      -0.301  13.464  20.639  0.00  0.00    +0.000 OA
ATOM      7  C   UNL     1      -1.127  12.274  20.875  0.00  0.00    +0.000 C 
ATOM      8  C   UNL     1      -1.773  12.419  22.315  0.00  0.00    +0.000 C 
ATOM      9  C   UNL     1      -2.630  13.718  22.376  0.00  0.00    +0.000 C 
ATOM     10  C   UNL     1      -3.342  14.096  23.674  0.00  0.00    +0.000 C 
ATOM     11  C   UNL     1      -2.891  15.526  23.995  0.00  0.00    +0.000 C 
ATOM     12  C   UNL     1      -2.234  16.000  22.714  0.00  0.00    +0.000 C 
ATOM     13  O   UNL     1      -1.732  14.797  22.148  0.00  0.00    +0.000 OA
ATOM     14  C   UNL     1      -1.034  16.994  22.744  0.00  0.00    +0.000 C 
ATOM     15  C   UNL     1      -1.467  18.379  23.225  0.00  0.00    +0.000 C 
ATOM     16  C   UNL     1       0.101  16.479  23.659  0.00  0.00    +0.000 C 
ATOM     17  C   UNL     1      -0.606  17.094  21.266  0.00  0.00    +0.000 C 
ATOM     18  C   UNL     1       0.524  16.596  20.739  0.00  0.00    +0.000 C 
ATOM     19  C   UNL     1       0.751  16.265  19.287  0.00  0.00    +0.000 C 
ATOM     20  C   UNL     1      -0.428  16.423  18.328  0.00  0.00    +0.000 C 
ATOM     21  C   UNL     1       1.338  14.847  19.254  0.00  0.00    +0.000 C 
ATOM     22  O   UNL     1       2.560  14.716  19.094  0.00  0.00    +0.000 OA
ENDROOT
BRANCH   7  23
ATOM     23  O   UNL     1      -2.258  12.242  19.969  0.00  0.00    +0.000 OA
ATOM     24  H   UNL     1      -2.404  13.146  19.638  0.00  0.00    +0.000 HD
ENDBRANCH   7  23
BRANCH   8  25
ATOM     25  O   UNL     1      -0.761  12.492  23.327  0.00  0.00    +0.000 OA
ATOM     26  H   UNL     1      -1.273  12.736  24.128  0.00  0.00    +0.000 HD
ENDBRANCH   8  25
BRANCH   1  27
ATOM     27  O   UNL     1       0.825  10.890  21.615  0.00  0.00    +0.000 OA
BRANCH  27  28
ATOM     28  C   UNL     1       0.968   9.763  22.353  0.00  0.00    +0.000 C 
ATOM     29  O   UNL     1       0.492   9.584  23.465  0.00  0.00    +0.000 OA
BRANCH  28  32
ATOM     30  C   UNL     1       1.394   7.674  20.946  0.00  0.00    +0.000 C 
ATOM     31  C   UNL     1      -0.072   7.327  20.844  0.00  0.00    +0.000 C 
ATOM     32  C   UNL     1       1.827   8.778  21.607  0.00  0.00    +0.000 C 
BRANCH  30  33
ATOM     33  C   UNL     1       2.358   6.746  20.201  0.00  0.00    +0.000 C 
ATOM     34  C   UNL     1       2.409   7.051  18.697  0.00  0.00    +0.000 C 
BRANCH  33  36
ATOM     35  C   UNL     1       1.571   4.479  19.183  0.00  0.00    +0.000 C 
ATOM     36  C   UNL     1       2.035   5.246  20.393  0.00  0.00    +0.000 C 
ATOM     37  O   UNL     1       2.159   4.678  21.480  0.00  0.00    +0.000 OA
ENDBRANCH  33  36
ENDBRANCH  30  33
ENDBRANCH  28  32
ENDBRANCH  27  28
ENDBRANCH   1  27
TORSDOF 7
ENDMDL
MODEL 8
REMARK VINA RESULT:      -6.1      2.595      7.138
REMARK  Name = 
REMARK  14 active torsions:
REMARK  status: ('A' for Active; 'I' for Inactive)
REMARK    1  A    between atoms: C_1  and  C_2
REMARK    2  A    between atoms: C_2  and  C_4
REMARK    3  A    between atoms: C_4  and  C_5
REMARK    4  A    between atoms: C_4  and  C_6
REMARK    5  A    between atoms: C_6  and  C_7
REMARK    6  A    between atoms: C_8  and  C_9
REMARK    7  A    between atoms: C_9  and  O_11
REMARK    8  A    between atoms: O_11  and  C_12
REMARK    9  A    between atoms: C_13  and  C_14
REMARK   10  A    between atoms: C_18  and  O_19
REMARK   11  A    between atoms: C_20  and  O_21
REMARK   12  A    between atoms: C_27  and  C_28
REMARK   13  A    between atoms: C_27  and  C_29
REMARK   14  A    between atoms: C_32  and  C_33
REMARK                            x       y       z     vdW  Elec       q    Type
REMARK                         _______ _______ _______ _____ _____    ______ ____
ROOT
ATOM      1  C   UNL     1       0.504  10.909  20.633  0.00  0.00    +0.000 C 
ATOM      2  C   UNL     1      -0.054  10.943  22.087  0.00  0.00    +0.000 C 
ATOM      3  C   UNL     1      -0.294   9.710  22.927  0.00  0.00    +0.000 C 
ATOM      4  C   UNL     1      -1.178  11.964  22.123  0.00  0.00    +0.000 C 
ATOM      5  C   UNL     1      -0.472  13.321  22.073  0.00  0.00    +0.000 C 
ATOM      6  O   UNL     1       0.274  13.382  20.862  0.00  0.00    +0.000 OA
ATOM      7  C   UNL     1       1.238  12.323  20.538  0.00  0.00    +0.000 C 
ATOM      8  C   UNL     1       1.891  12.684  19.140  0.00  0.00    +0.000 C 
ATOM      9  C   UNL     1       2.592  14.072  19.231  0.00  0.00    +0.000 C 
ATOM     10  C   UNL     1       3.281  14.655  17.999  0.00  0.00    +0.000 C 
ATOM     11  C   UNL     1       2.673  16.049  17.804  0.00  0.00    +0.000 C 
ATOM     12  C   UNL     1       1.940  16.315  19.103  0.00  0.00    +0.000 C 
ATOM     13  O   UNL     1       1.570  15.013  19.534  0.00  0.00    +0.000 OA
ATOM     14  C   UNL     1       0.633  17.165  19.132  0.00  0.00    +0.000 C 
ATOM     15  C   UNL     1       0.912  18.631  18.801  0.00  0.00    +0.000 C 
ATOM     16  C   UNL     1      -0.416  16.618  18.137  0.00  0.00    +0.000 C 
ATOM     17  C   UNL     1       0.167  17.067  20.598  0.00  0.00    +0.000 C 
ATOM     18  C   UNL     1      -0.908  16.394  21.039  0.00  0.00    +0.000 C 
ATOM     19  C   UNL     1      -1.124  15.897  22.445  0.00  0.00    +0.000 C 
ATOM     20  C   UNL     1       0.010  16.091  23.451  0.00  0.00    +0.000 C 
ATOM     21  C   UNL     1      -1.542  14.425  22.322  0.00  0.00    +0.000 C 
ATOM     22  O   UNL     1      -2.744  14.141  22.431  0.00  0.00    +0.000 OA
ENDROOT
BRANCH   7  23
ATOM     23  O   UNL     1       2.346  12.330  21.471  0.00  0.00    +0.000 OA
ATOM     24  H   UNL     1       3.144  12.614  20.989  0.00  0.00    +0.000 HD
ENDBRANCH   7  23
BRANCH   8  25
ATOM     25  O   UNL     1       0.897  12.742  18.108  0.00  0.00    +0.000 OA
ATOM     26  H   UNL     1       0.745  11.795  17.900  0.00  0.00    +0.000 HD
ENDBRANCH   8  25
BRANCH   1  27
ATOM     27  O   UNL     1      -0.525  10.807  19.607  0.00  0.00    +0.000 OA
BRANCH  27  28
ATOM     28  C   UNL     1      -0.312  10.023  18.523  0.00  0.00    +0.000 C 
ATOM     29  O   UNL     1       0.766   9.543  18.202  0.00  0.00    +0.000 OA
BRANCH  28  32
ATOM     30  C   UNL     1      -2.688  10.665  17.840  0.00  0.00    +0.000 C 
ATOM     31  C   UNL     1      -2.709  11.894  18.716  0.00  0.00    +0.000 C 
ATOM     32  C   UNL     1      -1.597   9.861  17.757  0.00  0.00    +0.000 C 
BRANCH  30  33
ATOM     33  C   UNL     1      -3.943  10.417  16.997  0.00  0.00    +0.000 C 
ATOM     34  C   UNL     1      -3.788  10.941  15.562  0.00  0.00    +0.000 C 
BRANCH  33  36
ATOM     35  C   UNL     1      -5.713  12.330  17.042  0.00  0.00    +0.000 C 
ATOM     36  C   UNL     1      -5.224  11.026  17.613  0.00  0.00    +0.000 C 
ATOM     37  O   UNL     1      -5.843  10.476  18.527  0.00  0.00    +0.000 OA
ENDBRANCH  33  36
ENDBRANCH  30  33
ENDBRANCH  28  32
ENDBRANCH  27  28
ENDBRANCH   1  27
TORSDOF 7
ENDMDL
MODEL 9
REMARK VINA RESULT:      -6.1      2.657      4.209
REMARK  Name = 
REMARK  14 active torsions:
REMARK  status: ('A' for Active; 'I' for Inactive)
REMARK    1  A    between atoms: C_1  and  C_2
REMARK    2  A    between atoms: C_2  and  C_4
REMARK    3  A    between atoms: C_4  and  C_5
REMARK    4  A    between atoms: C_4  and  C_6
REMARK    5  A    between atoms: C_6  and  C_7
REMARK    6  A    between atoms: C_8  and  C_9
REMARK    7  A    between atoms: C_9  and  O_11
REMARK    8  A    between atoms: O_11  and  C_12
REMARK    9  A    between atoms: C_13  and  C_14
REMARK   10  A    between atoms: C_18  and  O_19
REMARK   11  A    between atoms: C_20  and  O_21
REMARK   12  A    between atoms: C_27  and  C_28
REMARK   13  A    between atoms: C_27  and  C_29
REMARK   14  A    between atoms: C_32  and  C_33
REMARK                            x       y       z     vdW  Elec       q    Type
REMARK                         _______ _______ _______ _____ _____    ______ ____
ROOT
ATOM      1  C   UNL     1      -2.720  14.344  23.462  0.00  0.00    +0.000 C 
ATOM      2  C   UNL     1      -3.215  12.871  23.564  0.00  0.00    +0.000 C 
ATOM      3  C   UNL     1      -4.341  12.421  24.467  0.00  0.00    +0.000 C 
ATOM      4  C   UNL     1      -1.989  11.976  23.584  0.00  0.00    +0.000 C 
ATOM      5  C   UNL     1      -1.476  11.989  22.141  0.00  0.00    +0.000 C 
ATOM      6  O   UNL     1      -1.156  13.334  21.803  0.00  0.00    +0.000 OA
ATOM      7  C   UNL     1      -2.160  14.392  21.968  0.00  0.00    +0.000 C 
ATOM      8  C   UNL     1      -1.497  15.756  21.510  0.00  0.00    +0.000 C 
ATOM      9  C   UNL     1      -1.040  15.643  20.025  0.00  0.00    +0.000 C 
ATOM     10  C   UNL     1      -0.347  16.827  19.353  0.00  0.00    +0.000 C 
ATOM     11  C   UNL     1       0.971  16.276  18.796  0.00  0.00    +0.000 C 
ATOM     12  C   UNL     1       0.803  14.772  18.876  0.00  0.00    +0.000 C 
ATOM     13  O   UNL     1      -0.068  14.607  19.986  0.00  0.00    +0.000 OA
ATOM     14  C   UNL     1       2.023  13.838  19.143  0.00  0.00    +0.000 C 
ATOM     15  C   UNL     1       2.990  13.830  17.960  0.00  0.00    +0.000 C 
ATOM     16  C   UNL     1       2.791  14.266  20.415  0.00  0.00    +0.000 C 
ATOM     17  C   UNL     1       1.388  12.440  19.275  0.00  0.00    +0.000 C 
ATOM     18  C   UNL     1       1.287  11.725  20.408  0.00  0.00    +0.000 C 
ATOM     19  C   UNL     1       0.299  10.618  20.669  0.00  0.00    +0.000 C 
ATOM     20  C   UNL     1      -0.744  10.326  19.592  0.00  0.00    +0.000 C 
ATOM     21  C   UNL     1      -0.344  10.925  22.029  0.00  0.00    +0.000 C 
ATOM     22  O   UNL     1       0.055  10.304  23.025  0.00  0.00    +0.000 OA
ENDROOT
BRANCH   7  23
ATOM     23  O   UNL     1      -3.269  14.200  21.055  0.00  0.00    +0.000 OA
ATOM     24  H   UNL     1      -2.910  14.162  20.150  0.00  0.00    +0.000 HD
ENDBRANCH   7  23
BRANCH   8  25
ATOM     25  O   UNL     1      -0.353  16.068  22.316  0.00  0.00    +0.000 OA
ATOM     26  H   UNL     1       0.032  15.184  22.497  0.00  0.00    +0.000 HD
ENDBRANCH   8  25
BRANCH   1  27
ATOM     27  O   UNL     1      -1.663  14.680  24.406  0.00  0.00    +0.000 OA
BRANCH  27  28
ATOM     28  C   UNL     1      -1.941  15.478  25.465  0.00  0.00    +0.000 C 
ATOM     29  O   UNL     1      -1.305  15.510  26.510  0.00  0.00    +0.000 OA
BRANCH  28  32
ATOM     30  C   UNL     1      -3.196  17.590  24.768  0.00  0.00    +0.000 C 
ATOM     31  C   UNL     1      -1.930  18.373  24.514  0.00  0.00    +0.000 C 
ATOM     32  C   UNL     1      -3.171  16.294  25.171  0.00  0.00    +0.000 C 
BRANCH  30  33
ATOM     33  C   UNL     1      -4.510  18.322  24.477  0.00  0.00    +0.000 C 
ATOM     34  C   UNL     1      -5.310  18.606  25.757  0.00  0.00    +0.000 C 
BRANCH  33  36
ATOM     35  C   UNL     1      -4.894  17.365  22.083  0.00  0.00    +0.000 C 
ATOM     36  C   UNL     1      -5.421  17.571  23.478  0.00  0.00    +0.000 C 
ATOM     37  O   UNL     1      -6.532  17.139  23.795  0.00  0.00    +0.000 OA
ENDBRANCH  33  36
ENDBRANCH  30  33
ENDBRANCH  28  32
ENDBRANCH  27  28
ENDBRANCH   1  27
TORSDOF 7
ENDMDL
