MODEL 1
REMARK VINA RESULT:      -7.9      0.000      0.000
REMARK  Name = 
REMARK  4 active torsions:
REMARK  status: ('A' for Active; 'I' for Inactive)
REMARK    1  A    between atoms: N_3  and  C_4
REMARK    2  A    between atoms: C_7  and  C_8
REMARK    3  A    between atoms: N_14  and  S_15
REMARK    4  A    between atoms: S_15  and  C_18
REMARK                            x       y       z     vdW  Elec       q    Type
REMARK                         _______ _______ _______ _____ _____    ______ ____
ROOT
ATOM      1  O   UNL     1       2.222   5.553  18.262  0.00  0.00    +0.000 OA
ATOM      2  C   UNL     1       2.854   5.844  19.263  0.00  0.00    +0.000 C 
ATOM      3  N   UNL     1       2.754   7.022  19.965  0.00  0.00    +0.000 N 
ATOM      4  N   UNL     1       3.825   4.985  19.759  0.00  0.00    +0.000 N 
ATOM      5  H   UNL     1       3.420   7.179  20.705  0.00  0.00    +0.000 HD
ATOM      6  H   UNL     1       4.423   5.209  20.542  0.00  0.00    +0.000 HD
ENDROOT
BRANCH   3   7
ATOM      7  C   UNL     1       1.862   8.079  19.668  0.00  0.00    +0.000 A 
ATOM      8  C   UNL     1       1.791   8.678  18.408  0.00  0.00    +0.000 A 
ATOM      9  C   UNL     1       0.917   9.736  18.161  0.00  0.00    +0.000 A 
ATOM     10  C   UNL     1       0.081  10.221  19.171  0.00  0.00    +0.000 A 
ATOM     11  C   UNL     1       0.136   9.614  20.434  0.00  0.00    +0.000 A 
ATOM     12  C   UNL     1       1.011   8.543  20.678  0.00  0.00    +0.000 A 
BRANCH  10  13
ATOM     13  C   UNL     1      -0.866  11.362  18.894  0.00  0.00    +0.000 C 
ATOM     14  F   UNL     1      -1.733  11.611  19.916  0.00  0.00    +0.000 F 
ATOM     15  F   UNL     1      -0.213  12.536  18.667  0.00  0.00    +0.000 F 
ATOM     16  F   UNL     1      -1.640  11.146  17.794  0.00  0.00    +0.000 F 
ENDBRANCH  10  13
ENDBRANCH   3   7
BRANCH   4  17
ATOM     17  S   UNL     1       4.209   3.536  19.025  0.00  0.00    +0.000 S 
ATOM     18  O   UNL     1       5.132   2.883  19.924  0.00  0.00    +0.000 OA
ATOM     19  O   UNL     1       2.989   2.883  18.606  0.00  0.00    +0.000 OA
BRANCH  17  20
ATOM     20  C   UNL     1       5.151   4.016  17.590  0.00  0.00    +0.000 A 
ATOM     21  C   UNL     1       4.575   3.888  16.321  0.00  0.00    +0.000 A 
ATOM     22  C   UNL     1       5.314   4.240  15.190  0.00  0.00    +0.000 A 
ATOM     23  C   UNL     1       6.615   4.727  15.333  0.00  0.00    +0.000 A 
ATOM     24 CL   UNL     1       7.520   5.164  13.937  0.00  0.00    +0.000 Cl
ATOM     25  C   UNL     1       7.186   4.863  16.600  0.00  0.00    +0.000 A 
ATOM     26  C   UNL     1       6.454   4.504  17.736  0.00  0.00    +0.000 A 
ENDBRANCH  17  20
ENDBRANCH   4  17
TORSDOF 4
ENDMDL
MODEL 2
REMARK VINA RESULT:      -7.9      0.347      1.041
REMARK  Name = 
REMARK  4 active torsions:
REMARK  status: ('A' for Active; 'I' for Inactive)
REMARK    1  A    between atoms: N_3  and  C_4
REMARK    2  A    between atoms: C_7  and  C_8
REMARK    3  A    between atoms: N_14  and  S_15
REMARK    4  A    between atoms: S_15  and  C_18
REMARK                            x       y       z     vdW  Elec       q    Type
REMARK                         _______ _______ _______ _____ _____    ______ ____
ROOT
ATOM      1  O   UNL     1       2.101   5.539  18.451  0.00  0.00    +0.000 OA
ATOM      2  C   UNL     1       2.830   5.864  19.372  0.00  0.00    +0.000 C 
ATOM      3  N   UNL     1       2.774   7.051  20.065  0.00  0.00    +0.000 N 
ATOM      4  N   UNL     1       3.874   5.040  19.772  0.00  0.00    +0.000 N 
ATOM      5  H   UNL     1       3.512   7.238  20.725  0.00  0.00    +0.000 HD
ATOM      6  H   UNL     1       4.547   5.293  20.480  0.00  0.00    +0.000 HD
ENDROOT
BRANCH   3   7
ATOM      7  C   UNL     1       1.825   8.078  19.852  0.00  0.00    +0.000 A 
ATOM      8  C   UNL     1       0.918   8.485  20.833  0.00  0.00    +0.000 A 
ATOM      9  C   UNL     1      -0.021   9.485  20.577  0.00  0.00    +0.000 A 
ATOM     10  C   UNL     1      -0.071  10.112  19.329  0.00  0.00    +0.000 A 
ATOM     11  C   UNL     1       0.847   9.719  18.344  0.00  0.00    +0.000 A 
ATOM     12  C   UNL     1       1.796   8.717  18.607  0.00  0.00    +0.000 A 
BRANCH  10  13
ATOM     13  C   UNL     1      -1.086  11.196  19.061  0.00  0.00    +0.000 C 
ATOM     14  F   UNL     1      -1.368  11.960  20.155  0.00  0.00    +0.000 F 
ATOM     15  F   UNL     1      -0.676  12.066  18.097  0.00  0.00    +0.000 F 
ATOM     16  F   UNL     1      -2.281  10.701  18.636  0.00  0.00    +0.000 F 
ENDBRANCH  10  13
ENDBRANCH   3   7
BRANCH   4  17
ATOM     17  S   UNL     1       4.217   3.590  19.020  0.00  0.00    +0.000 S 
ATOM     18  O   UNL     1       5.132   2.906  19.905  0.00  0.00    +0.000 OA
ATOM     19  O   UNL     1       2.978   2.970  18.606  0.00  0.00    +0.000 OA
BRANCH  17  20
ATOM     20  C   UNL     1       5.158   4.060  17.582  0.00  0.00    +0.000 A 
ATOM     21  C   UNL     1       4.558   3.985  16.319  0.00  0.00    +0.000 A 
ATOM     22  C   UNL     1       5.295   4.331  15.185  0.00  0.00    +0.000 A 
ATOM     23  C   UNL     1       6.617   4.758  15.318  0.00  0.00    +0.000 A 
ATOM     24 CL   UNL     1       7.519   5.187  13.917  0.00  0.00    +0.000 Cl
ATOM     25  C   UNL     1       7.212   4.843  16.578  0.00  0.00    +0.000 A 
ATOM     26  C   UNL     1       6.481   4.490  17.717  0.00  0.00    +0.000 A 
ENDBRANCH  17  20
ENDBRANCH   4  17
TORSDOF 4
ENDMDL
MODEL 3
REMARK VINA RESULT:      -7.9      0.116      1.286
REMARK  Name = 
REMARK  4 active torsions:
REMARK  status: ('A' for Active; 'I' for Inactive)
REMARK    1  A    between atoms: N_3  and  C_4
REMARK    2  A    between atoms: C_7  and  C_8
REMARK    3  A    between atoms: N_14  and  S_15
REMARK    4  A    between atoms: S_15  and  C_18
REMARK                            x       y       z     vdW  Elec       q    Type
REMARK                         _______ _______ _______ _____ _____    ______ ____
ROOT
ATOM      1  O   UNL     1       2.197   5.538  18.288  0.00  0.00    +0.000 OA
ATOM      2  C   UNL     1       2.855   5.847  19.267  0.00  0.00    +0.000 C 
ATOM      3  N   UNL     1       2.770   7.036  19.952  0.00  0.00    +0.000 N 
ATOM      4  N   UNL     1       3.843   4.999  19.750  0.00  0.00    +0.000 N 
ATOM      5  H   UNL     1       3.456   7.207  20.672  0.00  0.00    +0.000 HD
ATOM      6  H   UNL     1       4.461   5.237  20.512  0.00  0.00    +0.000 HD
ENDROOT
BRANCH   3   7
ATOM      7  C   UNL     1       1.868   8.085  19.663  0.00  0.00    +0.000 A 
ATOM      8  C   UNL     1       1.794   8.696  18.409  0.00  0.00    +0.000 A 
ATOM      9  C   UNL     1       0.908   9.747  18.169  0.00  0.00    +0.000 A 
ATOM     10  C   UNL     1       0.062  10.210  19.181  0.00  0.00    +0.000 A 
ATOM     11  C   UNL     1       0.120   9.591  20.438  0.00  0.00    +0.000 A 
ATOM     12  C   UNL     1       1.007   8.529  20.675  0.00  0.00    +0.000 A 
BRANCH  10  13
ATOM     13  C   UNL     1      -0.897  11.344  18.912  0.00  0.00    +0.000 C 
ATOM     14  F   UNL     1      -0.299  12.449  18.384  0.00  0.00    +0.000 F 
ATOM     15  F   UNL     1      -1.878  10.997  18.033  0.00  0.00    +0.000 F 
ATOM     16  F   UNL     1      -1.535  11.768  20.038  0.00  0.00    +0.000 F 
ENDBRANCH  10  13
ENDBRANCH   3   7
BRANCH   4  17
ATOM     17  S   UNL     1       4.212   3.540  19.029  0.00  0.00    +0.000 S 
ATOM     18  O   UNL     1       5.139   2.891  19.928  0.00  0.00    +0.000 OA
ATOM     19  O   UNL     1       2.985   2.890  18.627  0.00  0.00    +0.000 OA
BRANCH  17  20
ATOM     20  C   UNL     1       5.145   3.998  17.581  0.00  0.00    +0.000 A 
ATOM     21  C   UNL     1       6.452   4.476  17.735  0.00  0.00    +0.000 A 
ATOM     22  C   UNL     1       7.182   4.858  16.608  0.00  0.00    +0.000 A 
ATOM     23  C   UNL     1       6.611   4.750  15.339  0.00  0.00    +0.000 A 
ATOM     24 CL   UNL     1       7.517   5.218  13.954  0.00  0.00    +0.000 Cl
ATOM     25  C   UNL     1       5.311   4.263  15.186  0.00  0.00    +0.000 A 
ATOM     26  C   UNL     1       4.572   3.887  16.311  0.00  0.00    +0.000 A 
ENDBRANCH  17  20
ENDBRANCH   4  17
TORSDOF 4
ENDMDL
MODEL 4
REMARK VINA RESULT:      -7.8      6.316      7.492
REMARK  Name = 
REMARK  4 active torsions:
REMARK  status: ('A' for Active; 'I' for Inactive)
REMARK    1  A    between atoms: N_3  and  C_4
REMARK    2  A    between atoms: C_7  and  C_8
REMARK    3  A    between atoms: N_14  and  S_15
REMARK    4  A    between atoms: S_15  and  C_18
REMARK                            x       y       z     vdW  Elec       q    Type
REMARK                         _______ _______ _______ _____ _____    ______ ____
ROOT
ATOM      1  O   UNL     1       8.155   6.951  18.815  0.00  0.00    +0.000 OA
ATOM      2  C   UNL     1       7.782   7.410  17.749  0.00  0.00    +0.000 C 
ATOM      3  N   UNL     1       7.877   8.725  17.359  0.00  0.00    +0.000 N 
ATOM      4  N   UNL     1       7.135   6.604  16.821  0.00  0.00    +0.000 N 
ATOM      5  H   UNL     1       7.422   8.988  16.498  0.00  0.00    +0.000 HD
ATOM      6  H   UNL     1       6.745   6.948  15.956  0.00  0.00    +0.000 HD
ENDROOT
BRANCH   3   7
ATOM      7  C   UNL     1       8.470   9.762  18.115  0.00  0.00    +0.000 A 
ATOM      8  C   UNL     1       9.047   9.548  19.369  0.00  0.00    +0.000 A 
ATOM      9  C   UNL     1       9.600  10.603  20.098  0.00  0.00    +0.000 A 
ATOM     10  C   UNL     1       9.597  11.902  19.584  0.00  0.00    +0.000 A 
ATOM     11  C   UNL     1       9.033  12.121  18.319  0.00  0.00    +0.000 A 
ATOM     12  C   UNL     1       8.484  11.057  17.584  0.00  0.00    +0.000 A 
BRANCH  10  13
ATOM     13  C   UNL     1      10.201  13.036  20.376  0.00  0.00    +0.000 C 
ATOM     14  F   UNL     1      10.233  12.805  21.719  0.00  0.00    +0.000 F 
ATOM     15  F   UNL     1      11.487  13.296  20.012  0.00  0.00    +0.000 F 
ATOM     16  F   UNL     1       9.522  14.206  20.217  0.00  0.00    +0.000 F 
ENDBRANCH  10  13
ENDBRANCH   3   7
BRANCH   4  17
ATOM     17  S   UNL     1       6.805   4.991  17.101  0.00  0.00    +0.000 S 
ATOM     18  O   UNL     1       6.449   4.443  15.813  0.00  0.00    +0.000 OA
ATOM     19  O   UNL     1       7.879   4.420  17.883  0.00  0.00    +0.000 OA
BRANCH  17  20
ATOM     20  C   UNL     1       5.311   5.019  18.072  0.00  0.00    +0.000 A 
ATOM     21  C   UNL     1       5.029   3.941  18.921  0.00  0.00    +0.000 A 
ATOM     22  C   UNL     1       3.850   3.944  19.668  0.00  0.00    +0.000 A 
ATOM     23  C   UNL     1       2.969   5.023  19.573  0.00  0.00    +0.000 A 
ATOM     24 CL   UNL     1       1.519   5.023  20.500  0.00  0.00    +0.000 Cl
ATOM     25  C   UNL     1       3.255   6.101  18.734  0.00  0.00    +0.000 A 
ATOM     26  C   UNL     1       4.431   6.101  17.977  0.00  0.00    +0.000 A 
ENDBRANCH  17  20
ENDBRANCH   4  17
TORSDOF 4
ENDMDL
MODEL 5
REMARK VINA RESULT:      -7.8      6.443      7.548
REMARK  Name = 
REMARK  4 active torsions:
REMARK  status: ('A' for Active; 'I' for Inactive)
REMARK    1  A    between atoms: N_3  and  C_4
REMARK    2  A    between atoms: C_7  and  C_8
REMARK    3  A    between atoms: N_14  and  S_15
REMARK    4  A    between atoms: S_15  and  C_18
REMARK                            x       y       z     vdW  Elec       q    Type
REMARK                         _______ _______ _______ _____ _____    ______ ____
ROOT
ATOM      1  O   UNL     1       8.108   7.150  18.660  0.00  0.00    +0.000 OA
ATOM      2  C   UNL     1       7.797   7.667  17.601  0.00  0.00    +0.000 C 
ATOM      3  N   UNL     1       7.949   8.995  17.277  0.00  0.00    +0.000 N 
ATOM      4  N   UNL     1       7.170   6.925  16.609  0.00  0.00    +0.000 N 
ATOM      5  H   UNL     1       7.541   9.311  16.411  0.00  0.00    +0.000 HD
ATOM      6  H   UNL     1       6.831   7.320  15.744  0.00  0.00    +0.000 HD
ENDROOT
BRANCH   3   7
ATOM      7  C   UNL     1       8.537   9.978  18.107  0.00  0.00    +0.000 A 
ATOM      8  C   UNL     1       9.141   9.673  19.329  0.00  0.00    +0.000 A 
ATOM      9  C   UNL     1       9.688  10.674  20.133  0.00  0.00    +0.000 A 
ATOM     10  C   UNL     1       9.651  12.012  19.729  0.00  0.00    +0.000 A 
ATOM     11  C   UNL     1       9.059  12.323  18.496  0.00  0.00    +0.000 A 
ATOM     12  C   UNL     1       8.516  11.313  17.686  0.00  0.00    +0.000 A 
BRANCH  10  13
ATOM     13  C   UNL     1      10.248  13.088  20.602  0.00  0.00    +0.000 C 
ATOM     14  F   UNL     1      10.017  12.901  21.932  0.00  0.00    +0.000 F 
ATOM     15  F   UNL     1      11.601  13.173  20.468  0.00  0.00    +0.000 F 
ATOM     16  F   UNL     1       9.763  14.327  20.311  0.00  0.00    +0.000 F 
ENDBRANCH  10  13
ENDBRANCH   3   7
BRANCH   4  17
ATOM     17  S   UNL     1       6.781   5.313  16.798  0.00  0.00    +0.000 S 
ATOM     18  O   UNL     1       6.331   4.871  15.498  0.00  0.00    +0.000 OA
ATOM     19  O   UNL     1       7.868   4.643  17.478  0.00  0.00    +0.000 OA
BRANCH  17  20
ATOM     20  C   UNL     1       5.344   5.336  17.851  0.00  0.00    +0.000 A 
ATOM     21  C   UNL     1       4.367   6.319  17.651  0.00  0.00    +0.000 A 
ATOM     22  C   UNL     1       3.248   6.359  18.485  0.00  0.00    +0.000 A 
ATOM     23  C   UNL     1       3.107   5.414  19.503  0.00  0.00    +0.000 A 
ATOM     24 CL   UNL     1       1.724   5.465  20.526  0.00  0.00    +0.000 Cl
ATOM     25  C   UNL     1       4.076   4.428  19.697  0.00  0.00    +0.000 A 
ATOM     26  C   UNL     1       5.203   4.388  18.870  0.00  0.00    +0.000 A 
ENDBRANCH  17  20
ENDBRANCH   4  17
TORSDOF 4
ENDMDL
MODEL 6
REMARK VINA RESULT:      -7.8      6.737      7.747
REMARK  Name = 
REMARK  4 active torsions:
REMARK  status: ('A' for Active; 'I' for Inactive)
REMARK    1  A    between atoms: N_3  and  C_4
REMARK    2  A    between atoms: C_7  and  C_8
REMARK    3  A    between atoms: N_14  and  S_15
REMARK    4  A    between atoms: S_15  and  C_18
REMARK                            x       y       z     vdW  Elec       q    Type
REMARK                         _______ _______ _______ _____ _____    ______ ____
ROOT
ATOM      1  O   UNL     1       7.708   8.618  17.190  0.00  0.00    +0.000 OA
ATOM      2  C   UNL     1       8.138   8.099  18.206  0.00  0.00    +0.000 C 
ATOM      3  N   UNL     1       8.886   8.724  19.176  0.00  0.00    +0.000 N 
ATOM      4  N   UNL     1       7.949   6.744  18.442  0.00  0.00    +0.000 N 
ATOM      5  H   UNL     1       9.275   8.147  19.906  0.00  0.00    +0.000 HD
ATOM      6  H   UNL     1       8.343   6.253  19.231  0.00  0.00    +0.000 HD
ENDROOT
BRANCH   3   7
ATOM      7  C   UNL     1       9.244  10.092  19.178  0.00  0.00    +0.000 A 
ATOM      8  C   UNL     1       9.479  10.815  18.006  0.00  0.00    +0.000 A 
ATOM      9  C   UNL     1       9.856  12.158  18.051  0.00  0.00    +0.000 A 
ATOM     10  C   UNL     1      10.001  12.817  19.274  0.00  0.00    +0.000 A 
ATOM     11  C   UNL     1       9.751  12.102  20.454  0.00  0.00    +0.000 A 
ATOM     12  C   UNL     1       9.365  10.753  20.407  0.00  0.00    +0.000 A 
BRANCH  10  13
ATOM     13  C   UNL     1      10.404  14.271  19.313  0.00  0.00    +0.000 C 
ATOM     14  F   UNL     1       9.387  15.109  19.660  0.00  0.00    +0.000 F 
ATOM     15  F   UNL     1      11.404  14.509  20.207  0.00  0.00    +0.000 F 
ATOM     16  F   UNL     1      10.861  14.720  18.111  0.00  0.00    +0.000 F 
ENDBRANCH  10  13
ENDBRANCH   3   7
BRANCH   4  17
ATOM     17  S   UNL     1       7.160   5.742  17.364  0.00  0.00    +0.000 S 
ATOM     18  O   UNL     1       6.944   6.545  16.182  0.00  0.00    +0.000 OA
ATOM     19  O   UNL     1       7.865   4.482  17.291  0.00  0.00    +0.000 OA
BRANCH  17  20
ATOM     20  C   UNL     1       5.559   5.488  18.104  0.00  0.00    +0.000 A 
ATOM     21  C   UNL     1       5.371   4.402  18.968  0.00  0.00    +0.000 A 
ATOM     22  C   UNL     1       4.114   4.182  19.534  0.00  0.00    +0.000 A 
ATOM     23  C   UNL     1       3.060   5.050  19.245  0.00  0.00    +0.000 A 
ATOM     24 CL   UNL     1       1.514   4.777  19.949  0.00  0.00    +0.000 Cl
ATOM     25  C   UNL     1       3.250   6.139  18.391  0.00  0.00    +0.000 A 
ATOM     26  C   UNL     1       4.505   6.359  17.815  0.00  0.00    +0.000 A 
ENDBRANCH  17  20
ENDBRANCH   4  17
TORSDOF 4
ENDMDL
MODEL 7
REMARK VINA RESULT:      -7.7      6.711      7.688
REMARK  Name = 
REMARK  4 active torsions:
REMARK  status: ('A' for Active; 'I' for Inactive)
REMARK    1  A    between atoms: N_3  and  C_4
REMARK    2  A    between atoms: C_7  and  C_8
REMARK    3  A    between atoms: N_14  and  S_15
REMARK    4  A    between atoms: S_15  and  C_18
REMARK                            x       y       z     vdW  Elec       q    Type
REMARK                         _______ _______ _______ _____ _____    ______ ____
ROOT
ATOM      1  O   UNL     1       7.610   8.649  17.230  0.00  0.00    +0.000 OA
ATOM      2  C   UNL     1       8.118   8.111  18.199  0.00  0.00    +0.000 C 
ATOM      3  N   UNL     1       8.910   8.725  19.139  0.00  0.00    +0.000 N 
ATOM      4  N   UNL     1       7.980   6.744  18.400  0.00  0.00    +0.000 N 
ATOM      5  H   UNL     1       9.361   8.136  19.823  0.00  0.00    +0.000 HD
ATOM      6  H   UNL     1       8.437   6.239  19.146  0.00  0.00    +0.000 HD
ENDROOT
BRANCH   3   7
ATOM      7  C   UNL     1       9.232  10.102  19.165  0.00  0.00    +0.000 A 
ATOM      8  C   UNL     1       9.425  10.856  18.005  0.00  0.00    +0.000 A 
ATOM      9  C   UNL     1       9.767  12.207  18.072  0.00  0.00    +0.000 A 
ATOM     10  C   UNL     1       9.918  12.844  19.307  0.00  0.00    +0.000 A 
ATOM     11  C   UNL     1       9.710  12.097  20.475  0.00  0.00    +0.000 A 
ATOM     12  C   UNL     1       9.359  10.739  20.406  0.00  0.00    +0.000 A 
BRANCH  10  13
ATOM     13  C   UNL     1      10.283  14.306  19.370  0.00  0.00    +0.000 C 
ATOM     14  F   UNL     1      10.330  14.802  20.639  0.00  0.00    +0.000 F 
ATOM     15  F   UNL     1      11.506  14.561  18.827  0.00  0.00    +0.000 F 
ATOM     16  F   UNL     1       9.402  15.096  18.695  0.00  0.00    +0.000 F 
ENDBRANCH  10  13
ENDBRANCH   3   7
BRANCH   4  17
ATOM     17  S   UNL     1       7.150   5.755  17.342  0.00  0.00    +0.000 S 
ATOM     18  O   UNL     1       6.913   6.564  16.168  0.00  0.00    +0.000 OA
ATOM     19  O   UNL     1       7.836   4.486  17.246  0.00  0.00    +0.000 OA
BRANCH  17  20
ATOM     20  C   UNL     1       5.566   5.519  18.124  0.00  0.00    +0.000 A 
ATOM     21  C   UNL     1       4.520   6.401  17.827  0.00  0.00    +0.000 A 
ATOM     22  C   UNL     1       3.282   6.237  18.452  0.00  0.00    +0.000 A 
ATOM     23  C   UNL     1       3.094   5.191  19.357  0.00  0.00    +0.000 A 
ATOM     24 CL   UNL     1       1.565   4.991  20.120  0.00  0.00    +0.000 Cl
ATOM     25  C   UNL     1       4.134   4.306  19.645  0.00  0.00    +0.000 A 
ATOM     26  C   UNL     1       5.378   4.470  19.028  0.00  0.00    +0.000 A 
ENDBRANCH  17  20
ENDBRANCH   4  17
TORSDOF 4
ENDMDL
MODEL 8
REMARK VINA RESULT:      -7.7      6.342      7.478
REMARK  Name = 
REMARK  4 active torsions:
REMARK  status: ('A' for Active; 'I' for Inactive)
REMARK    1  A    between atoms: N_3  and  C_4
REMARK    2  A    between atoms: C_7  and  C_8
REMARK    3  A    between atoms: N_14  and  S_15
REMARK    4  A    between atoms: S_15  and  C_18
REMARK                            x       y       z     vdW  Elec       q    Type
REMARK                         _______ _______ _______ _____ _____    ______ ____
ROOT
ATOM      1  O   UNL     1       8.184   7.014  18.783  0.00  0.00    +0.000 OA
ATOM      2  C   UNL     1       7.876   7.455  17.688  0.00  0.00    +0.000 C 
ATOM      3  N   UNL     1       7.977   8.767  17.290  0.00  0.00    +0.000 N 
ATOM      4  N   UNL     1       7.307   6.628  16.729  0.00  0.00    +0.000 N 
ATOM      5  H   UNL     1       7.576   9.013  16.398  0.00  0.00    +0.000 HD
ATOM      6  H   UNL     1       6.972   6.956  15.835  0.00  0.00    +0.000 HD
ENDROOT
BRANCH   3   7
ATOM      7  C   UNL     1       8.500   9.822  18.073  0.00  0.00    +0.000 A 
ATOM      8  C   UNL     1       8.489  11.154  17.653  0.00  0.00    +0.000 A 
ATOM      9  C   UNL     1       9.039  12.164  18.443  0.00  0.00    +0.000 A 
ATOM     10  C   UNL     1       9.610  11.867  19.683  0.00  0.00    +0.000 A 
ATOM     11  C   UNL     1       9.611  10.534  20.118  0.00  0.00    +0.000 A 
ATOM     12  C   UNL     1       9.050   9.520  19.325  0.00  0.00    +0.000 A 
BRANCH  10  13
ATOM     13  C   UNL     1      10.199  12.966  20.533  0.00  0.00    +0.000 C 
ATOM     14  F   UNL     1      11.534  13.152  20.336  0.00  0.00    +0.000 F 
ATOM     15  F   UNL     1       9.617  14.175  20.296  0.00  0.00    +0.000 F 
ATOM     16  F   UNL     1      10.049  12.733  21.867  0.00  0.00    +0.000 F 
ENDBRANCH  10  13
ENDBRANCH   3   7
BRANCH   4  17
ATOM     17  S   UNL     1       6.985   5.013  17.005  0.00  0.00    +0.000 S 
ATOM     18  O   UNL     1       6.689   4.454  15.706  0.00  0.00    +0.000 OA
ATOM     19  O   UNL     1       8.033   4.460  17.833  0.00  0.00    +0.000 OA
BRANCH  17  20
ATOM     20  C   UNL     1       5.453   5.028  17.914  0.00  0.00    +0.000 A 
ATOM     21  C   UNL     1       5.227   4.048  18.888  0.00  0.00    +0.000 A 
ATOM     22  C   UNL     1       4.020   4.039  19.589  0.00  0.00    +0.000 A 
ATOM     23  C   UNL     1       3.054   5.010  19.322  0.00  0.00    +0.000 A 
ATOM     24 CL   UNL     1       1.569   4.996  20.192  0.00  0.00    +0.000 Cl
ATOM     25  C   UNL     1       3.283   5.993  18.358  0.00  0.00    +0.000 A 
ATOM     26  C   UNL     1       4.487   6.003  17.647  0.00  0.00    +0.000 A 
ENDBRANCH  17  20
ENDBRANCH   4  17
TORSDOF 4
ENDMDL
MODEL 9
REMARK VINA RESULT:      -7.7      6.621      7.694
REMARK  Name = 
REMARK  4 active torsions:
REMARK  status: ('A' for Active; 'I' for Inactive)
REMARK    1  A    between atoms: N_3  and  C_4
REMARK    2  A    between atoms: C_7  and  C_8
REMARK    3  A    between atoms: N_14  and  S_15
REMARK    4  A    between atoms: S_15  and  C_18
REMARK                            x       y       z     vdW  Elec       q    Type
REMARK                         _______ _______ _______ _____ _____    ______ ____
ROOT
ATOM      1  O   UNL     1       7.495   8.662  17.298  0.00  0.00    +0.000 OA
ATOM      2  C   UNL     1       8.093   8.105  18.204  0.00  0.00    +0.000 C 
ATOM      3  N   UNL     1       8.933   8.712  19.107  0.00  0.00    +0.000 N 
ATOM      4  N   UNL     1       8.018   6.727  18.358  0.00  0.00    +0.000 N 
ATOM      5  H   UNL     1       9.455   8.115  19.730  0.00  0.00    +0.000 HD
ATOM      6  H   UNL     1       8.548   6.211  19.046  0.00  0.00    +0.000 HD
ENDROOT
BRANCH   3   7
ATOM      7  C   UNL     1       9.208  10.098  19.166  0.00  0.00    +0.000 A 
ATOM      8  C   UNL     1       9.244  10.812  20.366  0.00  0.00    +0.000 A 
ATOM      9  C   UNL     1       9.493  12.185  20.381  0.00  0.00    +0.000 A 
ATOM     10  C   UNL     1       9.721  12.881  19.191  0.00  0.00    +0.000 A 
ATOM     11  C   UNL     1       9.701  12.168  17.984  0.00  0.00    +0.000 A 
ATOM     12  C   UNL     1       9.458  10.785  17.971  0.00  0.00    +0.000 A 
BRANCH  10  13
ATOM     13  C   UNL     1       9.994  14.365  19.216  0.00  0.00    +0.000 C 
ATOM     14  F   UNL     1      11.291  14.675  19.497  0.00  0.00    +0.000 F 
ATOM     15  F   UNL     1       9.719  14.965  18.025  0.00  0.00    +0.000 F 
ATOM     16  F   UNL     1       9.246  15.019  20.147  0.00  0.00    +0.000 F 
ENDBRANCH  10  13
ENDBRANCH   3   7
BRANCH   4  17
ATOM     17  S   UNL     1       7.145   5.750  17.324  0.00  0.00    +0.000 S 
ATOM     18  O   UNL     1       6.926   6.545  16.138  0.00  0.00    +0.000 OA
ATOM     19  O   UNL     1       7.785   4.456  17.246  0.00  0.00    +0.000 OA
BRANCH  17  20
ATOM     20  C   UNL     1       5.561   5.584  18.123  0.00  0.00    +0.000 A 
ATOM     21  C   UNL     1       5.396   4.611  19.116  0.00  0.00    +0.000 A 
ATOM     22  C   UNL     1       4.152   4.459  19.732  0.00  0.00    +0.000 A 
ATOM     23  C   UNL     1       3.088   5.283  19.361  0.00  0.00    +0.000 A 
ATOM     24 CL   UNL     1       1.558   5.094  20.126  0.00  0.00    +0.000 Cl
ATOM     25  C   UNL     1       3.255   6.260  18.377  0.00  0.00    +0.000 A 
ATOM     26  C   UNL     1       4.496   6.411  17.752  0.00  0.00    +0.000 A 
ENDBRANCH  17  20
ENDBRANCH   4  17
TORSDOF 4
ENDMDL
