MODEL 1
REMARK VINA RESULT:      -6.7      0.000      0.000
REMARK  Name = 
REMARK  4 active torsions:
REMARK  status: ('A' for Active; 'I' for Inactive)
REMARK    1  A    between atoms: C_2  and  O_3
REMARK    2  A    between atoms: C_2  and  C_4
REMARK    3  A    between atoms: C_4  and  C_5
REMARK    4  A    between atoms: C_8  and  O_9
REMARK                            x       y       z     vdW  Elec       q    Type
REMARK                         _______ _______ _______ _____ _____    ______ ____
ROOT
ATOM      1  C   UNL     1       6.163   5.610  16.530  0.00  0.00    +0.000 A 
ATOM      2  C   UNL     1       7.221   6.437  16.938  0.00  0.00    +0.000 A 
ATOM      3  C   UNL     1       7.671   6.403  18.252  0.00  0.00    +0.000 A 
ATOM      4  C   UNL     1       7.070   5.533  19.161  0.00  0.00    +0.000 A 
ATOM      5  C   UNL     1       6.005   4.692  18.809  0.00  0.00    +0.000 A 
ATOM      6  N   UNL     1       5.465   3.851  19.719  0.00  0.00    +0.000 NA
ATOM      7  C   UNL     1       4.453   3.041  19.350  0.00  0.00    +0.000 A 
ATOM      8  C   UNL     1       3.921   3.023  18.082  0.00  0.00    +0.000 A 
ATOM      9  C   UNL     1       4.469   3.882  17.140  0.00  0.00    +0.000 A 
ATOM     10  C   UNL     1       5.540   4.740  17.472  0.00  0.00    +0.000 A 
ENDROOT
BRANCH   4  11
ATOM     11  O   UNL     1       7.555   5.491  20.448  0.00  0.00    +0.000 OA
ATOM     12  H   UNL     1       6.890   5.835  21.064  0.00  0.00    +0.000 HD
ENDBRANCH   4  11
BRANCH   1  13
ATOM     13  C   UNL     1       5.772   5.623  15.064  0.00  0.00    +0.000 C 
BRANCH  13  15
ATOM     14  O   UNL     1       6.354   3.743  13.697  0.00  0.00    +0.000 OA
ATOM     15  C   UNL     1       6.665   4.848  14.114  0.00  0.00    +0.000 C 
BRANCH  15  16
ATOM     16  O   UNL     1       7.821   5.435  13.733  0.00  0.00    +0.000 OA
ATOM     17  H   UNL     1       8.598   5.267  14.298  0.00  0.00    +0.000 HD
ENDBRANCH  15  16
ENDBRANCH  13  15
ENDBRANCH   1  13
TORSDOF 4
ENDMDL
MODEL 2
REMARK VINA RESULT:      -6.6      2.618      3.039
REMARK  Name = 
REMARK  4 active torsions:
REMARK  status: ('A' for Active; 'I' for Inactive)
REMARK    1  A    between atoms: C_2  and  O_3
REMARK    2  A    between atoms: C_2  and  C_4
REMARK    3  A    between atoms: C_4  and  C_5
REMARK    4  A    between atoms: C_8  and  O_9
REMARK                            x       y       z     vdW  Elec       q    Type
REMARK                         _______ _______ _______ _____ _____    ______ ____
ROOT
ATOM      1  C   UNL     1       4.695   4.924  16.631  0.00  0.00    +0.000 A 
ATOM      2  C   UNL     1       4.892   6.310  16.721  0.00  0.00    +0.000 A 
ATOM      3  C   UNL     1       4.057   7.086  17.516  0.00  0.00    +0.000 A 
ATOM      4  C   UNL     1       3.028   6.476  18.232  0.00  0.00    +0.000 A 
ATOM      5  C   UNL     1       2.782   5.097  18.170  0.00  0.00    +0.000 A 
ATOM      6  N   UNL     1       1.784   4.544  18.896  0.00  0.00    +0.000 NA
ATOM      7  C   UNL     1       1.580   3.214  18.832  0.00  0.00    +0.000 A 
ATOM      8  C   UNL     1       2.334   2.369  18.053  0.00  0.00    +0.000 A 
ATOM      9  C   UNL     1       3.362   2.925  17.305  0.00  0.00    +0.000 A 
ATOM     10  C   UNL     1       3.627   4.311  17.348  0.00  0.00    +0.000 A 
ENDROOT
BRANCH   4  11
ATOM     11  O   UNL     1       2.235   7.258  19.040  0.00  0.00    +0.000 OA
ATOM     12  H   UNL     1       1.396   7.449  18.596  0.00  0.00    +0.000 HD
ENDBRANCH   4  11
BRANCH   1  13
ATOM     13  C   UNL     1       5.690   4.115  15.820  0.00  0.00    +0.000 C 
BRANCH  13  15
ATOM     14  O   UNL     1       7.544   5.254  14.815  0.00  0.00    +0.000 OA
ATOM     15  C   UNL     1       7.115   4.634  15.776  0.00  0.00    +0.000 C 
BRANCH  15  16
ATOM     16  O   UNL     1       7.894   4.395  16.853  0.00  0.00    +0.000 OA
ATOM     17  H   UNL     1       7.498   4.582  17.724  0.00  0.00    +0.000 HD
ENDBRANCH  15  16
ENDBRANCH  13  15
ENDBRANCH   1  13
TORSDOF 4
ENDMDL
MODEL 3
REMARK VINA RESULT:      -6.6      2.794      4.305
REMARK  Name = 
REMARK  4 active torsions:
REMARK  status: ('A' for Active; 'I' for Inactive)
REMARK    1  A    between atoms: C_2  and  O_3
REMARK    2  A    between atoms: C_2  and  C_4
REMARK    3  A    between atoms: C_4  and  C_5
REMARK    4  A    between atoms: C_8  and  O_9
REMARK                            x       y       z     vdW  Elec       q    Type
REMARK                         _______ _______ _______ _____ _____    ______ ____
ROOT
ATOM      1  C   UNL     1       4.596   4.005  17.710  0.00  0.00    +0.000 A 
ATOM      2  C   UNL     1       4.871   4.498  18.995  0.00  0.00    +0.000 A 
ATOM      3  C   UNL     1       5.982   5.303  19.214  0.00  0.00    +0.000 A 
ATOM      4  C   UNL     1       6.818   5.626  18.145  0.00  0.00    +0.000 A 
ATOM      5  C   UNL     1       6.594   5.153  16.845  0.00  0.00    +0.000 A 
ATOM      6  N   UNL     1       7.420   5.507  15.834  0.00  0.00    +0.000 NA
ATOM      7  C   UNL     1       7.173   5.052  14.590  0.00  0.00    +0.000 A 
ATOM      8  C   UNL     1       6.116   4.228  14.281  0.00  0.00    +0.000 A 
ATOM      9  C   UNL     1       5.261   3.861  15.310  0.00  0.00    +0.000 A 
ATOM     10  C   UNL     1       5.468   4.322  16.628  0.00  0.00    +0.000 A 
ENDROOT
BRANCH   4  11
ATOM     11  O   UNL     1       7.892   6.453  18.378  0.00  0.00    +0.000 OA
ATOM     12  H   UNL     1       8.643   5.936  18.707  0.00  0.00    +0.000 HD
ENDBRANCH   4  11
BRANCH   1  13
ATOM     13  C   UNL     1       3.322   3.206  17.512  0.00  0.00    +0.000 C 
BRANCH  13  15
ATOM     14  O   UNL     1       2.164   1.809  19.078  0.00  0.00    +0.000 OA
ATOM     15  C   UNL     1       3.151   1.971  18.377  0.00  0.00    +0.000 C 
BRANCH  15  16
ATOM     16  O   UNL     1       4.133   1.045  18.335  0.00  0.00    +0.000 OA
ATOM     17  H   UNL     1       5.041   1.369  18.483  0.00  0.00    +0.000 HD
ENDBRANCH  15  16
ENDBRANCH  13  15
ENDBRANCH   1  13
TORSDOF 4
ENDMDL
MODEL 4
REMARK VINA RESULT:      -6.4      1.235      2.997
REMARK  Name = 
REMARK  4 active torsions:
REMARK  status: ('A' for Active; 'I' for Inactive)
REMARK    1  A    between atoms: C_2  and  O_3
REMARK    2  A    between atoms: C_2  and  C_4
REMARK    3  A    between atoms: C_4  and  C_5
REMARK    4  A    between atoms: C_8  and  O_9
REMARK                            x       y       z     vdW  Elec       q    Type
REMARK                         _______ _______ _______ _____ _____    ______ ____
ROOT
ATOM      1  C   UNL     1       5.349   4.742  16.273  0.00  0.00    +0.000 A 
ATOM      2  C   UNL     1       4.286   3.837  16.411  0.00  0.00    +0.000 A 
ATOM      3  C   UNL     1       3.975   3.306  17.657  0.00  0.00    +0.000 A 
ATOM      4  C   UNL     1       4.721   3.686  18.772  0.00  0.00    +0.000 A 
ATOM      5  C   UNL     1       5.798   4.579  18.688  0.00  0.00    +0.000 A 
ATOM      6  N   UNL     1       6.483   4.935  19.799  0.00  0.00    +0.000 NA
ATOM      7  C   UNL     1       7.503   5.809  19.693  0.00  0.00    +0.000 A 
ATOM      8  C   UNL     1       7.903   6.366  18.502  0.00  0.00    +0.000 A 
ATOM      9  C   UNL     1       7.207   6.008  17.356  0.00  0.00    +0.000 A 
ATOM     10  C   UNL     1       6.121   5.108  17.415  0.00  0.00    +0.000 A 
ENDROOT
BRANCH   4  11
ATOM     11  O   UNL     1       4.373   3.175  20.001  0.00  0.00    +0.000 OA
ATOM     12  H   UNL     1       4.290   2.211  19.948  0.00  0.00    +0.000 HD
ENDBRANCH   4  11
BRANCH   1  13
ATOM     13  C   UNL     1       5.588   5.358  14.908  0.00  0.00    +0.000 C 
BRANCH  13  15
ATOM     14  O   UNL     1       7.765   5.348  13.906  0.00  0.00    +0.000 OA
ATOM     15  C   UNL     1       6.708   4.760  14.078  0.00  0.00    +0.000 C 
BRANCH  15  16
ATOM     16  O   UNL     1       6.497   3.538  13.542  0.00  0.00    +0.000 OA
ATOM     17  H   UNL     1       6.985   3.336  12.722  0.00  0.00    +0.000 HD
ENDBRANCH  15  16
ENDBRANCH  13  15
ENDBRANCH   1  13
TORSDOF 4
ENDMDL
MODEL 5
REMARK VINA RESULT:      -6.2      2.631      3.134
REMARK  Name = 
REMARK  4 active torsions:
REMARK  status: ('A' for Active; 'I' for Inactive)
REMARK    1  A    between atoms: C_2  and  O_3
REMARK    2  A    between atoms: C_2  and  C_4
REMARK    3  A    between atoms: C_4  and  C_5
REMARK    4  A    between atoms: C_8  and  O_9
REMARK                            x       y       z     vdW  Elec       q    Type
REMARK                         _______ _______ _______ _____ _____    ______ ____
ROOT
ATOM      1  C   UNL     1       4.427   5.419  17.022  0.00  0.00    +0.000 A 
ATOM      2  C   UNL     1       4.139   6.740  17.398  0.00  0.00    +0.000 A 
ATOM      3  C   UNL     1       3.258   6.996  18.442  0.00  0.00    +0.000 A 
ATOM      4  C   UNL     1       2.669   5.930  19.120  0.00  0.00    +0.000 A 
ATOM      5  C   UNL     1       2.915   4.592  18.780  0.00  0.00    +0.000 A 
ATOM      6  N   UNL     1       2.336   3.589  19.478  0.00  0.00    +0.000 NA
ATOM      7  C   UNL     1       2.603   2.312  19.141  0.00  0.00    +0.000 A 
ATOM      8  C   UNL     1       3.437   1.960  18.107  0.00  0.00    +0.000 A 
ATOM      9  C   UNL     1       4.038   2.981  17.385  0.00  0.00    +0.000 A 
ATOM     10  C   UNL     1       3.803   4.336  17.707  0.00  0.00    +0.000 A 
ENDROOT
BRANCH   4  11
ATOM     11  O   UNL     1       1.827   6.205  20.174  0.00  0.00    +0.000 OA
ATOM     12  H   UNL     1       1.645   7.156  20.211  0.00  0.00    +0.000 HD
ENDBRANCH   4  11
BRANCH   1  13
ATOM     13  C   UNL     1       5.462   5.197  15.936  0.00  0.00    +0.000 C 
BRANCH  13  15
ATOM     14  O   UNL     1       7.514   6.407  16.202  0.00  0.00    +0.000 OA
ATOM     15  C   UNL     1       6.917   5.351  16.341  0.00  0.00    +0.000 C 
BRANCH  15  16
ATOM     16  O   UNL     1       7.528   4.272  16.876  0.00  0.00    +0.000 OA
ATOM     17  H   UNL     1       8.498   4.234  16.782  0.00  0.00    +0.000 HD
ENDBRANCH  15  16
ENDBRANCH  13  15
ENDBRANCH   1  13
TORSDOF 4
ENDMDL
MODEL 6
REMARK VINA RESULT:      -6.2      2.869      4.247
REMARK  Name = 
REMARK  4 active torsions:
REMARK  status: ('A' for Active; 'I' for Inactive)
REMARK    1  A    between atoms: C_2  and  O_3
REMARK    2  A    between atoms: C_2  and  C_4
REMARK    3  A    between atoms: C_4  and  C_5
REMARK    4  A    between atoms: C_8  and  O_9
REMARK                            x       y       z     vdW  Elec       q    Type
REMARK                         _______ _______ _______ _____ _____    ______ ____
ROOT
ATOM      1  C   UNL     1       4.761   4.125  17.983  0.00  0.00    +0.000 A 
ATOM      2  C   UNL     1       5.099   4.680  19.227  0.00  0.00    +0.000 A 
ATOM      3  C   UNL     1       6.202   5.517  19.345  0.00  0.00    +0.000 A 
ATOM      4  C   UNL     1       6.966   5.810  18.216  0.00  0.00    +0.000 A 
ATOM      5  C   UNL     1       6.678   5.276  16.952  0.00  0.00    +0.000 A 
ATOM      6  N   UNL     1       7.435   5.602  15.880  0.00  0.00    +0.000 NA
ATOM      7  C   UNL     1       7.126   5.088  14.674  0.00  0.00    +0.000 A 
ATOM      8  C   UNL     1       6.073   4.229  14.463  0.00  0.00    +0.000 A 
ATOM      9  C   UNL     1       5.289   3.889  15.556  0.00  0.00    +0.000 A 
ATOM     10  C   UNL     1       5.561   4.412  16.838  0.00  0.00    +0.000 A 
ENDROOT
BRANCH   4  11
ATOM     11  O   UNL     1       8.032   6.669  18.348  0.00  0.00    +0.000 OA
ATOM     12  H   UNL     1       8.790   6.337  17.844  0.00  0.00    +0.000 HD
ENDBRANCH   4  11
BRANCH   1  13
ATOM     13  C   UNL     1       3.498   3.291  17.895  0.00  0.00    +0.000 C 
BRANCH  13  15
ATOM     14  O   UNL     1       2.144   5.268  17.827  0.00  0.00    +0.000 OA
ATOM     15  C   UNL     1       2.183   4.047  17.873  0.00  0.00    +0.000 C 
BRANCH  15  16
ATOM     16  O   UNL     1       1.047   3.317  17.892  0.00  0.00    +0.000 OA
ATOM     17  H   UNL     1       0.870   2.814  18.709  0.00  0.00    +0.000 HD
ENDBRANCH  15  16
ENDBRANCH  13  15
ENDBRANCH   1  13
TORSDOF 4
ENDMDL
MODEL 7
REMARK VINA RESULT:      -6.2      2.450      2.927
REMARK  Name = 
REMARK  4 active torsions:
REMARK  status: ('A' for Active; 'I' for Inactive)
REMARK    1  A    between atoms: C_2  and  O_3
REMARK    2  A    between atoms: C_2  and  C_4
REMARK    3  A    between atoms: C_4  and  C_5
REMARK    4  A    between atoms: C_8  and  O_9
REMARK                            x       y       z     vdW  Elec       q    Type
REMARK                         _______ _______ _______ _____ _____    ______ ____
ROOT
ATOM      1  C   UNL     1       5.008   4.906  16.706  0.00  0.00    +0.000 A 
ATOM      2  C   UNL     1       5.183   6.297  16.758  0.00  0.00    +0.000 A 
ATOM      3  C   UNL     1       4.238   7.099  17.386  0.00  0.00    +0.000 A 
ATOM      4  C   UNL     1       3.118   6.510  17.973  0.00  0.00    +0.000 A 
ATOM      5  C   UNL     1       2.891   5.127  17.942  0.00  0.00    +0.000 A 
ATOM      6  N   UNL     1       1.800   4.598  18.541  0.00  0.00    +0.000 NA
ATOM      7  C   UNL     1       1.614   3.264  18.511  0.00  0.00    +0.000 A 
ATOM      8  C   UNL     1       2.478   2.392  17.890  0.00  0.00    +0.000 A 
ATOM      9  C   UNL     1       3.601   2.925  17.274  0.00  0.00    +0.000 A 
ATOM     10  C   UNL     1       3.849   4.315  17.289  0.00  0.00    +0.000 A 
ENDROOT
BRANCH   4  11
ATOM     11  O   UNL     1       2.213   7.320  18.620  0.00  0.00    +0.000 OA
ATOM     12  H   UNL     1       1.405   7.401  18.093  0.00  0.00    +0.000 HD
ENDBRANCH   4  11
BRANCH   1  13
ATOM     13  C   UNL     1       6.113   4.072  16.087  0.00  0.00    +0.000 C 
BRANCH  13  15
ATOM     14  O   UNL     1       7.571   5.260  14.601  0.00  0.00    +0.000 OA
ATOM     15  C   UNL     1       6.615   4.510  14.724  0.00  0.00    +0.000 C 
BRANCH  15  16
ATOM     16  O   UNL     1       5.968   4.027  13.641  0.00  0.00    +0.000 OA
ATOM     17  H   UNL     1       5.081   4.394  13.467  0.00  0.00    +0.000 HD
ENDBRANCH  15  16
ENDBRANCH  13  15
ENDBRANCH   1  13
TORSDOF 4
ENDMDL
MODEL 8
REMARK VINA RESULT:      -6.1      2.672      4.507
REMARK  Name = 
REMARK  4 active torsions:
REMARK  status: ('A' for Active; 'I' for Inactive)
REMARK    1  A    between atoms: C_2  and  O_3
REMARK    2  A    between atoms: C_2  and  C_4
REMARK    3  A    between atoms: C_4  and  C_5
REMARK    4  A    between atoms: C_8  and  O_9
REMARK                            x       y       z     vdW  Elec       q    Type
REMARK                         _______ _______ _______ _____ _____    ______ ____
ROOT
ATOM      1  C   UNL     1       4.666   3.968  16.825  0.00  0.00    +0.000 A 
ATOM      2  C   UNL     1       4.711   3.819  15.430  0.00  0.00    +0.000 A 
ATOM      3  C   UNL     1       5.762   4.361  14.701  0.00  0.00    +0.000 A 
ATOM      4  C   UNL     1       6.778   5.047  15.366  0.00  0.00    +0.000 A 
ATOM      5  C   UNL     1       6.778   5.231  16.755  0.00  0.00    +0.000 A 
ATOM      6  N   UNL     1       7.794   5.886  17.361  0.00  0.00    +0.000 NA
ATOM      7  C   UNL     1       7.778   6.035  18.700  0.00  0.00    +0.000 A 
ATOM      8  C   UNL     1       6.768   5.560  19.503  0.00  0.00    +0.000 A 
ATOM      9  C   UNL     1       5.721   4.885  18.892  0.00  0.00    +0.000 A 
ATOM     10  C   UNL     1       5.698   4.689  17.494  0.00  0.00    +0.000 A 
ENDROOT
BRANCH   4  11
ATOM     11  O   UNL     1       7.827   5.544  14.628  0.00  0.00    +0.000 OA
ATOM     12  H   UNL     1       8.186   4.851  14.053  0.00  0.00    +0.000 HD
ENDBRANCH   4  11
BRANCH   1  13
ATOM     13  C   UNL     1       3.544   3.281  17.579  0.00  0.00    +0.000 C 
BRANCH  13  15
ATOM     14  O   UNL     1       2.256   5.286  17.834  0.00  0.00    +0.000 OA
ATOM     15  C   UNL     1       2.258   4.067  17.750  0.00  0.00    +0.000 C 
BRANCH  15  16
ATOM     16  O   UNL     1       1.104   3.366  17.795  0.00  0.00    +0.000 OA
ATOM     17  H   UNL     1       0.380   3.759  18.317  0.00  0.00    +0.000 HD
ENDBRANCH  15  16
ENDBRANCH  13  15
ENDBRANCH   1  13
TORSDOF 4
ENDMDL
MODEL 9
REMARK VINA RESULT:      -6.0      2.913      4.004
REMARK  Name = 
REMARK  4 active torsions:
REMARK  status: ('A' for Active; 'I' for Inactive)
REMARK    1  A    between atoms: C_2  and  O_3
REMARK    2  A    between atoms: C_2  and  C_4
REMARK    3  A    between atoms: C_4  and  C_5
REMARK    4  A    between atoms: C_8  and  O_9
REMARK                            x       y       z     vdW  Elec       q    Type
REMARK                         _______ _______ _______ _____ _____    ______ ____
ROOT
ATOM      1  C   UNL     1       4.572   4.292  17.961  0.00  0.00    +0.000 A 
ATOM      2  C   UNL     1       4.441   3.173  18.797  0.00  0.00    +0.000 A 
ATOM      3  C   UNL     1       3.603   3.221  19.905  0.00  0.00    +0.000 A 
ATOM      4  C   UNL     1       2.886   4.387  20.174  0.00  0.00    +0.000 A 
ATOM      5  C   UNL     1       2.987   5.535  19.376  0.00  0.00    +0.000 A 
ATOM      6  N   UNL     1       2.259   6.638  19.664  0.00  0.00    +0.000 NA
ATOM      7  C   UNL     1       2.363   7.722  18.871  0.00  0.00    +0.000 A 
ATOM      8  C   UNL     1       3.185   7.780  17.771  0.00  0.00    +0.000 A 
ATOM      9  C   UNL     1       3.936   6.654  17.466  0.00  0.00    +0.000 A 
ATOM     10  C   UNL     1       3.853   5.487  18.256  0.00  0.00    +0.000 A 
ENDROOT
BRANCH   4  11
ATOM     11  O   UNL     1       2.035   4.400  21.255  0.00  0.00    +0.000 OA
ATOM     12  H   UNL     1       1.826   3.493  21.523  0.00  0.00    +0.000 HD
ENDBRANCH   4  11
BRANCH   1  13
ATOM     13  C   UNL     1       5.431   4.155  16.718  0.00  0.00    +0.000 C 
BRANCH  13  15
ATOM     14  O   UNL     1       7.476   5.145  15.955  0.00  0.00    +0.000 OA
ATOM     15  C   UNL     1       6.888   4.556  16.849  0.00  0.00    +0.000 C 
BRANCH  15  16
ATOM     16  O   UNL     1       7.513   4.248  18.006  0.00  0.00    +0.000 OA
ATOM     17  H   UNL     1       7.194   3.453  18.472  0.00  0.00    +0.000 HD
ENDBRANCH  15  16
ENDBRANCH  13  15
ENDBRANCH   1  13
TORSDOF 4
ENDMDL
