MODEL 1
REMARK VINA RESULT:      -8.5      0.000      0.000
REMARK  Name = 
REMARK  7 active torsions:
REMARK  status: ('A' for Active; 'I' for Inactive)
REMARK    1  A    between atoms: C_1  and  C_2
REMARK    2  A    between atoms: C_2  and  C_3
REMARK    3  A    between atoms: C_2  and  N_27
REMARK    4  A    between atoms: C_3  and  N_4
REMARK    5  A    between atoms: N_4  and  C_5
REMARK    6  A    between atoms: C_7  and  C_8
REMARK    7  A    between atoms: C_17  and  C_18
REMARK                            x       y       z     vdW  Elec       q    Type
REMARK                         _______ _______ _______ _____ _____    ______ ____
ROOT
ATOM      1  C   UNL     1       2.635   6.158  19.706  0.00  0.00    +0.000 A 
ATOM      2  N   UNL     1       3.621   5.656  18.909  0.00  0.00    +0.000 NA
ATOM      3  C   UNL     1       4.078   6.362  17.839  0.00  0.00    +0.000 A 
ATOM      4  N   UNL     1       3.666   7.581  17.467  0.00  0.00    +0.000 NA
ATOM      5  C   UNL     1       2.710   8.080  18.256  0.00  0.00    +0.000 A 
ATOM      6  N   UNL     1       2.155   9.313  18.110  0.00  0.00    +0.000 NA
ATOM      7  C   UNL     1       1.286   9.377  19.100  0.00  0.00    +0.000 A 
ATOM      8  O   UNL     1       1.232   8.252  19.899  0.00  0.00    +0.000 OA
ATOM      9  C   UNL     1       2.169   7.418  19.339  0.00  0.00    +0.000 A 
ENDROOT
BRANCH   7  10
ATOM     10  C   UNL     1       0.365  10.478  19.384  0.00  0.00    +0.000 A 
ATOM     11  C   UNL     1      -0.765  10.652  18.561  0.00  0.00    +0.000 A 
ATOM     12  C   UNL     1      -1.720  11.635  18.841  0.00  0.00    +0.000 A 
ATOM     13  C   UNL     1      -1.551  12.457  19.950  0.00  0.00    +0.000 A 
ATOM     14 CL   UNL     1      -2.750  13.627  20.336  0.00  0.00    +0.000 Cl
ATOM     15  C   UNL     1      -0.422  12.325  20.755  0.00  0.00    +0.000 A 
ATOM     16  C   UNL     1       0.537  11.341  20.471  0.00  0.00    +0.000 A 
ENDBRANCH   7  10
BRANCH   3  17
ATOM     17  C   UNL     1       5.146   5.762  17.008  0.00  0.00    +0.000 A 
ATOM     18  C   UNL     1       6.248   5.098  17.579  0.00  0.00    +0.000 A 
ATOM     19  C   UNL     1       7.259   4.547  16.783  0.00  0.00    +0.000 A 
ATOM     20  C   UNL     1       7.190   4.642  15.394  0.00  0.00    +0.000 A 
ATOM     21  C   UNL     1       6.109   5.282  14.801  0.00  0.00    +0.000 A 
ATOM     22  C   UNL     1       5.101   5.831  15.600  0.00  0.00    +0.000 A 
ENDBRANCH   3  17
BRANCH   1  23
ATOM     23  N   UNL     1       2.193   5.462  20.830  0.00  0.00    +0.000 N 
ATOM     24  H   UNL     1       2.212   6.013  21.687  0.00  0.00    +0.000 HD
BRANCH  23  25
ATOM     25  C   UNL     1       1.015   4.600  20.692  0.00  0.00    +0.000 C 
BRANCH  25  27
ATOM     26  C   UNL     1       2.043   2.878  22.212  0.00  0.00    +0.000 C 
ATOM     27  C   UNL     1       1.290   3.071  20.884  0.00  0.00    +0.000 C 
BRANCH  27  28
ATOM     28  N   UNL     1       1.970   2.374  19.739  0.00  0.00    +0.000 NA
ATOM     29  C   UNL     1       1.652   3.029  18.447  0.00  0.00    +0.000 C 
ATOM     30  C   UNL     1       2.310   2.331  17.255  0.00  0.00    +0.000 C 
ATOM     31  C   UNL     1       3.818   2.245  17.418  0.00  0.00    +0.000 C 
ATOM     32  C   UNL     1       4.160   1.644  18.772  0.00  0.00    +0.000 C 
ATOM     33  C   UNL     1       3.440   2.365  19.915  0.00  0.00    +0.000 C 
ENDBRANCH  27  28
ENDBRANCH  25  27
ENDBRANCH  23  25
ENDBRANCH   1  23
TORSDOF 6
ENDMDL
MODEL 2
REMARK VINA RESULT:      -8.4      0.624      1.128
REMARK  Name = 
REMARK  7 active torsions:
REMARK  status: ('A' for Active; 'I' for Inactive)
REMARK    1  A    between atoms: C_1  and  C_2
REMARK    2  A    between atoms: C_2  and  C_3
REMARK    3  A    between atoms: C_2  and  N_27
REMARK    4  A    between atoms: C_3  and  N_4
REMARK    5  A    between atoms: N_4  and  C_5
REMARK    6  A    between atoms: C_7  and  C_8
REMARK    7  A    between atoms: C_17  and  C_18
REMARK                            x       y       z     vdW  Elec       q    Type
REMARK                         _______ _______ _______ _____ _____    ______ ____
ROOT
ATOM      1  C   UNL     1       2.504   6.381  19.635  0.00  0.00    +0.000 A 
ATOM      2  N   UNL     1       3.482   5.822  18.866  0.00  0.00    +0.000 NA
ATOM      3  C   UNL     1       4.012   6.501  17.813  0.00  0.00    +0.000 A 
ATOM      4  N   UNL     1       3.685   7.743  17.433  0.00  0.00    +0.000 NA
ATOM      5  C   UNL     1       2.738   8.297  18.195  0.00  0.00    +0.000 A 
ATOM      6  N   UNL     1       2.262   9.561  18.036  0.00  0.00    +0.000 NA
ATOM      7  C   UNL     1       1.369   9.676  19.000  0.00  0.00    +0.000 A 
ATOM      8  O   UNL     1       1.224   8.555  19.794  0.00  0.00    +0.000 OA
ATOM      9  C   UNL     1       2.126   7.667  19.258  0.00  0.00    +0.000 A 
ENDROOT
BRANCH   7  10
ATOM     10  C   UNL     1       0.508  10.830  19.260  0.00  0.00    +0.000 A 
ATOM     11  C   UNL     1      -0.494  10.725  20.245  0.00  0.00    +0.000 A 
ATOM     12  C   UNL     1      -1.286  11.824  20.591  0.00  0.00    +0.000 A 
ATOM     13  C   UNL     1      -1.085  13.042  19.950  0.00  0.00    +0.000 A 
ATOM     14 CL   UNL     1      -2.013  14.414  20.412  0.00  0.00    +0.000 Cl
ATOM     15  C   UNL     1      -0.125  13.156  18.948  0.00  0.00    +0.000 A 
ATOM     16  C   UNL     1       0.667  12.052  18.599  0.00  0.00    +0.000 A 
ENDBRANCH   7  10
BRANCH   3  17
ATOM     17  C   UNL     1       5.067   5.839  17.012  0.00  0.00    +0.000 A 
ATOM     18  C   UNL     1       5.042   5.838  15.605  0.00  0.00    +0.000 A 
ATOM     19  C   UNL     1       6.037   5.196  14.859  0.00  0.00    +0.000 A 
ATOM     20  C   UNL     1       7.086   4.542  15.503  0.00  0.00    +0.000 A 
ATOM     21  C   UNL     1       7.144   4.536  16.891  0.00  0.00    +0.000 A 
ATOM     22  C   UNL     1       6.148   5.179  17.633  0.00  0.00    +0.000 A 
ENDBRANCH   3  17
BRANCH   1  23
ATOM     23  N   UNL     1       1.987   5.711  20.744  0.00  0.00    +0.000 N 
ATOM     24  H   UNL     1       1.854   6.308  21.557  0.00  0.00    +0.000 HD
BRANCH  23  25
ATOM     25  C   UNL     1       0.914   4.737  20.526  0.00  0.00    +0.000 C 
BRANCH  25  27
ATOM     26  C   UNL     1       2.208   3.159  21.998  0.00  0.00    +0.000 C 
ATOM     27  C   UNL     1       1.325   3.241  20.739  0.00  0.00    +0.000 C 
BRANCH  27  28
ATOM     28  N   UNL     1       1.953   2.555  19.560  0.00  0.00    +0.000 NA
ATOM     29  C   UNL     1       1.691   3.299  18.303  0.00  0.00    +0.000 C 
ATOM     30  C   UNL     1       2.296   2.615  17.076  0.00  0.00    +0.000 C 
ATOM     31  C   UNL     1       3.793   2.404  17.233  0.00  0.00    +0.000 C 
ATOM     32  C   UNL     1       4.083   1.709  18.553  0.00  0.00    +0.000 C 
ATOM     33  C   UNL     1       3.418   2.423  19.733  0.00  0.00    +0.000 C 
ENDBRANCH  27  28
ENDBRANCH  25  27
ENDBRANCH  23  25
ENDBRANCH   1  23
TORSDOF 6
ENDMDL
MODEL 3
REMARK VINA RESULT:      -7.9      0.723      1.494
REMARK  Name = 
REMARK  7 active torsions:
REMARK  status: ('A' for Active; 'I' for Inactive)
REMARK    1  A    between atoms: C_1  and  C_2
REMARK    2  A    between atoms: C_2  and  C_3
REMARK    3  A    between atoms: C_2  and  N_27
REMARK    4  A    between atoms: C_3  and  N_4
REMARK    5  A    between atoms: N_4  and  C_5
REMARK    6  A    between atoms: C_7  and  C_8
REMARK    7  A    between atoms: C_17  and  C_18
REMARK                            x       y       z     vdW  Elec       q    Type
REMARK                         _______ _______ _______ _____ _____    ______ ____
ROOT
ATOM      1  C   UNL     1       2.661   6.457  19.706  0.00  0.00    +0.000 A 
ATOM      2  N   UNL     1       3.573   5.884  18.868  0.00  0.00    +0.000 NA
ATOM      3  C   UNL     1       3.964   6.518  17.729  0.00  0.00    +0.000 A 
ATOM      4  N   UNL     1       3.553   7.724  17.319  0.00  0.00    +0.000 NA
ATOM      5  C   UNL     1       2.671   8.292  18.146  0.00  0.00    +0.000 A 
ATOM      6  N   UNL     1       2.135   9.530  17.971  0.00  0.00    +0.000 NA
ATOM      7  C   UNL     1       1.345   9.672  19.017  0.00  0.00    +0.000 A 
ATOM      8  O   UNL     1       1.326   8.595  19.882  0.00  0.00    +0.000 OA
ATOM      9  C   UNL     1       2.198   7.707  19.302  0.00  0.00    +0.000 A 
ENDROOT
BRANCH   7  10
ATOM     10  C   UNL     1       0.473  10.812  19.305  0.00  0.00    +0.000 A 
ATOM     11  C   UNL     1       0.819  11.688  20.352  0.00  0.00    +0.000 A 
ATOM     12  C   UNL     1       0.066  12.838  20.612  0.00  0.00    +0.000 A 
ATOM     13  C   UNL     1      -1.045  13.121  19.824  0.00  0.00    +0.000 A 
ATOM     14 CL   UNL     1      -1.940  14.564  20.097  0.00  0.00    +0.000 Cl
ATOM     15  C   UNL     1      -1.425  12.248  18.808  0.00  0.00    +0.000 A 
ATOM     16  C   UNL     1      -0.671  11.093  18.551  0.00  0.00    +0.000 A 
ENDBRANCH   7  10
BRANCH   3  17
ATOM     17  C   UNL     1       4.953   5.843  16.857  0.00  0.00    +0.000 A 
ATOM     18  C   UNL     1       4.616   4.715  16.085  0.00  0.00    +0.000 A 
ATOM     19  C   UNL     1       5.564   4.077  15.276  0.00  0.00    +0.000 A 
ATOM     20  C   UNL     1       6.871   4.556  15.215  0.00  0.00    +0.000 A 
ATOM     21  C   UNL     1       7.230   5.674  15.956  0.00  0.00    +0.000 A 
ATOM     22  C   UNL     1       6.280   6.309  16.763  0.00  0.00    +0.000 A 
ENDBRANCH   3  17
BRANCH   1  23
ATOM     23  N   UNL     1       2.289   5.837  20.898  0.00  0.00    +0.000 N 
ATOM     24  H   UNL     1       2.463   6.403  21.726  0.00  0.00    +0.000 HD
BRANCH  23  25
ATOM     25  C   UNL     1       1.026   5.094  20.928  0.00  0.00    +0.000 C 
BRANCH  25  27
ATOM     26  C   UNL     1       1.301   2.783  21.884  0.00  0.00    +0.000 C 
ATOM     27  C   UNL     1       1.144   3.574  20.573  0.00  0.00    +0.000 C 
BRANCH  27  28
ATOM     28  N   UNL     1       2.195   3.212  19.563  0.00  0.00    +0.000 NA
ATOM     29  C   UNL     1       3.340   2.520  20.204  0.00  0.00    +0.000 C 
ATOM     30  C   UNL     1       4.442   2.157  19.207  0.00  0.00    +0.000 C 
ATOM     31  C   UNL     1       3.910   1.302  18.068  0.00  0.00    +0.000 C 
ATOM     32  C   UNL     1       2.689   1.963  17.450  0.00  0.00    +0.000 C 
ATOM     33  C   UNL     1       1.643   2.334  18.506  0.00  0.00    +0.000 C 
ENDBRANCH  27  28
ENDBRANCH  25  27
ENDBRANCH  23  25
ENDBRANCH   1  23
TORSDOF 6
ENDMDL
MODEL 4
REMARK VINA RESULT:      -7.7      3.968     10.142
REMARK  Name = 
REMARK  7 active torsions:
REMARK  status: ('A' for Active; 'I' for Inactive)
REMARK    1  A    between atoms: C_1  and  C_2
REMARK    2  A    between atoms: C_2  and  C_3
REMARK    3  A    between atoms: C_2  and  N_27
REMARK    4  A    between atoms: C_3  and  N_4
REMARK    5  A    between atoms: N_4  and  C_5
REMARK    6  A    between atoms: C_7  and  C_8
REMARK    7  A    between atoms: C_17  and  C_18
REMARK                            x       y       z     vdW  Elec       q    Type
REMARK                         _______ _______ _______ _____ _____    ______ ____
ROOT
ATOM      1  C   UNL     1      -0.731  11.642  19.303  0.00  0.00    +0.000 A 
ATOM      2  N   UNL     1      -1.291  12.332  20.338  0.00  0.00    +0.000 NA
ATOM      3  C   UNL     1      -1.123  11.915  21.623  0.00  0.00    +0.000 A 
ATOM      4  N   UNL     1      -0.409  10.855  22.019  0.00  0.00    +0.000 NA
ATOM      5  C   UNL     1       0.152  10.186  21.007  0.00  0.00    +0.000 A 
ATOM      6  N   UNL     1       0.954   9.098  21.151  0.00  0.00    +0.000 NA
ATOM      7  C   UNL     1       1.278   8.789  19.911  0.00  0.00    +0.000 A 
ATOM      8  O   UNL     1       0.734   9.614  18.946  0.00  0.00    +0.000 OA
ATOM      9  C   UNL     1       0.006  10.521  19.677  0.00  0.00    +0.000 A 
ENDROOT
BRANCH   7  10
ATOM     10  C   UNL     1       2.092   7.653  19.478  0.00  0.00    +0.000 A 
ATOM     11  C   UNL     1       2.129   6.494  20.279  0.00  0.00    +0.000 A 
ATOM     12  C   UNL     1       2.822   5.352  19.867  0.00  0.00    +0.000 A 
ATOM     13  C   UNL     1       3.490   5.358  18.647  0.00  0.00    +0.000 A 
ATOM     14 CL   UNL     1       4.294   3.939  18.105  0.00  0.00    +0.000 Cl
ATOM     15  C   UNL     1       3.496   6.506  17.858  0.00  0.00    +0.000 A 
ATOM     16  C   UNL     1       2.803   7.653  18.273  0.00  0.00    +0.000 A 
ENDBRANCH   7  10
BRANCH   3  17
ATOM     17  C   UNL     1      -1.760  12.704  22.703  0.00  0.00    +0.000 A 
ATOM     18  C   UNL     1      -3.029  12.376  23.213  0.00  0.00    +0.000 A 
ATOM     19  C   UNL     1      -3.626  13.138  24.225  0.00  0.00    +0.000 A 
ATOM     20  C   UNL     1      -2.965  14.244  24.754  0.00  0.00    +0.000 A 
ATOM     21  C   UNL     1      -1.705  14.585  24.279  0.00  0.00    +0.000 A 
ATOM     22  C   UNL     1      -1.112  13.822  23.268  0.00  0.00    +0.000 A 
ENDBRANCH   3  17
BRANCH   1  23
ATOM     23  N   UNL     1      -0.858  12.087  17.988  0.00  0.00    +0.000 N 
ATOM     24  H   UNL     1       0.001  12.016  17.447  0.00  0.00    +0.000 HD
BRANCH  23  25
ATOM     25  C   UNL     1      -2.071  11.724  17.248  0.00  0.00    +0.000 C 
BRANCH  25  27
ATOM     26  C   UNL     1      -3.417   9.623  17.573  0.00  0.00    +0.000 C 
ATOM     27  C   UNL     1      -3.193  11.050  18.106  0.00  0.00    +0.000 C 
BRANCH  27  28
ATOM     28  N   UNL     1      -4.479  11.817  18.230  0.00  0.00    +0.000 NA
ATOM     29  C   UNL     1      -5.651  10.947  17.967  0.00  0.00    +0.000 C 
ATOM     30  C   UNL     1      -6.978  11.702  18.062  0.00  0.00    +0.000 C 
ATOM     31  C   UNL     1      -7.145  12.376  19.414  0.00  0.00    +0.000 C 
ATOM     32  C   UNL     1      -5.916  13.213  19.731  0.00  0.00    +0.000 C 
ATOM     33  C   UNL     1      -4.622  12.408  19.581  0.00  0.00    +0.000 C 
ENDBRANCH  27  28
ENDBRANCH  25  27
ENDBRANCH  23  25
ENDBRANCH   1  23
TORSDOF 6
ENDMDL
MODEL 5
REMARK VINA RESULT:      -7.7      4.003     10.134
REMARK  Name = 
REMARK  7 active torsions:
REMARK  status: ('A' for Active; 'I' for Inactive)
REMARK    1  A    between atoms: C_1  and  C_2
REMARK    2  A    between atoms: C_2  and  C_3
REMARK    3  A    between atoms: C_2  and  N_27
REMARK    4  A    between atoms: C_3  and  N_4
REMARK    5  A    between atoms: N_4  and  C_5
REMARK    6  A    between atoms: C_7  and  C_8
REMARK    7  A    between atoms: C_17  and  C_18
REMARK                            x       y       z     vdW  Elec       q    Type
REMARK                         _______ _______ _______ _____ _____    ______ ____
ROOT
ATOM      1  C   UNL     1      -0.588  11.282  19.538  0.00  0.00    +0.000 A 
ATOM      2  N   UNL     1      -1.168  12.051  20.503  0.00  0.00    +0.000 NA
ATOM      3  C   UNL     1      -1.126  11.674  21.811  0.00  0.00    +0.000 A 
ATOM      4  N   UNL     1      -0.523  10.582  22.296  0.00  0.00    +0.000 NA
ATOM      5  C   UNL     1       0.058   9.835  21.352  0.00  0.00    +0.000 A 
ATOM      6  N   UNL     1       0.764   8.698  21.594  0.00  0.00    +0.000 NA
ATOM      7  C   UNL     1       1.153   8.318  20.393  0.00  0.00    +0.000 A 
ATOM      8  O   UNL     1       0.744   9.141  19.362  0.00  0.00    +0.000 OA
ATOM      9  C   UNL     1       0.035  10.127  20.004  0.00  0.00    +0.000 A 
ENDROOT
BRANCH   7  10
ATOM     10  C   UNL     1       1.909   7.110  20.061  0.00  0.00    +0.000 A 
ATOM     11  C   UNL     1       2.800   7.140  18.970  0.00  0.00    +0.000 A 
ATOM     12  C   UNL     1       3.609   6.041  18.665  0.00  0.00    +0.000 A 
ATOM     13  C   UNL     1       3.531   4.895  19.450  0.00  0.00    +0.000 A 
ATOM     14 CL   UNL     1       4.564   3.561  19.119  0.00  0.00    +0.000 Cl
ATOM     15  C   UNL     1       2.630   4.831  20.510  0.00  0.00    +0.000 A 
ATOM     16  C   UNL     1       1.817   5.934  20.813  0.00  0.00    +0.000 A 
ENDBRANCH   7  10
BRANCH   3  17
ATOM     17  C   UNL     1      -1.779  12.548  22.812  0.00  0.00    +0.000 A 
ATOM     18  C   UNL     1      -1.168  13.726  23.281  0.00  0.00    +0.000 A 
ATOM     19  C   UNL     1      -1.788  14.536  24.240  0.00  0.00    +0.000 A 
ATOM     20  C   UNL     1      -3.039  14.191  24.748  0.00  0.00    +0.000 A 
ATOM     21  C   UNL     1      -3.672  13.040  24.295  0.00  0.00    +0.000 A 
ATOM     22  C   UNL     1      -3.048  12.233  23.338  0.00  0.00    +0.000 A 
ENDBRANCH   3  17
BRANCH   1  23
ATOM     23  N   UNL     1      -0.585  11.682  18.202  0.00  0.00    +0.000 N 
ATOM     24  H   UNL     1       0.145  11.244  17.644  0.00  0.00    +0.000 HD
BRANCH  23  25
ATOM     25  C   UNL     1      -1.874  11.815  17.516  0.00  0.00    +0.000 C 
BRANCH  25  27
ATOM     26  C   UNL     1      -3.280   9.729  17.486  0.00  0.00    +0.000 C 
ATOM     27  C   UNL     1      -3.069  11.074  18.204  0.00  0.00    +0.000 C 
BRANCH  27  28
ATOM     28  N   UNL     1      -4.345  11.856  18.330  0.00  0.00    +0.000 NA
ATOM     29  C   UNL     1      -5.506  11.071  17.842  0.00  0.00    +0.000 C 
ATOM     30  C   UNL     1      -6.821  11.847  17.934  0.00  0.00    +0.000 C 
ATOM     31  C   UNL     1      -7.095  12.322  19.352  0.00  0.00    +0.000 C 
ATOM     32  C   UNL     1      -5.883  13.064  19.893  0.00  0.00    +0.000 C 
ATOM     33  C   UNL     1      -4.597  12.248  19.736  0.00  0.00    +0.000 C 
ENDBRANCH  27  28
ENDBRANCH  25  27
ENDBRANCH  23  25
ENDBRANCH   1  23
TORSDOF 6
ENDMDL
MODEL 6
REMARK VINA RESULT:      -7.6      1.998      5.057
REMARK  Name = 
REMARK  7 active torsions:
REMARK  status: ('A' for Active; 'I' for Inactive)
REMARK    1  A    between atoms: C_1  and  C_2
REMARK    2  A    between atoms: C_2  and  C_3
REMARK    3  A    between atoms: C_2  and  N_27
REMARK    4  A    between atoms: C_3  and  N_4
REMARK    5  A    between atoms: N_4  and  C_5
REMARK    6  A    between atoms: C_7  and  C_8
REMARK    7  A    between atoms: C_17  and  C_18
REMARK                            x       y       z     vdW  Elec       q    Type
REMARK                         _______ _______ _______ _____ _____    ______ ____
ROOT
ATOM      1  C   UNL     1       3.502   7.111  17.646  0.00  0.00    +0.000 A 
ATOM      2  N   UNL     1       3.383   5.927  18.313  0.00  0.00    +0.000 NA
ATOM      3  C   UNL     1       2.587   5.825  19.412  0.00  0.00    +0.000 A 
ATOM      4  N   UNL     1       1.840   6.805  19.936  0.00  0.00    +0.000 NA
ATOM      5  C   UNL     1       1.945   7.962  19.275  0.00  0.00    +0.000 A 
ATOM      6  N   UNL     1       1.258   9.093  19.587  0.00  0.00    +0.000 NA
ATOM      7  C   UNL     1       1.661   9.957  18.677  0.00  0.00    +0.000 A 
ATOM      8  O   UNL     1       2.580   9.462  17.772  0.00  0.00    +0.000 OA
ATOM      9  C   UNL     1       2.751   8.159  18.174  0.00  0.00    +0.000 A 
ENDROOT
BRANCH   7  10
ATOM     10  C   UNL     1       1.275  11.365  18.576  0.00  0.00    +0.000 A 
ATOM     11  C   UNL     1      -0.081  11.713  18.734  0.00  0.00    +0.000 A 
ATOM     12  C   UNL     1      -0.490  13.051  18.732  0.00  0.00    +0.000 A 
ATOM     13  C   UNL     1       0.457  14.055  18.567  0.00  0.00    +0.000 A 
ATOM     14 CL   UNL     1      -0.027  15.704  18.623  0.00  0.00    +0.000 Cl
ATOM     15  C   UNL     1       1.797  13.730  18.371  0.00  0.00    +0.000 A 
ATOM     16  C   UNL     1       2.206  12.388  18.370  0.00  0.00    +0.000 A 
ENDBRANCH   7  10
BRANCH   3  17
ATOM     17  C   UNL     1       2.503   4.514  20.096  0.00  0.00    +0.000 A 
ATOM     18  C   UNL     1       1.334   4.095  20.757  0.00  0.00    +0.000 A 
ATOM     19  C   UNL     1       1.271   2.859  21.412  0.00  0.00    +0.000 A 
ATOM     20  C   UNL     1       2.376   2.011  21.418  0.00  0.00    +0.000 A 
ATOM     21  C   UNL     1       3.541   2.393  20.764  0.00  0.00    +0.000 A 
ATOM     22  C   UNL     1       3.599   3.628  20.111  0.00  0.00    +0.000 A 
ENDBRANCH   3  17
BRANCH   1  23
ATOM     23  N   UNL     1       4.277   7.214  16.492  0.00  0.00    +0.000 N 
ATOM     24  H   UNL     1       4.137   8.083  15.980  0.00  0.00    +0.000 HD
BRANCH  23  25
ATOM     25  C   UNL     1       5.672   6.766  16.553  0.00  0.00    +0.000 C 
BRANCH  25  27
ATOM     26  C   UNL     1       7.121   4.724  16.799  0.00  0.00    +0.000 C 
ATOM     27  C   UNL     1       5.924   5.312  16.031  0.00  0.00    +0.000 C 
BRANCH  27  28
ATOM     28  N   UNL     1       6.075   5.162  14.544  0.00  0.00    +0.000 NA
ATOM     29  C   UNL     1       7.502   5.210  14.142  0.00  0.00    +0.000 C 
ATOM     30  C   UNL     1       7.692   5.084  12.629  0.00  0.00    +0.000 C 
ATOM     31  C   UNL     1       7.058   3.812  12.088  0.00  0.00    +0.000 C 
ATOM     32  C   UNL     1       5.616   3.712  12.556  0.00  0.00    +0.000 C 
ATOM     33  C   UNL     1       5.493   3.885  14.073  0.00  0.00    +0.000 C 
ENDBRANCH  27  28
ENDBRANCH  25  27
ENDBRANCH  23  25
ENDBRANCH   1  23
TORSDOF 6
ENDMDL
MODEL 7
REMARK VINA RESULT:      -7.6      4.364     10.451
REMARK  Name = 
REMARK  7 active torsions:
REMARK  status: ('A' for Active; 'I' for Inactive)
REMARK    1  A    between atoms: C_1  and  C_2
REMARK    2  A    between atoms: C_2  and  C_3
REMARK    3  A    between atoms: C_2  and  N_27
REMARK    4  A    between atoms: C_3  and  N_4
REMARK    5  A    between atoms: N_4  and  C_5
REMARK    6  A    between atoms: C_7  and  C_8
REMARK    7  A    between atoms: C_17  and  C_18
REMARK                            x       y       z     vdW  Elec       q    Type
REMARK                         _______ _______ _______ _____ _____    ______ ____
ROOT
ATOM      1  C   UNL     1      -1.897  11.624  19.543  0.00  0.00    +0.000 A 
ATOM      2  N   UNL     1      -2.277  12.366  20.623  0.00  0.00    +0.000 NA
ATOM      3  C   UNL     1      -1.636  12.236  21.816  0.00  0.00    +0.000 A 
ATOM      4  N   UNL     1      -0.593  11.434  22.066  0.00  0.00    +0.000 NA
ATOM      5  C   UNL     1      -0.211  10.717  21.005  0.00  0.00    +0.000 A 
ATOM      6  N   UNL     1       0.845   9.860  20.993  0.00  0.00    +0.000 NA
ATOM      7  C   UNL     1       0.851   9.399  19.758  0.00  0.00    +0.000 A 
ATOM      8  O   UNL     1      -0.144   9.904  18.944  0.00  0.00    +0.000 OA
ATOM      9  C   UNL     1      -0.825  10.765  19.771  0.00  0.00    +0.000 A 
ENDROOT
BRANCH   7  10
ATOM     10  C   UNL     1       1.757   8.391  19.206  0.00  0.00    +0.000 A 
ATOM     11  C   UNL     1       2.319   8.604  17.931  0.00  0.00    +0.000 A 
ATOM     12  C   UNL     1       3.256   7.714  17.396  0.00  0.00    +0.000 A 
ATOM     13  C   UNL     1       3.638   6.598  18.133  0.00  0.00    +0.000 A 
ATOM     14 CL   UNL     1       4.834   5.531  17.509  0.00  0.00    +0.000 Cl
ATOM     15  C   UNL     1       3.066   6.350  19.378  0.00  0.00    +0.000 A 
ATOM     16  C   UNL     1       2.124   7.242  19.913  0.00  0.00    +0.000 A 
ENDBRANCH   7  10
BRANCH   3  17
ATOM     17  C   UNL     1      -2.098  13.065  22.953  0.00  0.00    +0.000 A 
ATOM     18  C   UNL     1      -3.384  12.919  23.505  0.00  0.00    +0.000 A 
ATOM     19  C   UNL     1      -3.814  13.719  24.570  0.00  0.00    +0.000 A 
ATOM     20  C   UNL     1      -2.966  14.681  25.114  0.00  0.00    +0.000 A 
ATOM     21  C   UNL     1      -1.686  14.841  24.597  0.00  0.00    +0.000 A 
ATOM     22  C   UNL     1      -1.260  14.040  23.533  0.00  0.00    +0.000 A 
ENDBRANCH   3  17
BRANCH   1  23
ATOM     23  N   UNL     1      -2.517  11.784  18.305  0.00  0.00    +0.000 N 
ATOM     24  H   UNL     1      -1.918  12.204  17.597  0.00  0.00    +0.000 HD
BRANCH  23  25
ATOM     25  C   UNL     1      -3.365  10.695  17.809  0.00  0.00    +0.000 C 
BRANCH  25  27
ATOM     26  C   UNL     1      -5.143  12.220  16.892  0.00  0.00    +0.000 C 
ATOM     27  C   UNL     1      -4.899  11.003  17.802  0.00  0.00    +0.000 C 
BRANCH  27  28
ATOM     28  N   UNL     1      -5.547  11.162  19.149  0.00  0.00    +0.000 NA
ATOM     29  C   UNL     1      -5.822  12.589  19.446  0.00  0.00    +0.000 C 
ATOM     30  C   UNL     1      -6.460  12.791  20.822  0.00  0.00    +0.000 C 
ATOM     31  C   UNL     1      -7.743  11.989  20.968  0.00  0.00    +0.000 C 
ATOM     32  C   UNL     1      -7.494  10.538  20.593  0.00  0.00    +0.000 C 
ATOM     33  C   UNL     1      -6.820  10.410  19.224  0.00  0.00    +0.000 C 
ENDBRANCH  27  28
ENDBRANCH  25  27
ENDBRANCH  23  25
ENDBRANCH   1  23
TORSDOF 6
ENDMDL
MODEL 8
REMARK VINA RESULT:      -7.5      3.994     10.188
REMARK  Name = 
REMARK  7 active torsions:
REMARK  status: ('A' for Active; 'I' for Inactive)
REMARK    1  A    between atoms: C_1  and  C_2
REMARK    2  A    between atoms: C_2  and  C_3
REMARK    3  A    between atoms: C_2  and  N_27
REMARK    4  A    between atoms: C_3  and  N_4
REMARK    5  A    between atoms: N_4  and  C_5
REMARK    6  A    between atoms: C_7  and  C_8
REMARK    7  A    between atoms: C_17  and  C_18
REMARK                            x       y       z     vdW  Elec       q    Type
REMARK                         _______ _______ _______ _____ _____    ______ ____
ROOT
ATOM      1  C   UNL     1      -0.819  11.600  19.062  0.00  0.00    +0.000 A 
ATOM      2  N   UNL     1      -1.356  12.274  20.119  0.00  0.00    +0.000 NA
ATOM      3  C   UNL     1      -1.097  11.883  21.397  0.00  0.00    +0.000 A 
ATOM      4  N   UNL     1      -0.308  10.866  21.764  0.00  0.00    +0.000 NA
ATOM      5  C   UNL     1       0.230  10.213  20.729  0.00  0.00    +0.000 A 
ATOM      6  N   UNL     1       1.094   9.170  20.840  0.00  0.00    +0.000 NA
ATOM      7  C   UNL     1       1.365   8.861  19.587  0.00  0.00    +0.000 A 
ATOM      8  O   UNL     1       0.727   9.645  18.645  0.00  0.00    +0.000 OA
ATOM      9  C   UNL     1      -0.005  10.523  19.406  0.00  0.00    +0.000 A 
ENDROOT
BRANCH   7  10
ATOM     10  C   UNL     1       2.212   7.763  19.121  0.00  0.00    +0.000 A 
ATOM     11  C   UNL     1       2.937   7.920  17.924  0.00  0.00    +0.000 A 
ATOM     12  C   UNL     1       3.825   6.936  17.480  0.00  0.00    +0.000 A 
ATOM     13  C   UNL     1       3.995   5.778  18.233  0.00  0.00    +0.000 A 
ATOM     14 CL   UNL     1       5.130   4.589  17.727  0.00  0.00    +0.000 Cl
ATOM     15  C   UNL     1       3.261   5.587  19.400  0.00  0.00    +0.000 A 
ATOM     16  C   UNL     1       2.367   6.574  19.842  0.00  0.00    +0.000 A 
ENDBRANCH   7  10
BRANCH   3  17
ATOM     17  C   UNL     1      -1.714  12.652  22.503  0.00  0.00    +0.000 A 
ATOM     18  C   UNL     1      -2.992  12.342  23.002  0.00  0.00    +0.000 A 
ATOM     19  C   UNL     1      -3.570  13.085  24.037  0.00  0.00    +0.000 A 
ATOM     20  C   UNL     1      -2.880  14.155  24.603  0.00  0.00    +0.000 A 
ATOM     21  C   UNL     1      -1.611  14.479  24.139  0.00  0.00    +0.000 A 
ATOM     22  C   UNL     1      -1.037  13.733  23.104  0.00  0.00    +0.000 A 
ENDBRANCH   3  17
BRANCH   1  23
ATOM     23  N   UNL     1      -1.041  12.020  17.751  0.00  0.00    +0.000 N 
ATOM     24  H   UNL     1      -0.212  11.978  17.162  0.00  0.00    +0.000 HD
BRANCH  23  25
ATOM     25  C   UNL     1      -2.277  11.597  17.088  0.00  0.00    +0.000 C 
BRANCH  25  27
ATOM     26  C   UNL     1      -3.882   9.741  17.647  0.00  0.00    +0.000 C 
ATOM     27  C   UNL     1      -3.428  11.155  18.052  0.00  0.00    +0.000 C 
BRANCH  27  28
ATOM     28  N   UNL     1      -4.584  12.107  18.180  0.00  0.00    +0.000 NA
ATOM     29  C   UNL     1      -5.561  11.914  17.081  0.00  0.00    +0.000 C 
ATOM     30  C   UNL     1      -6.741  12.884  17.166  0.00  0.00    +0.000 C 
ATOM     31  C   UNL     1      -7.458  12.780  18.502  0.00  0.00    +0.000 C 
ATOM     32  C   UNL     1      -6.457  12.900  19.639  0.00  0.00    +0.000 C 
ATOM     33  C   UNL     1      -5.284  11.928  19.472  0.00  0.00    +0.000 C 
ENDBRANCH  27  28
ENDBRANCH  25  27
ENDBRANCH  23  25
ENDBRANCH   1  23
TORSDOF 6
ENDMDL
MODEL 9
REMARK VINA RESULT:      -7.4      3.280      7.640
REMARK  Name = 
REMARK  7 active torsions:
REMARK  status: ('A' for Active; 'I' for Inactive)
REMARK    1  A    between atoms: C_1  and  C_2
REMARK    2  A    between atoms: C_2  and  C_3
REMARK    3  A    between atoms: C_2  and  N_27
REMARK    4  A    between atoms: C_3  and  N_4
REMARK    5  A    between atoms: N_4  and  C_5
REMARK    6  A    between atoms: C_7  and  C_8
REMARK    7  A    between atoms: C_17  and  C_18
REMARK                            x       y       z     vdW  Elec       q    Type
REMARK                         _______ _______ _______ _____ _____    ______ ____
ROOT
ATOM      1  C   UNL     1       0.221  10.362  19.080  0.00  0.00    +0.000 A 
ATOM      2  N   UNL     1       0.899   9.181  19.021  0.00  0.00    +0.000 NA
ATOM      3  C   UNL     1       1.192   8.490  20.157  0.00  0.00    +0.000 A 
ATOM      4  N   UNL     1       0.850   8.842  21.402  0.00  0.00    +0.000 NA
ATOM      5  C   UNL     1       0.173   9.993  21.460  0.00  0.00    +0.000 A 
ATOM      6  N   UNL     1      -0.317  10.544  22.602  0.00  0.00    +0.000 NA
ATOM      7  C   UNL     1      -0.909  11.644  22.183  0.00  0.00    +0.000 A 
ATOM      8  O   UNL     1      -0.842  11.857  20.820  0.00  0.00    +0.000 OA
ATOM      9  C   UNL     1      -0.137  10.770  20.363  0.00  0.00    +0.000 A 
ENDROOT
BRANCH   7  10
ATOM     10  C   UNL     1      -1.565  12.655  23.014  0.00  0.00    +0.000 A 
ATOM     11  C   UNL     1      -0.882  13.854  23.295  0.00  0.00    +0.000 A 
ATOM     12  C   UNL     1      -1.496  14.886  24.012  0.00  0.00    +0.000 A 
ATOM     13  C   UNL     1      -2.804  14.726  24.457  0.00  0.00    +0.000 A 
ATOM     14 CL   UNL     1      -3.588  16.012  25.286  0.00  0.00    +0.000 Cl
ATOM     15  C   UNL     1      -3.483  13.533  24.221  0.00  0.00    +0.000 A 
ATOM     16  C   UNL     1      -2.865  12.497  23.505  0.00  0.00    +0.000 A 
ENDBRANCH   7  10
BRANCH   3  17
ATOM     17  C   UNL     1       1.935   7.215  20.029  0.00  0.00    +0.000 A 
ATOM     18  C   UNL     1       2.959   7.044  19.079  0.00  0.00    +0.000 A 
ATOM     19  C   UNL     1       3.644   5.829  18.958  0.00  0.00    +0.000 A 
ATOM     20  C   UNL     1       3.325   4.757  19.788  0.00  0.00    +0.000 A 
ATOM     21  C   UNL     1       2.326   4.899  20.743  0.00  0.00    +0.000 A 
ATOM     22  C   UNL     1       1.644   6.115  20.861  0.00  0.00    +0.000 A 
ENDBRANCH   3  17
BRANCH   1  23
ATOM     23  N   UNL     1      -0.125  11.054  17.920  0.00  0.00    +0.000 N 
ATOM     24  H   UNL     1       0.152  10.580  17.062  0.00  0.00    +0.000 HD
BRANCH  23  25
ATOM     25  C   UNL     1      -1.444  11.690  17.859  0.00  0.00    +0.000 C 
BRANCH  25  27
ATOM     26  C   UNL     1      -2.681  10.620  15.947  0.00  0.00    +0.000 C 
ATOM     27  C   UNL     1      -2.624  10.733  17.481  0.00  0.00    +0.000 C 
BRANCH  27  28
ATOM     28  N   UNL     1      -3.962  11.070  18.075  0.00  0.00    +0.000 NA
ATOM     29  C   UNL     1      -3.832  12.079  19.155  0.00  0.00    +0.000 C 
ATOM     30  C   UNL     1      -5.175  12.428  19.799  0.00  0.00    +0.000 C 
ATOM     31  C   UNL     1      -6.180  12.918  18.771  0.00  0.00    +0.000 C 
ATOM     32  C   UNL     1      -6.268  11.929  17.620  0.00  0.00    +0.000 C 
ATOM     33  C   UNL     1      -4.888  11.595  17.046  0.00  0.00    +0.000 C 
ENDBRANCH  27  28
ENDBRANCH  25  27
ENDBRANCH  23  25
ENDBRANCH   1  23
TORSDOF 6
ENDMDL
