MODEL 1
REMARK VINA RESULT:      -8.4      0.000      0.000
REMARK  Name = 
REMARK  8 active torsions:
REMARK  status: ('A' for Active; 'I' for Inactive)
REMARK    1  A    between atoms: C_2  and  C_3
REMARK    2  A    between atoms: C_3  and  S_4
REMARK    3  A    between atoms: S_4  and  C_5
REMARK    4  A    between atoms: C_8  and  S_9
REMARK    5  A    between atoms: S_9  and  N_12
REMARK    6  A    between atoms: N_20  and  C_21
REMARK    7  A    between atoms: C_24  and  O_25
REMARK    8  A    between atoms: O_25  and  C_26
REMARK                            x       y       z     vdW  Elec       q    Type
REMARK                         _______ _______ _______ _____ _____    ______ ____
ROOT
ATOM      1  S   UNL     1       7.260   5.888  19.499  0.00  0.00    +0.000 S 
ENDROOT
BRANCH   1   2
ATOM      2  C   UNL     1       5.673   5.168  19.080  0.00  0.00    +0.000 A 
ATOM      3  C   UNL     1       4.694   5.971  18.499  0.00  0.00    +0.000 A 
ATOM      4  C   UNL     1       3.453   5.411  18.179  0.00  0.00    +0.000 A 
ATOM      5  C   UNL     1       3.233   4.067  18.460  0.00  0.00    +0.000 A 
ATOM      6  C   UNL     1       4.249   3.338  19.049  0.00  0.00    +0.000 A 
ATOM      7  N   UNL     1       5.468   3.859  19.349  0.00  0.00    +0.000 NA
BRANCH   5   8
ATOM      8  S   UNL     1       1.675   3.291  18.193  0.00  0.00    +0.000 S 
ATOM      9  O   UNL     1       0.990   4.085  17.200  0.00  0.00    +0.000 OA
ATOM     10  O   UNL     1       1.901   1.876  18.001  0.00  0.00    +0.000 OA
BRANCH   8  11
ATOM     11  N   UNL     1       0.876   3.500  19.683  0.00  0.00    +0.000 NA
ATOM     12  C   UNL     1       1.077   4.805  20.386  0.00  0.00    +0.000 C 
ATOM     13  C   UNL     1       2.362   4.796  21.230  0.00  0.00    +0.000 C 
ATOM     14  O   UNL     1       2.369   3.703  22.160  0.00  0.00    +0.000 OA
ATOM     15  C   UNL     1       2.269   2.445  21.476  0.00  0.00    +0.000 C 
ATOM     16  C   UNL     1       0.978   2.368  20.658  0.00  0.00    +0.000 C 
ENDBRANCH   8  11
ENDBRANCH   5   8
ENDBRANCH   1   2
BRANCH   1  17
ATOM     17  C   UNL     1       7.794   6.452  17.851  0.00  0.00    +0.000 C 
BRANCH  17  19
ATOM     18  O   UNL     1       8.093   4.254  16.994  0.00  0.00    +0.000 OA
ATOM     19  C   UNL     1       7.689   5.394  16.759  0.00  0.00    +0.000 C 
ATOM     20  N   UNL     1       7.076   5.788  15.582  0.00  0.00    +0.000 N 
ATOM     21  H   UNL     1       6.954   6.787  15.463  0.00  0.00    +0.000 HD
BRANCH  20  22
ATOM     22  C   UNL     1       6.748   4.960  14.484  0.00  0.00    +0.000 A 
ATOM     23  C   UNL     1       7.533   4.863  13.333  0.00  0.00    +0.000 A 
ATOM     24  C   UNL     1       7.161   4.017  12.284  0.00  0.00    +0.000 A 
ATOM     25  C   UNL     1       6.005   3.245  12.369  0.00  0.00    +0.000 A 
ATOM     26  C   UNL     1       5.199   3.350  13.502  0.00  0.00    +0.000 A 
ATOM     27  C   UNL     1       5.580   4.190  14.561  0.00  0.00    +0.000 A 
BRANCH  25  28
ATOM     28  O   UNL     1       5.752   2.458  11.282  0.00  0.00    +0.000 OA
BRANCH  28  29
ATOM     29  C   UNL     1       6.550   1.293  11.176  0.00  0.00    +0.000 C 
ATOM     30  F   UNL     1       5.752   0.243  10.866  0.00  0.00    +0.000 F 
ATOM     31  F   UNL     1       7.390   1.470  10.124  0.00  0.00    +0.000 F 
ENDBRANCH  28  29
ENDBRANCH  25  28
ENDBRANCH  20  22
ENDBRANCH  17  19
ENDBRANCH   1  17
TORSDOF 8
ENDMDL
MODEL 2
REMARK VINA RESULT:      -7.9      7.067      8.779
REMARK  Name = 
REMARK  8 active torsions:
REMARK  status: ('A' for Active; 'I' for Inactive)
REMARK    1  A    between atoms: C_2  and  C_3
REMARK    2  A    between atoms: C_3  and  S_4
REMARK    3  A    between atoms: S_4  and  C_5
REMARK    4  A    between atoms: C_8  and  S_9
REMARK    5  A    between atoms: S_9  and  N_12
REMARK    6  A    between atoms: N_20  and  C_21
REMARK    7  A    between atoms: C_24  and  O_25
REMARK    8  A    between atoms: O_25  and  C_26
REMARK                            x       y       z     vdW  Elec       q    Type
REMARK                         _______ _______ _______ _____ _____    ______ ____
ROOT
ATOM      1  S   UNL     1       7.900   8.468  17.319  0.00  0.00    +0.000 S 
ENDROOT
BRANCH   1   2
ATOM      2  C   UNL     1       6.863   7.056  17.693  0.00  0.00    +0.000 A 
ATOM      3  C   UNL     1       5.658   6.896  17.010  0.00  0.00    +0.000 A 
ATOM      4  C   UNL     1       4.846   5.798  17.308  0.00  0.00    +0.000 A 
ATOM      5  C   UNL     1       5.264   4.900  18.285  0.00  0.00    +0.000 A 
ATOM      6  C   UNL     1       6.466   5.133  18.927  0.00  0.00    +0.000 A 
ATOM      7  N   UNL     1       7.278   6.183  18.638  0.00  0.00    +0.000 NA
BRANCH   5   8
ATOM      8  S   UNL     1       4.269   3.545  18.807  0.00  0.00    +0.000 S 
ATOM      9  O   UNL     1       3.980   2.772  17.622  0.00  0.00    +0.000 OA
ATOM     10  O   UNL     1       4.895   2.944  19.964  0.00  0.00    +0.000 OA
BRANCH   8  11
ATOM     11  N   UNL     1       2.827   4.294  19.318  0.00  0.00    +0.000 NA
ATOM     12  C   UNL     1       2.635   4.465  20.793  0.00  0.00    +0.000 C 
ATOM     13  C   UNL     1       2.044   3.199  21.432  0.00  0.00    +0.000 C 
ATOM     14  O   UNL     1       0.819   2.813  20.793  0.00  0.00    +0.000 OA
ATOM     15  C   UNL     1       1.024   2.559  19.395  0.00  0.00    +0.000 C 
ATOM     16  C   UNL     1       1.562   3.805  18.687  0.00  0.00    +0.000 C 
ENDBRANCH   8  11
ENDBRANCH   5   8
ENDBRANCH   1   2
BRANCH   1  17
ATOM     17  C   UNL     1       8.680   8.726  18.945  0.00  0.00    +0.000 C 
BRANCH  17  19
ATOM     18  O   UNL     1       9.443  10.491  20.344  0.00  0.00    +0.000 OA
ATOM     19  C   UNL     1       9.161  10.150  19.194  0.00  0.00    +0.000 C 
ATOM     20  N   UNL     1       9.309  10.951  18.074  0.00  0.00    +0.000 N 
ATOM     21  H   UNL     1       8.878  10.602  17.225  0.00  0.00    +0.000 HD
BRANCH  20  22
ATOM     22  C   UNL     1       9.859  12.252  18.034  0.00  0.00    +0.000 A 
ATOM     23  C   UNL     1      11.162  12.523  17.614  0.00  0.00    +0.000 A 
ATOM     24  C   UNL     1      11.646  13.835  17.586  0.00  0.00    +0.000 A 
ATOM     25  C   UNL     1      10.833  14.900  17.966  0.00  0.00    +0.000 A 
ATOM     26  C   UNL     1       9.538  14.642  18.410  0.00  0.00    +0.000 A 
ATOM     27  C   UNL     1       9.048  13.326  18.426  0.00  0.00    +0.000 A 
BRANCH  25  28
ATOM     28  O   UNL     1      11.420  16.131  17.891  0.00  0.00    +0.000 OA
BRANCH  28  29
ATOM     29  C   UNL     1      10.563  17.189  17.502  0.00  0.00    +0.000 C 
ATOM     30  F   UNL     1      10.020  17.743  18.613  0.00  0.00    +0.000 F 
ATOM     31  F   UNL     1      11.335  18.146  16.925  0.00  0.00    +0.000 F 
ENDBRANCH  28  29
ENDBRANCH  25  28
ENDBRANCH  20  22
ENDBRANCH  17  19
ENDBRANCH   1  17
TORSDOF 8
ENDMDL
MODEL 3
REMARK VINA RESULT:      -7.9      0.592      1.395
REMARK  Name = 
REMARK  8 active torsions:
REMARK  status: ('A' for Active; 'I' for Inactive)
REMARK    1  A    between atoms: C_2  and  C_3
REMARK    2  A    between atoms: C_3  and  S_4
REMARK    3  A    between atoms: S_4  and  C_5
REMARK    4  A    between atoms: C_8  and  S_9
REMARK    5  A    between atoms: S_9  and  N_12
REMARK    6  A    between atoms: N_20  and  C_21
REMARK    7  A    between atoms: C_24  and  O_25
REMARK    8  A    between atoms: O_25  and  C_26
REMARK                            x       y       z     vdW  Elec       q    Type
REMARK                         _______ _______ _______ _____ _____    ______ ____
ROOT
ATOM      1  S   UNL     1       7.372   5.887  19.317  0.00  0.00    +0.000 S 
ENDROOT
BRANCH   1   2
ATOM      2  C   UNL     1       5.759   5.160  19.039  0.00  0.00    +0.000 A 
ATOM      3  C   UNL     1       5.580   3.796  19.260  0.00  0.00    +0.000 A 
ATOM      4  C   UNL     1       4.322   3.227  19.035  0.00  0.00    +0.000 A 
ATOM      5  C   UNL     1       3.288   4.044  18.590  0.00  0.00    +0.000 A 
ATOM      6  C   UNL     1       3.546   5.385  18.382  0.00  0.00    +0.000 A 
ATOM      7  N   UNL     1       4.755   5.960  18.613  0.00  0.00    +0.000 NA
BRANCH   5   8
ATOM      8  S   UNL     1       1.697   3.409  18.178  0.00  0.00    +0.000 S 
ATOM      9  O   UNL     1       1.091   4.375  17.293  0.00  0.00    +0.000 OA
ATOM     10  O   UNL     1       1.850   2.024  17.791  0.00  0.00    +0.000 OA
BRANCH   8  11
ATOM     11  N   UNL     1       0.865   3.453  19.663  0.00  0.00    +0.000 NA
ATOM     12  C   UNL     1       0.943   4.723  20.451  0.00  0.00    +0.000 C 
ATOM     13  C   UNL     1       2.212   4.769  21.316  0.00  0.00    +0.000 C 
ATOM     14  O   UNL     1       2.303   3.624  22.175  0.00  0.00    +0.000 OA
ATOM     15  C   UNL     1       2.320   2.408  21.412  0.00  0.00    +0.000 C 
ATOM     16  C   UNL     1       1.051   2.274  20.567  0.00  0.00    +0.000 C 
ENDBRANCH   8  11
ENDBRANCH   5   8
ENDBRANCH   1   2
BRANCH   1  17
ATOM     17  C   UNL     1       7.761   6.446  17.627  0.00  0.00    +0.000 C 
BRANCH  17  19
ATOM     18  O   UNL     1       8.042   4.237  16.794  0.00  0.00    +0.000 OA
ATOM     19  C   UNL     1       7.616   5.369  16.559  0.00  0.00    +0.000 C 
ATOM     20  N   UNL     1       6.944   5.737  15.406  0.00  0.00    +0.000 N 
ATOM     21  H   UNL     1       6.806   6.733  15.276  0.00  0.00    +0.000 HD
BRANCH  20  22
ATOM     22  C   UNL     1       6.572   4.888  14.339  0.00  0.00    +0.000 A 
ATOM     23  C   UNL     1       5.422   4.096  14.351  0.00  0.00    +0.000 A 
ATOM     24  C   UNL     1       5.102   3.285  13.258  0.00  0.00    +0.000 A 
ATOM     25  C   UNL     1       5.918   3.257  12.130  0.00  0.00    +0.000 A 
ATOM     26  C   UNL     1       7.082   4.024  12.114  0.00  0.00    +0.000 A 
ATOM     27  C   UNL     1       7.396   4.849  13.206  0.00  0.00    +0.000 A 
BRANCH  25  28
ATOM     28  O   UNL     1       5.497   2.428  11.130  0.00  0.00    +0.000 OA
BRANCH  28  29
ATOM     29  C   UNL     1       6.358   1.343  10.837  0.00  0.00    +0.000 C 
ATOM     30  F   UNL     1       7.614   1.663  11.234  0.00  0.00    +0.000 F 
ATOM     31  F   UNL     1       5.962   0.292  11.599  0.00  0.00    +0.000 F 
ENDBRANCH  28  29
ENDBRANCH  25  28
ENDBRANCH  20  22
ENDBRANCH  17  19
ENDBRANCH   1  17
TORSDOF 8
ENDMDL
MODEL 4
REMARK VINA RESULT:      -7.8      9.052     12.567
REMARK  Name = 
REMARK  8 active torsions:
REMARK  status: ('A' for Active; 'I' for Inactive)
REMARK    1  A    between atoms: C_2  and  C_3
REMARK    2  A    between atoms: C_3  and  S_4
REMARK    3  A    between atoms: S_4  and  C_5
REMARK    4  A    between atoms: C_8  and  S_9
REMARK    5  A    between atoms: S_9  and  N_12
REMARK    6  A    between atoms: N_20  and  C_21
REMARK    7  A    between atoms: C_24  and  O_25
REMARK    8  A    between atoms: O_25  and  C_26
REMARK                            x       y       z     vdW  Elec       q    Type
REMARK                         _______ _______ _______ _____ _____    ______ ____
ROOT
ATOM      1  S   UNL     1       0.462  10.007  19.878  0.00  0.00    +0.000 S 
ENDROOT
BRANCH   1   2
ATOM      2  C   UNL     1       1.559   8.694  19.344  0.00  0.00    +0.000 A 
ATOM      3  C   UNL     1       2.138   8.763  18.079  0.00  0.00    +0.000 A 
ATOM      4  C   UNL     1       2.988   7.734  17.660  0.00  0.00    +0.000 A 
ATOM      5  C   UNL     1       3.223   6.667  18.521  0.00  0.00    +0.000 A 
ATOM      6  C   UNL     1       2.602   6.664  19.756  0.00  0.00    +0.000 A 
ATOM      7  N   UNL     1       1.789   7.663  20.188  0.00  0.00    +0.000 NA
BRANCH   5   8
ATOM      8  S   UNL     1       4.191   5.274  18.052  0.00  0.00    +0.000 S 
ATOM      9  O   UNL     1       4.752   4.739  19.270  0.00  0.00    +0.000 OA
ATOM     10  O   UNL     1       3.399   4.452  17.163  0.00  0.00    +0.000 OA
BRANCH   8  11
ATOM     11  N   UNL     1       5.455   5.966  17.143  0.00  0.00    +0.000 NA
ATOM     12  C   UNL     1       5.631   5.475  15.740  0.00  0.00    +0.000 C 
ATOM     13  C   UNL     1       6.481   4.196  15.696  0.00  0.00    +0.000 C 
ATOM     14  O   UNL     1       7.750   4.388  16.338  0.00  0.00    +0.000 OA
ATOM     15  C   UNL     1       7.579   4.769  17.712  0.00  0.00    +0.000 C 
ATOM     16  C   UNL     1       6.784   6.072  17.823  0.00  0.00    +0.000 C 
ENDBRANCH   8  11
ENDBRANCH   5   8
ENDBRANCH   1   2
BRANCH   1  17
ATOM     17  C   UNL     1       0.770   9.963  21.674  0.00  0.00    +0.000 C 
BRANCH  17  19
ATOM     18  O   UNL     1      -0.626  10.142  23.591  0.00  0.00    +0.000 OA
ATOM     19  C   UNL     1      -0.305  10.645  22.513  0.00  0.00    +0.000 C 
ATOM     20  N   UNL     1      -0.802  11.838  22.018  0.00  0.00    +0.000 N 
ATOM     21  H   UNL     1      -0.579  12.040  21.050  0.00  0.00    +0.000 HD
BRANCH  20  22
ATOM     22  C   UNL     1      -1.699  12.713  22.671  0.00  0.00    +0.000 A 
ATOM     23  C   UNL     1      -1.287  13.799  23.446  0.00  0.00    +0.000 A 
ATOM     24  C   UNL     1      -2.225  14.637  24.058  0.00  0.00    +0.000 A 
ATOM     25  C   UNL     1      -3.590  14.412  23.899  0.00  0.00    +0.000 A 
ATOM     26  C   UNL     1      -4.016  13.318  23.148  0.00  0.00    +0.000 A 
ATOM     27  C   UNL     1      -3.074  12.484  22.522  0.00  0.00    +0.000 A 
BRANCH  25  28
ATOM     28  O   UNL     1      -4.402  15.300  24.543  0.00  0.00    +0.000 OA
BRANCH  28  29
ATOM     29  C   UNL     1      -5.549  15.710  23.820  0.00  0.00    +0.000 C 
ATOM     30  F   UNL     1      -6.606  14.959  24.216  0.00  0.00    +0.000 F 
ATOM     31  F   UNL     1      -5.822  16.989  24.182  0.00  0.00    +0.000 F 
ENDBRANCH  28  29
ENDBRANCH  25  28
ENDBRANCH  20  22
ENDBRANCH  17  19
ENDBRANCH   1  17
TORSDOF 8
ENDMDL
MODEL 5
REMARK VINA RESULT:      -7.8      6.755      9.912
REMARK  Name = 
REMARK  8 active torsions:
REMARK  status: ('A' for Active; 'I' for Inactive)
REMARK    1  A    between atoms: C_2  and  C_3
REMARK    2  A    between atoms: C_3  and  S_4
REMARK    3  A    between atoms: S_4  and  C_5
REMARK    4  A    between atoms: C_8  and  S_9
REMARK    5  A    between atoms: S_9  and  N_12
REMARK    6  A    between atoms: N_20  and  C_21
REMARK    7  A    between atoms: C_24  and  O_25
REMARK    8  A    between atoms: O_25  and  C_26
REMARK                            x       y       z     vdW  Elec       q    Type
REMARK                         _______ _______ _______ _____ _____    ______ ____
ROOT
ATOM      1  S   UNL     1       7.791   8.220  17.390  0.00  0.00    +0.000 S 
ENDROOT
BRANCH   1   2
ATOM      2  C   UNL     1       8.495   9.646  18.216  0.00  0.00    +0.000 A 
ATOM      3  C   UNL     1       8.431  10.892  17.595  0.00  0.00    +0.000 A 
ATOM      4  C   UNL     1       8.987  12.004  18.237  0.00  0.00    +0.000 A 
ATOM      5  C   UNL     1       9.594  11.827  19.475  0.00  0.00    +0.000 A 
ATOM      6  C   UNL     1       9.629  10.558  20.022  0.00  0.00    +0.000 A 
ATOM      7  N   UNL     1       9.078   9.470  19.423  0.00  0.00    +0.000 NA
BRANCH   5   8
ATOM      8  S   UNL     1      10.414  13.139  20.318  0.00  0.00    +0.000 S 
ATOM      9  O   UNL     1       9.942  13.104  21.682  0.00  0.00    +0.000 OA
ATOM     10  O   UNL     1      11.824  13.063  20.006  0.00  0.00    +0.000 OA
BRANCH   8  11
ATOM     11  N   UNL     1       9.784  14.534  19.572  0.00  0.00    +0.000 NA
ATOM     12  C   UNL     1      10.716  15.323  18.706  0.00  0.00    +0.000 C 
ATOM     13  C   UNL     1      11.553  16.308  19.536  0.00  0.00    +0.000 C 
ATOM     14  O   UNL     1      10.720  17.175  20.319  0.00  0.00    +0.000 OA
ATOM     15  C   UNL     1       9.892  16.420  21.216  0.00  0.00    +0.000 C 
ATOM     16  C   UNL     1       8.989  15.455  20.444  0.00  0.00    +0.000 C 
ENDBRANCH   8  11
ENDBRANCH   5   8
ENDBRANCH   1   2
BRANCH   1  17
ATOM     17  C   UNL     1       8.057   6.952  18.672  0.00  0.00    +0.000 C 
BRANCH  17  19
ATOM     18  O   UNL     1       6.916   5.178  19.771  0.00  0.00    +0.000 OA
ATOM     19  C   UNL     1       6.920   5.946  18.807  0.00  0.00    +0.000 C 
ATOM     20  N   UNL     1       5.922   6.018  17.850  0.00  0.00    +0.000 N 
ATOM     21  H   UNL     1       6.140   6.570  17.028  0.00  0.00    +0.000 HD
BRANCH  20  22
ATOM     22  C   UNL     1       4.713   5.287  17.837  0.00  0.00    +0.000 A 
ATOM     23  C   UNL     1       4.631   3.942  17.472  0.00  0.00    +0.000 A 
ATOM     24  C   UNL     1       3.405   3.270  17.489  0.00  0.00    +0.000 A 
ATOM     25  C   UNL     1       2.241   3.926  17.881  0.00  0.00    +0.000 A 
ATOM     26  C   UNL     1       2.303   5.275  18.226  0.00  0.00    +0.000 A 
ATOM     27  C   UNL     1       3.537   5.946  18.220  0.00  0.00    +0.000 A 
BRANCH  25  28
ATOM     28  O   UNL     1       1.109   3.160  17.859  0.00  0.00    +0.000 OA
BRANCH  28  29
ATOM     29  C   UNL     1       0.758   2.559  19.092  0.00  0.00    +0.000 C 
ATOM     30  F   UNL     1       1.776   1.759  19.493  0.00  0.00    +0.000 F 
ATOM     31  F   UNL     1       0.655   3.552  20.013  0.00  0.00    +0.000 F 
ENDBRANCH  28  29
ENDBRANCH  25  28
ENDBRANCH  20  22
ENDBRANCH  17  19
ENDBRANCH   1  17
TORSDOF 8
ENDMDL
MODEL 6
REMARK VINA RESULT:      -7.7      8.716     12.172
REMARK  Name = 
REMARK  8 active torsions:
REMARK  status: ('A' for Active; 'I' for Inactive)
REMARK    1  A    between atoms: C_2  and  C_3
REMARK    2  A    between atoms: C_3  and  S_4
REMARK    3  A    between atoms: S_4  and  C_5
REMARK    4  A    between atoms: C_8  and  S_9
REMARK    5  A    between atoms: S_9  and  N_12
REMARK    6  A    between atoms: N_20  and  C_21
REMARK    7  A    between atoms: C_24  and  O_25
REMARK    8  A    between atoms: O_25  and  C_26
REMARK                            x       y       z     vdW  Elec       q    Type
REMARK                         _______ _______ _______ _____ _____    ______ ____
ROOT
ATOM      1  S   UNL     1       0.726   8.481  21.387  0.00  0.00    +0.000 S 
ENDROOT
BRANCH   1   2
ATOM      2  C   UNL     1       1.662   7.301  20.417  0.00  0.00    +0.000 A 
ATOM      3  C   UNL     1       1.749   5.979  20.851  0.00  0.00    +0.000 A 
ATOM      4  C   UNL     1       2.486   5.060  20.096  0.00  0.00    +0.000 A 
ATOM      5  C   UNL     1       3.116   5.498  18.936  0.00  0.00    +0.000 A 
ATOM      6  C   UNL     1       2.993   6.827  18.577  0.00  0.00    +0.000 A 
ATOM      7  N   UNL     1       2.266   7.730  19.286  0.00  0.00    +0.000 NA
BRANCH   5   8
ATOM      8  S   UNL     1       4.150   4.449  17.973  0.00  0.00    +0.000 S 
ATOM      9  O   UNL     1       4.863   3.610  18.908  0.00  0.00    +0.000 OA
ATOM     10  O   UNL     1       3.352   3.881  16.909  0.00  0.00    +0.000 OA
BRANCH   8  11
ATOM     11  N   UNL     1       5.263   5.533  17.275  0.00  0.00    +0.000 NA
ATOM     12  C   UNL     1       5.519   5.394  15.807  0.00  0.00    +0.000 C 
ATOM     13  C   UNL     1       6.587   4.326  15.522  0.00  0.00    +0.000 C 
ATOM     14  O   UNL     1       7.803   4.598  16.234  0.00  0.00    +0.000 OA
ATOM     15  C   UNL     1       7.572   4.638  17.650  0.00  0.00    +0.000 C 
ATOM     16  C   UNL     1       6.555   5.725  18.007  0.00  0.00    +0.000 C 
ENDBRANCH   8  11
ENDBRANCH   5   8
ENDBRANCH   1   2
BRANCH   1  17
ATOM     17  C   UNL     1       0.682   9.882  20.223  0.00  0.00    +0.000 C 
BRANCH  17  19
ATOM     18  O   UNL     1      -0.795  11.701  19.820  0.00  0.00    +0.000 OA
ATOM     19  C   UNL     1      -0.192  11.046  20.672  0.00  0.00    +0.000 C 
ATOM     20  N   UNL     1      -0.295  11.242  22.038  0.00  0.00    +0.000 N 
ATOM     21  H   UNL     1       0.384  10.748  22.606  0.00  0.00    +0.000 HD
BRANCH  20  22
ATOM     22  C   UNL     1      -1.140  12.165  22.697  0.00  0.00    +0.000 A 
ATOM     23  C   UNL     1      -0.786  13.493  22.939  0.00  0.00    +0.000 A 
ATOM     24  C   UNL     1      -1.671  14.362  23.586  0.00  0.00    +0.000 A 
ATOM     25  C   UNL     1      -2.928  13.922  23.992  0.00  0.00    +0.000 A 
ATOM     26  C   UNL     1      -3.286  12.593  23.778  0.00  0.00    +0.000 A 
ATOM     27  C   UNL     1      -2.402  11.724  23.117  0.00  0.00    +0.000 A 
BRANCH  25  28
ATOM     28  O   UNL     1      -3.700  14.865  24.609  0.00  0.00    +0.000 OA
BRANCH  28  29
ATOM     29  C   UNL     1      -3.530  16.191  24.141  0.00  0.00    +0.000 C 
ATOM     30  F   UNL     1      -4.617  16.539  23.410  0.00  0.00    +0.000 F 
ATOM     31  F   UNL     1      -3.512  17.006  25.227  0.00  0.00    +0.000 F 
ENDBRANCH  28  29
ENDBRANCH  25  28
ENDBRANCH  20  22
ENDBRANCH  17  19
ENDBRANCH   1  17
TORSDOF 8
ENDMDL
MODEL 7
REMARK VINA RESULT:      -7.7      4.785      8.432
REMARK  Name = 
REMARK  8 active torsions:
REMARK  status: ('A' for Active; 'I' for Inactive)
REMARK    1  A    between atoms: C_2  and  C_3
REMARK    2  A    between atoms: C_3  and  S_4
REMARK    3  A    between atoms: S_4  and  C_5
REMARK    4  A    between atoms: C_8  and  S_9
REMARK    5  A    between atoms: S_9  and  N_12
REMARK    6  A    between atoms: N_20  and  C_21
REMARK    7  A    between atoms: C_24  and  O_25
REMARK    8  A    between atoms: O_25  and  C_26
REMARK                            x       y       z     vdW  Elec       q    Type
REMARK                         _______ _______ _______ _____ _____    ______ ____
ROOT
ATOM      1  S   UNL     1       3.298   2.472  20.237  0.00  0.00    +0.000 S 
ENDROOT
BRANCH   1   2
ATOM      2  C   UNL     1       4.053   3.635  19.102  0.00  0.00    +0.000 A 
ATOM      3  C   UNL     1       3.455   3.864  17.864  0.00  0.00    +0.000 A 
ATOM      4  C   UNL     1       4.049   4.766  16.976  0.00  0.00    +0.000 A 
ATOM      5  C   UNL     1       5.226   5.403  17.355  0.00  0.00    +0.000 A 
ATOM      6  C   UNL     1       5.766   5.115  18.594  0.00  0.00    +0.000 A 
ATOM      7  N   UNL     1       5.193   4.257  19.479  0.00  0.00    +0.000 NA
BRANCH   5   8
ATOM      8  S   UNL     1       6.108   6.475  16.272  0.00  0.00    +0.000 S 
ATOM      9  O   UNL     1       5.173   6.878  15.248  0.00  0.00    +0.000 OA
ATOM     10  O   UNL     1       6.811   7.450  17.075  0.00  0.00    +0.000 OA
BRANCH   8  11
ATOM     11  N   UNL     1       7.264   5.446  15.560  0.00  0.00    +0.000 NA
ATOM     12  C   UNL     1       7.565   5.660  14.110  0.00  0.00    +0.000 C 
ATOM     13  C   UNL     1       6.556   4.925  13.214  0.00  0.00    +0.000 C 
ATOM     14  O   UNL     1       6.500   3.526  13.527  0.00  0.00    +0.000 OA
ATOM     15  C   UNL     1       6.120   3.320  14.897  0.00  0.00    +0.000 C 
ATOM     16  C   UNL     1       7.120   3.984  15.846  0.00  0.00    +0.000 C 
ENDBRANCH   8  11
ENDBRANCH   5   8
ENDBRANCH   1   2
BRANCH   1  17
ATOM     17  C   UNL     1       2.518   3.634  21.404  0.00  0.00    +0.000 C 
BRANCH  17  19
ATOM     18  O   UNL     1       0.603   4.657  20.435  0.00  0.00    +0.000 OA
ATOM     19  C   UNL     1       1.788   4.796  20.742  0.00  0.00    +0.000 C 
ATOM     20  N   UNL     1       2.511   5.967  20.592  0.00  0.00    +0.000 N 
ATOM     21  H   UNL     1       3.513   5.885  20.725  0.00  0.00    +0.000 HD
BRANCH  20  22
ATOM     22  C   UNL     1       2.019   7.209  20.130  0.00  0.00    +0.000 A 
ATOM     23  C   UNL     1       1.273   8.082  20.923  0.00  0.00    +0.000 A 
ATOM     24  C   UNL     1       0.823   9.304  20.413  0.00  0.00    +0.000 A 
ATOM     25  C   UNL     1       1.120   9.680  19.105  0.00  0.00    +0.000 A 
ATOM     26  C   UNL     1       1.844   8.808  18.294  0.00  0.00    +0.000 A 
ATOM     27  C   UNL     1       2.306   7.586  18.812  0.00  0.00    +0.000 A 
BRANCH  25  28
ATOM     28  O   UNL     1       0.628  10.896  18.726  0.00  0.00    +0.000 OA
BRANCH  28  29
ATOM     29  C   UNL     1      -0.774  10.952  18.536  0.00  0.00    +0.000 C 
ATOM     30  F   UNL     1      -1.077  12.079  17.847  0.00  0.00    +0.000 F 
ATOM     31  F   UNL     1      -1.118   9.905  17.743  0.00  0.00    +0.000 F 
ENDBRANCH  28  29
ENDBRANCH  25  28
ENDBRANCH  20  22
ENDBRANCH  17  19
ENDBRANCH   1  17
TORSDOF 8
ENDMDL
MODEL 8
REMARK VINA RESULT:      -7.6      8.742     12.297
REMARK  Name = 
REMARK  8 active torsions:
REMARK  status: ('A' for Active; 'I' for Inactive)
REMARK    1  A    between atoms: C_2  and  C_3
REMARK    2  A    between atoms: C_3  and  S_4
REMARK    3  A    between atoms: S_4  and  C_5
REMARK    4  A    between atoms: C_8  and  S_9
REMARK    5  A    between atoms: S_9  and  N_12
REMARK    6  A    between atoms: N_20  and  C_21
REMARK    7  A    between atoms: C_24  and  O_25
REMARK    8  A    between atoms: O_25  and  C_26
REMARK                            x       y       z     vdW  Elec       q    Type
REMARK                         _______ _______ _______ _____ _____    ______ ____
ROOT
ATOM      1  S   UNL     1       0.548  10.765  19.098  0.00  0.00    +0.000 S 
ENDROOT
BRANCH   1   2
ATOM      2  C   UNL     1       1.491   9.261  18.847  0.00  0.00    +0.000 A 
ATOM      3  C   UNL     1       1.573   8.329  19.880  0.00  0.00    +0.000 A 
ATOM      4  C   UNL     1       2.315   7.159  19.687  0.00  0.00    +0.000 A 
ATOM      5  C   UNL     1       2.955   6.967  18.468  0.00  0.00    +0.000 A 
ATOM      6  C   UNL     1       2.837   7.943  17.496  0.00  0.00    +0.000 A 
ATOM      7  N   UNL     1       2.105   9.076  17.657  0.00  0.00    +0.000 NA
BRANCH   5   8
ATOM      8  S   UNL     1       3.997   5.581  18.160  0.00  0.00    +0.000 S 
ATOM      9  O   UNL     1       4.638   5.267  19.415  0.00  0.00    +0.000 OA
ATOM     10  O   UNL     1       3.229   4.591  17.438  0.00  0.00    +0.000 OA
BRANCH   8  11
ATOM     11  N   UNL     1       5.175   6.207  17.102  0.00  0.00    +0.000 NA
ATOM     12  C   UNL     1       5.359   5.503  15.794  0.00  0.00    +0.000 C 
ATOM     13  C   UNL     1       6.313   4.305  15.931  0.00  0.00    +0.000 C 
ATOM     14  O   UNL     1       7.575   4.702  16.485  0.00  0.00    +0.000 OA
ATOM     15  C   UNL     1       7.406   5.294  17.782  0.00  0.00    +0.000 C 
ATOM     16  C   UNL     1       6.507   6.531  17.704  0.00  0.00    +0.000 C 
ENDBRANCH   8  11
ENDBRANCH   5   8
ENDBRANCH   1   2
BRANCH   1  17
ATOM     17  C   UNL     1       0.937  11.092  20.848  0.00  0.00    +0.000 C 
BRANCH  17  19
ATOM     18  O   UNL     1       0.273  13.113  21.911  0.00  0.00    +0.000 OA
ATOM     19  C   UNL     1      -0.073  11.983  21.561  0.00  0.00    +0.000 C 
ATOM     20  N   UNL     1      -1.349  11.467  21.706  0.00  0.00    +0.000 N 
ATOM     21  H   UNL     1      -1.444  10.472  21.532  0.00  0.00    +0.000 HD
BRANCH  20  22
ATOM     22  C   UNL     1      -2.481  12.146  22.211  0.00  0.00    +0.000 A 
ATOM     23  C   UNL     1      -3.353  12.886  21.411  0.00  0.00    +0.000 A 
ATOM     24  C   UNL     1      -4.464  13.527  21.968  0.00  0.00    +0.000 A 
ATOM     25  C   UNL     1      -4.730  13.431  23.332  0.00  0.00    +0.000 A 
ATOM     26  C   UNL     1      -3.855  12.715  24.147  0.00  0.00    +0.000 A 
ATOM     27  C   UNL     1      -2.746  12.061  23.584  0.00  0.00    +0.000 A 
BRANCH  25  28
ATOM     28  O   UNL     1      -5.845  14.098  23.753  0.00  0.00    +0.000 OA
BRANCH  28  29
ATOM     29  C   UNL     1      -7.029  13.324  23.815  0.00  0.00    +0.000 C 
ATOM     30  F   UNL     1      -7.585  13.277  22.580  0.00  0.00    +0.000 F 
ATOM     31  F   UNL     1      -6.668  12.054  24.128  0.00  0.00    +0.000 F 
ENDBRANCH  28  29
ENDBRANCH  25  28
ENDBRANCH  20  22
ENDBRANCH  17  19
ENDBRANCH   1  17
TORSDOF 8
ENDMDL
MODEL 9
REMARK VINA RESULT:      -7.6      5.893      7.804
REMARK  Name = 
REMARK  8 active torsions:
REMARK  status: ('A' for Active; 'I' for Inactive)
REMARK    1  A    between atoms: C_2  and  C_3
REMARK    2  A    between atoms: C_3  and  S_4
REMARK    3  A    between atoms: S_4  and  C_5
REMARK    4  A    between atoms: C_8  and  S_9
REMARK    5  A    between atoms: S_9  and  N_12
REMARK    6  A    between atoms: N_20  and  C_21
REMARK    7  A    between atoms: C_24  and  O_25
REMARK    8  A    between atoms: O_25  and  C_26
REMARK                            x       y       z     vdW  Elec       q    Type
REMARK                         _______ _______ _______ _____ _____    ______ ____
ROOT
ATOM      1  S   UNL     1       7.493   5.733  16.930  0.00  0.00    +0.000 S 
ENDROOT
BRANCH   1   2
ATOM      2  C   UNL     1       5.839   5.219  17.389  0.00  0.00    +0.000 A 
ATOM      3  C   UNL     1       5.173   4.283  16.600  0.00  0.00    +0.000 A 
ATOM      4  C   UNL     1       3.879   3.888  16.956  0.00  0.00    +0.000 A 
ATOM      5  C   UNL     1       3.294   4.450  18.085  0.00  0.00    +0.000 A 
ATOM      6  C   UNL     1       4.013   5.381  18.810  0.00  0.00    +0.000 A 
ATOM      7  N   UNL     1       5.278   5.763  18.493  0.00  0.00    +0.000 NA
BRANCH   5   8
ATOM      8  S   UNL     1       1.635   4.100  18.559  0.00  0.00    +0.000 S 
ATOM      9  O   UNL     1       1.281   5.081  19.558  0.00  0.00    +0.000 OA
ATOM     10  O   UNL     1       0.848   3.931  17.358  0.00  0.00    +0.000 OA
BRANCH   8  11
ATOM     11  N   UNL     1       1.760   2.583  19.324  0.00  0.00    +0.000 NA
ATOM     12  C   UNL     1       1.269   2.490  20.735  0.00  0.00    +0.000 C 
ATOM     13  C   UNL     1       2.349   2.932  21.734  0.00  0.00    +0.000 C 
ATOM     14  O   UNL     1       3.562   2.185  21.560  0.00  0.00    +0.000 OA
ATOM     15  C   UNL     1       4.081   2.350  20.232  0.00  0.00    +0.000 C 
ATOM     16  C   UNL     1       3.070   1.873  19.187  0.00  0.00    +0.000 C 
ENDBRANCH   8  11
ENDBRANCH   5   8
ENDBRANCH   1   2
BRANCH   1  17
ATOM     17  C   UNL     1       7.955   6.674  18.420  0.00  0.00    +0.000 C 
BRANCH  17  19
ATOM     18  O   UNL     1       7.631   8.695  17.210  0.00  0.00    +0.000 OA
ATOM     19  C   UNL     1       8.172   8.164  18.181  0.00  0.00    +0.000 C 
ATOM     20  N   UNL     1       8.923   8.833  19.132  0.00  0.00    +0.000 N 
ATOM     21  H   UNL     1       9.445   8.246  19.773  0.00  0.00    +0.000 HD
BRANCH  20  22
ATOM     22  C   UNL     1       9.151  10.226  19.199  0.00  0.00    +0.000 A 
ATOM     23  C   UNL     1       9.591  10.878  20.353  0.00  0.00    +0.000 A 
ATOM     24  C   UNL     1       9.809  12.259  20.354  0.00  0.00    +0.000 A 
ATOM     25  C   UNL     1       9.602  13.012  19.201  0.00  0.00    +0.000 A 
ATOM     26  C   UNL     1       9.140  12.379  18.049  0.00  0.00    +0.000 A 
ATOM     27  C   UNL     1       8.933  10.990  18.045  0.00  0.00    +0.000 A 
BRANCH  25  28
ATOM     28  O   UNL     1       9.853  14.349  19.330  0.00  0.00    +0.000 OA
BRANCH  28  29
ATOM     29  C   UNL     1      10.471  14.961  18.212  0.00  0.00    +0.000 C 
ATOM     30  F   UNL     1       9.767  16.070  17.878  0.00  0.00    +0.000 F 
ATOM     31  F   UNL     1      11.699  15.382  18.607  0.00  0.00    +0.000 F 
ENDBRANCH  28  29
ENDBRANCH  25  28
ENDBRANCH  20  22
ENDBRANCH  17  19
ENDBRANCH   1  17
TORSDOF 8
ENDMDL
