MODEL 1
REMARK VINA RESULT:      -8.8      0.000      0.000
REMARK  Name = 
REMARK  4 active torsions:
REMARK  status: ('A' for Active; 'I' for Inactive)
REMARK    1  A    between atoms: C_2  and  C_18
REMARK    2  A    between atoms: N_3  and  C_4
REMARK    3  A    between atoms: N_8  and  C_9
REMARK    4  A    between atoms: C_9  and  C_10
REMARK                            x       y       z     vdW  Elec       q    Type
REMARK                         _______ _______ _______ _____ _____    ______ ____
ROOT
ATOM      1  O   UNL     1       2.307   7.738  18.828  0.00  0.00    +0.000 OA
ATOM      2  C   UNL     1       1.873   7.590  19.965  0.00  0.00    +0.000 C 
ATOM      3  N   UNL     1       1.835   6.368  20.594  0.00  0.00    +0.000 N 
ATOM      4  H   UNL     1       1.667   6.363  21.598  0.00  0.00    +0.000 HD
ENDROOT
BRANCH   2   5
ATOM      5  C   UNL     1       1.320   8.694  20.730  0.00  0.00    +0.000 A 
ATOM      6  C   UNL     1       1.483   8.833  22.099  0.00  0.00    +0.000 A 
ATOM      7  O   UNL     1       0.869   9.954  22.566  0.00  0.00    +0.000 OA
ATOM      8  C   UNL     1       0.282  10.529  21.493  0.00  0.00    +0.000 A 
ATOM      9  C   UNL     1       0.512   9.803  20.346  0.00  0.00    +0.000 A 
ATOM     10  C   UNL     1      -0.076  10.234  19.093  0.00  0.00    +0.000 C 
ATOM     11  O   UNL     1       0.242   9.733  18.018  0.00  0.00    +0.000 OA
ATOM     12  C   UNL     1      -1.157  11.307  19.213  0.00  0.00    +0.000 C 
ATOM     13  C   UNL     1      -0.781  12.370  20.261  0.00  0.00    +0.000 C 
ATOM     14  C   UNL     1      -0.515  11.766  21.655  0.00  0.00    +0.000 C 
ENDBRANCH   2   5
BRANCH   3  15
ATOM     15  C   UNL     1       2.478   5.198  20.028  0.00  0.00    +0.000 C 
ATOM     16  C   UNL     1       1.809   4.757  18.730  0.00  0.00    +0.000 C 
ATOM     17  C   UNL     1       2.909   4.034  18.007  0.00  0.00    +0.000 C 
ATOM     18  O   UNL     1       2.747   3.301  17.045  0.00  0.00    +0.000 OA
ATOM     19  N   UNL     1       4.119   4.433  18.548  0.00  0.00    +0.000 N 
ATOM     20  C   UNL     1       3.943   5.391  19.617  0.00  0.00    +0.000 C 
BRANCH  19  21
ATOM     21  C   UNL     1       5.403   4.239  17.888  0.00  0.00    +0.000 C 
BRANCH  21  22
ATOM     22  C   UNL     1       6.275   5.472  17.980  0.00  0.00    +0.000 A 
ATOM     23  C   UNL     1       7.293   5.505  18.955  0.00  0.00    +0.000 A 
ATOM     24  C   UNL     1       8.189   6.571  19.034  0.00  0.00    +0.000 A 
ATOM     25  C   UNL     1       8.073   7.639  18.154  0.00  0.00    +0.000 A 
ATOM     26  C   UNL     1       7.047   7.648  17.210  0.00  0.00    +0.000 A 
ATOM     27  C   UNL     1       6.151   6.574  17.123  0.00  0.00    +0.000 A 
ATOM     28 CL   UNL     1       4.910   6.676  15.925  0.00  0.00    +0.000 Cl
ENDBRANCH  21  22
ENDBRANCH  19  21
ENDBRANCH   3  15
TORSDOF 4
ENDMDL
MODEL 2
REMARK VINA RESULT:      -8.4      1.820      2.655
REMARK  Name = 
REMARK  4 active torsions:
REMARK  status: ('A' for Active; 'I' for Inactive)
REMARK    1  A    between atoms: C_2  and  C_18
REMARK    2  A    between atoms: N_3  and  C_4
REMARK    3  A    between atoms: N_8  and  C_9
REMARK    4  A    between atoms: C_9  and  C_10
REMARK                            x       y       z     vdW  Elec       q    Type
REMARK                         _______ _______ _______ _____ _____    ______ ____
ROOT
ATOM      1  O   UNL     1       1.929   9.403  22.727  0.00  0.00    +0.000 OA
ATOM      2  C   UNL     1       0.967   9.431  21.966  0.00  0.00    +0.000 C 
ATOM      3  N   UNL     1       0.869   8.619  20.862  0.00  0.00    +0.000 N 
ATOM      4  H   UNL     1      -0.042   8.548  20.412  0.00  0.00    +0.000 HD
ENDROOT
BRANCH   2   5
ATOM      5  C   UNL     1      -0.133  10.361  22.149  0.00  0.00    +0.000 A 
ATOM      6  C   UNL     1      -0.970  10.347  23.254  0.00  0.00    +0.000 A 
ATOM      7  O   UNL     1      -1.916  11.322  23.178  0.00  0.00    +0.000 OA
ATOM      8  C   UNL     1      -1.703  11.954  22.002  0.00  0.00    +0.000 A 
ATOM      9  C   UNL     1      -0.637  11.407  21.324  0.00  0.00    +0.000 A 
ATOM     10  C   UNL     1      -0.279  11.919  20.016  0.00  0.00    +0.000 C 
ATOM     11  O   UNL     1       0.763  11.595  19.453  0.00  0.00    +0.000 OA
ATOM     12  C   UNL     1      -1.314  12.836  19.366  0.00  0.00    +0.000 C 
ATOM     13  C   UNL     1      -1.937  13.797  20.395  0.00  0.00    +0.000 C 
ATOM     14  C   UNL     1      -2.591  13.061  21.581  0.00  0.00    +0.000 C 
ENDBRANCH   2   5
BRANCH   3  15
ATOM     15  C   UNL     1       1.807   7.540  20.621  0.00  0.00    +0.000 C 
ATOM     16  C   UNL     1       1.143   6.173  20.758  0.00  0.00    +0.000 C 
ATOM     17  C   UNL     1       1.998   5.290  19.894  0.00  0.00    +0.000 C 
ATOM     18  O   UNL     1       1.984   4.070  19.913  0.00  0.00    +0.000 OA
ATOM     19  N   UNL     1       2.705   6.095  19.016  0.00  0.00    +0.000 N 
ATOM     20  C   UNL     1       2.407   7.496  19.211  0.00  0.00    +0.000 C 
BRANCH  19  21
ATOM     21  C   UNL     1       3.347   5.601  17.805  0.00  0.00    +0.000 C 
BRANCH  21  22
ATOM     22  C   UNL     1       4.846   5.807  17.841  0.00  0.00    +0.000 A 
ATOM     23  C   UNL     1       5.390   6.911  17.153  0.00  0.00    +0.000 A 
ATOM     24  C   UNL     1       6.750   7.210  17.220  0.00  0.00    +0.000 A 
ATOM     25  C   UNL     1       7.602   6.398  17.959  0.00  0.00    +0.000 A 
ATOM     26  C   UNL     1       7.093   5.277  18.612  0.00  0.00    +0.000 A 
ATOM     27  C   UNL     1       5.725   4.979  18.553  0.00  0.00    +0.000 A 
ATOM     28 CL   UNL     1       5.188   3.566  19.390  0.00  0.00    +0.000 Cl
ENDBRANCH  21  22
ENDBRANCH  19  21
ENDBRANCH   3  15
TORSDOF 4
ENDMDL
MODEL 3
REMARK VINA RESULT:      -8.4      2.760      4.735
REMARK  Name = 
REMARK  4 active torsions:
REMARK  status: ('A' for Active; 'I' for Inactive)
REMARK    1  A    between atoms: C_2  and  C_18
REMARK    2  A    between atoms: N_3  and  C_4
REMARK    3  A    between atoms: N_8  and  C_9
REMARK    4  A    between atoms: C_9  and  C_10
REMARK                            x       y       z     vdW  Elec       q    Type
REMARK                         _______ _______ _______ _____ _____    ______ ____
ROOT
ATOM      1  O   UNL     1      -0.777  10.011  17.771  0.00  0.00    +0.000 OA
ATOM      2  C   UNL     1       0.022  10.564  18.520  0.00  0.00    +0.000 C 
ATOM      3  N   UNL     1       1.139   9.932  19.013  0.00  0.00    +0.000 N 
ATOM      4  H   UNL     1       1.855  10.515  19.444  0.00  0.00    +0.000 HD
ENDROOT
BRANCH   2   5
ATOM      5  C   UNL     1      -0.172  11.926  18.985  0.00  0.00    +0.000 A 
ATOM      6  C   UNL     1      -1.351  12.378  19.558  0.00  0.00    +0.000 A 
ATOM      7  O   UNL     1      -1.268  13.690  19.907  0.00  0.00    +0.000 OA
ATOM      8  C   UNL     1      -0.034  14.096  19.531  0.00  0.00    +0.000 A 
ATOM      9  C   UNL     1       0.678  13.069  18.954  0.00  0.00    +0.000 A 
ATOM     10  C   UNL     1       2.010  13.318  18.442  0.00  0.00    +0.000 C 
ATOM     11  O   UNL     1       2.752  12.407  18.086  0.00  0.00    +0.000 OA
ATOM     12  C   UNL     1       2.400  14.791  18.320  0.00  0.00    +0.000 C 
ATOM     13  C   UNL     1       1.904  15.605  19.528  0.00  0.00    +0.000 C 
ATOM     14  C   UNL     1       0.379  15.503  19.733  0.00  0.00    +0.000 C 
ENDBRANCH   2   5
BRANCH   3  15
ATOM     15  C   UNL     1       1.553   8.628  18.533  0.00  0.00    +0.000 C 
ATOM     16  C   UNL     1       2.761   8.725  17.606  0.00  0.00    +0.000 C 
ATOM     17  C   UNL     1       3.405   7.374  17.743  0.00  0.00    +0.000 C 
ATOM     18  O   UNL     1       4.251   6.925  16.987  0.00  0.00    +0.000 OA
ATOM     19  N   UNL     1       2.954   6.795  18.916  0.00  0.00    +0.000 N 
ATOM     20  C   UNL     1       2.023   7.651  19.617  0.00  0.00    +0.000 C 
BRANCH  19  21
ATOM     21  C   UNL     1       3.611   5.670  19.568  0.00  0.00    +0.000 C 
BRANCH  21  22
ATOM     22  C   UNL     1       2.746   4.429  19.556  0.00  0.00    +0.000 A 
ATOM     23  C   UNL     1       1.920   4.174  20.669  0.00  0.00    +0.000 A 
ATOM     24  C   UNL     1       1.032   3.099  20.684  0.00  0.00    +0.000 A 
ATOM     25  C   UNL     1       0.965   2.241  19.594  0.00  0.00    +0.000 A 
ATOM     26  C   UNL     1       1.804   2.449  18.499  0.00  0.00    +0.000 A 
ATOM     27  C   UNL     1       2.691   3.533  18.479  0.00  0.00    +0.000 A 
ATOM     28 CL   UNL     1       3.693   3.707  17.082  0.00  0.00    +0.000 Cl
ENDBRANCH  21  22
ENDBRANCH  19  21
ENDBRANCH   3  15
TORSDOF 4
ENDMDL
MODEL 4
REMARK VINA RESULT:      -8.3      1.354      1.872
REMARK  Name = 
REMARK  4 active torsions:
REMARK  status: ('A' for Active; 'I' for Inactive)
REMARK    1  A    between atoms: C_2  and  C_18
REMARK    2  A    between atoms: N_3  and  C_4
REMARK    3  A    between atoms: N_8  and  C_9
REMARK    4  A    between atoms: C_9  and  C_10
REMARK                            x       y       z     vdW  Elec       q    Type
REMARK                         _______ _______ _______ _____ _____    ______ ____
ROOT
ATOM      1  O   UNL     1       2.546   7.315  19.256  0.00  0.00    +0.000 OA
ATOM      2  C   UNL     1       1.847   7.380  20.262  0.00  0.00    +0.000 C 
ATOM      3  N   UNL     1       1.451   6.268  20.966  0.00  0.00    +0.000 N 
ATOM      4  H   UNL     1       1.062   6.416  21.895  0.00  0.00    +0.000 HD
ENDROOT
BRANCH   2   5
ATOM      5  C   UNL     1       1.343   8.644  20.769  0.00  0.00    +0.000 A 
ATOM      6  C   UNL     1       1.342   8.981  22.114  0.00  0.00    +0.000 A 
ATOM      7  O   UNL     1       0.818  10.220  22.319  0.00  0.00    +0.000 OA
ATOM      8  C   UNL     1       0.453  10.675  21.099  0.00  0.00    +0.000 A 
ATOM      9  C   UNL     1       0.738   9.756  20.115  0.00  0.00    +0.000 A 
ATOM     10  C   UNL     1       0.378  10.040  18.741  0.00  0.00    +0.000 C 
ATOM     11  O   UNL     1       0.769   9.344  17.808  0.00  0.00    +0.000 OA
ATOM     12  C   UNL     1      -0.566  11.226  18.543  0.00  0.00    +0.000 C 
ATOM     13  C   UNL     1      -0.199  12.396  19.473  0.00  0.00    +0.000 C 
ATOM     14  C   UNL     1      -0.196  11.998  20.962  0.00  0.00    +0.000 C 
ENDBRANCH   2   5
BRANCH   3  15
ATOM     15  C   UNL     1       1.986   4.951  20.678  0.00  0.00    +0.000 C 
ATOM     16  C   UNL     1       1.275   4.299  19.496  0.00  0.00    +0.000 C 
ATOM     17  C   UNL     1       2.304   3.342  18.964  0.00  0.00    +0.000 C 
ATOM     18  O   UNL     1       2.074   2.434  18.183  0.00  0.00    +0.000 OA
ATOM     19  N   UNL     1       3.546   3.742  19.425  0.00  0.00    +0.000 N 
ATOM     20  C   UNL     1       3.460   4.921  20.258  0.00  0.00    +0.000 C 
BRANCH  19  21
ATOM     21  C   UNL     1       4.806   3.297  18.843  0.00  0.00    +0.000 C 
BRANCH  21  22
ATOM     22  C   UNL     1       5.280   4.228  17.749  0.00  0.00    +0.000 A 
ATOM     23  C   UNL     1       4.754   4.064  16.452  0.00  0.00    +0.000 A 
ATOM     24  C   UNL     1       5.079   4.944  15.420  0.00  0.00    +0.000 A 
ATOM     25  C   UNL     1       5.956   5.995  15.656  0.00  0.00    +0.000 A 
ATOM     26  C   UNL     1       6.523   6.150  16.921  0.00  0.00    +0.000 A 
ATOM     27  C   UNL     1       6.190   5.273  17.962  0.00  0.00    +0.000 A 
ATOM     28 CL   UNL     1       6.945   5.542  19.492  0.00  0.00    +0.000 Cl
ENDBRANCH  21  22
ENDBRANCH  19  21
ENDBRANCH   3  15
TORSDOF 4
ENDMDL
MODEL 5
REMARK VINA RESULT:      -8.3      3.497      8.677
REMARK  Name = 
REMARK  4 active torsions:
REMARK  status: ('A' for Active; 'I' for Inactive)
REMARK    1  A    between atoms: C_2  and  C_18
REMARK    2  A    between atoms: N_3  and  C_4
REMARK    3  A    between atoms: N_8  and  C_9
REMARK    4  A    between atoms: C_9  and  C_10
REMARK                            x       y       z     vdW  Elec       q    Type
REMARK                         _______ _______ _______ _____ _____    ______ ____
ROOT
ATOM      1  O   UNL     1       1.840   7.298  20.707  0.00  0.00    +0.000 OA
ATOM      2  C   UNL     1       2.059   7.404  19.505  0.00  0.00    +0.000 C 
ATOM      3  N   UNL     1       1.705   8.517  18.780  0.00  0.00    +0.000 N 
ATOM      4  H   UNL     1       2.109   8.618  17.851  0.00  0.00    +0.000 HD
ENDROOT
BRANCH   2   5
ATOM      5  C   UNL     1       2.675   6.337  18.737  0.00  0.00    +0.000 A 
ATOM      6  C   UNL     1       3.694   6.546  17.820  0.00  0.00    +0.000 A 
ATOM      7  O   UNL     1       4.094   5.381  17.241  0.00  0.00    +0.000 OA
ATOM      8  C   UNL     1       3.308   4.416  17.770  0.00  0.00    +0.000 A 
ATOM      9  C   UNL     1       2.417   4.937  18.680  0.00  0.00    +0.000 A 
ATOM     10  C   UNL     1       1.455   4.065  19.323  0.00  0.00    +0.000 C 
ATOM     11  O   UNL     1       0.765   4.440  20.268  0.00  0.00    +0.000 OA
ATOM     12  C   UNL     1       1.317   2.674  18.706  0.00  0.00    +0.000 C 
ATOM     13  C   UNL     1       2.688   2.100  18.304  0.00  0.00    +0.000 C 
ATOM     14  C   UNL     1       3.454   3.012  17.325  0.00  0.00    +0.000 C 
ENDBRANCH   2   5
BRANCH   3  15
ATOM     15  C   UNL     1       1.216   9.722  19.420  0.00  0.00    +0.000 C 
ATOM     16  C   UNL     1       1.619  10.975  18.648  0.00  0.00    +0.000 C 
ATOM     17  C   UNL     1       0.561  11.969  19.034  0.00  0.00    +0.000 C 
ATOM     18  O   UNL     1       0.634  13.173  18.850  0.00  0.00    +0.000 OA
ATOM     19  N   UNL     1      -0.532  11.273  19.521  0.00  0.00    +0.000 N 
ATOM     20  C   UNL     1      -0.309   9.844  19.510  0.00  0.00    +0.000 C 
BRANCH  19  21
ATOM     21  C   UNL     1      -1.864  11.847  19.651  0.00  0.00    +0.000 C 
BRANCH  21  22
ATOM     22  C   UNL     1      -2.701  11.613  18.412  0.00  0.00    +0.000 A 
ATOM     23  C   UNL     1      -2.050  11.218  17.225  0.00  0.00    +0.000 A 
ATOM     24  C   UNL     1      -2.769  10.900  16.074  0.00  0.00    +0.000 A 
ATOM     25  C   UNL     1      -4.156  10.990  16.076  0.00  0.00    +0.000 A 
ATOM     26  C   UNL     1      -4.818  11.420  17.226  0.00  0.00    +0.000 A 
ATOM     27  C   UNL     1      -4.098  11.732  18.386  0.00  0.00    +0.000 A 
ATOM     28 CL   UNL     1      -5.004  12.260  19.759  0.00  0.00    +0.000 Cl
ENDBRANCH  21  22
ENDBRANCH  19  21
ENDBRANCH   3  15
TORSDOF 4
ENDMDL
MODEL 6
REMARK VINA RESULT:      -8.3      1.432      1.959
REMARK  Name = 
REMARK  4 active torsions:
REMARK  status: ('A' for Active; 'I' for Inactive)
REMARK    1  A    between atoms: C_2  and  C_18
REMARK    2  A    between atoms: N_3  and  C_4
REMARK    3  A    between atoms: N_8  and  C_9
REMARK    4  A    between atoms: C_9  and  C_10
REMARK                            x       y       z     vdW  Elec       q    Type
REMARK                         _______ _______ _______ _____ _____    ______ ____
ROOT
ATOM      1  O   UNL     1       2.193   9.035  22.666  0.00  0.00    +0.000 OA
ATOM      2  C   UNL     1       1.205   9.029  21.940  0.00  0.00    +0.000 C 
ATOM      3  N   UNL     1       1.029   8.112  20.931  0.00  0.00    +0.000 N 
ATOM      4  H   UNL     1       0.099   8.037  20.522  0.00  0.00    +0.000 HD
ENDROOT
BRANCH   2   5
ATOM      5  C   UNL     1       0.152  10.022  22.061  0.00  0.00    +0.000 A 
ATOM      6  C   UNL     1      -0.588  10.214  23.218  0.00  0.00    +0.000 A 
ATOM      7  O   UNL     1      -1.506  11.207  23.066  0.00  0.00    +0.000 OA
ATOM      8  C   UNL     1      -1.375  11.641  21.792  0.00  0.00    +0.000 A 
ATOM      9  C   UNL     1      -0.388  10.951  21.126  0.00  0.00    +0.000 A 
ATOM     10  C   UNL     1      -0.127  11.240  19.729  0.00  0.00    +0.000 C 
ATOM     11  O   UNL     1       0.853  10.788  19.143  0.00  0.00    +0.000 OA
ATOM     12  C   UNL     1      -1.185  12.091  19.028  0.00  0.00    +0.000 C 
ATOM     13  C   UNL     1      -1.688  13.224  19.940  0.00  0.00    +0.000 C 
ATOM     14  C   UNL     1      -2.262  12.707  21.275  0.00  0.00    +0.000 C 
ENDBRANCH   2   5
BRANCH   3  15
ATOM     15  C   UNL     1       1.910   6.971  20.773  0.00  0.00    +0.000 C 
ATOM     16  C   UNL     1       1.130   5.663  20.678  0.00  0.00    +0.000 C 
ATOM     17  C   UNL     1       2.060   4.767  19.909  0.00  0.00    +0.000 C 
ATOM     18  O   UNL     1       1.949   3.555  19.826  0.00  0.00    +0.000 OA
ATOM     19  N   UNL     1       2.974   5.562  19.239  0.00  0.00    +0.000 N 
ATOM     20  C   UNL     1       2.753   6.968  19.492  0.00  0.00    +0.000 C 
BRANCH  19  21
ATOM     21  C   UNL     1       3.788   5.094  18.126  0.00  0.00    +0.000 C 
BRANCH  21  22
ATOM     22  C   UNL     1       5.196   5.644  18.190  0.00  0.00    +0.000 A 
ATOM     23  C   UNL     1       5.989   5.334  19.314  0.00  0.00    +0.000 A 
ATOM     24  C   UNL     1       7.323   5.732  19.394  0.00  0.00    +0.000 A 
ATOM     25  C   UNL     1       7.889   6.468  18.361  0.00  0.00    +0.000 A 
ATOM     26  C   UNL     1       7.112   6.823  17.259  0.00  0.00    +0.000 A 
ATOM     27  C   UNL     1       5.774   6.417  17.173  0.00  0.00    +0.000 A 
ATOM     28 CL   UNL     1       4.889   6.908  15.772  0.00  0.00    +0.000 Cl
ENDBRANCH  21  22
ENDBRANCH  19  21
ENDBRANCH   3  15
TORSDOF 4
ENDMDL
MODEL 7
REMARK VINA RESULT:      -8.2      1.896      2.814
REMARK  Name = 
REMARK  4 active torsions:
REMARK  status: ('A' for Active; 'I' for Inactive)
REMARK    1  A    between atoms: C_2  and  C_18
REMARK    2  A    between atoms: N_3  and  C_4
REMARK    3  A    between atoms: N_8  and  C_9
REMARK    4  A    between atoms: C_9  and  C_10
REMARK                            x       y       z     vdW  Elec       q    Type
REMARK                         _______ _______ _______ _____ _____    ______ ____
ROOT
ATOM      1  O   UNL     1       1.620   8.497  22.076  0.00  0.00    +0.000 OA
ATOM      2  C   UNL     1       1.296   8.473  20.894  0.00  0.00    +0.000 C 
ATOM      3  N   UNL     1       1.650   7.450  20.046  0.00  0.00    +0.000 N 
ATOM      4  H   UNL     1       1.166   7.395  19.151  0.00  0.00    +0.000 HD
ENDROOT
BRANCH   2   5
ATOM      5  C   UNL     1       0.542   9.551  20.279  0.00  0.00    +0.000 A 
ATOM      6  C   UNL     1       0.596   9.847  18.926  0.00  0.00    +0.000 A 
ATOM      7  O   UNL     1      -0.206  10.900  18.610  0.00  0.00    +0.000 OA
ATOM      8  C   UNL     1      -0.763  11.303  19.774  0.00  0.00    +0.000 A 
ATOM      9  C   UNL     1      -0.338  10.527  20.829  0.00  0.00    +0.000 A 
ATOM     10  C   UNL     1      -0.789  10.832  22.172  0.00  0.00    +0.000 C 
ATOM     11  O   UNL     1      -0.590  10.071  23.115  0.00  0.00    +0.000 OA
ATOM     12  C   UNL     1      -1.472  12.189  22.341  0.00  0.00    +0.000 C 
ATOM     13  C   UNL     1      -2.404  12.500  21.156  0.00  0.00    +0.000 C 
ATOM     14  C   UNL     1      -1.675  12.469  19.798  0.00  0.00    +0.000 C 
ENDBRANCH   2   5
BRANCH   3  15
ATOM     15  C   UNL     1       2.273   6.235  20.532  0.00  0.00    +0.000 C 
ATOM     16  C   UNL     1       1.337   5.036  20.420  0.00  0.00    +0.000 C 
ATOM     17  C   UNL     1       2.283   3.872  20.335  0.00  0.00    +0.000 C 
ATOM     18  O   UNL     1       1.967   2.703  20.490  0.00  0.00    +0.000 OA
ATOM     19  N   UNL     1       3.523   4.348  19.946  0.00  0.00    +0.000 N 
ATOM     20  C   UNL     1       3.516   5.781  19.758  0.00  0.00    +0.000 C 
BRANCH  19  21
ATOM     21  C   UNL     1       4.582   3.503  19.412  0.00  0.00    +0.000 C 
BRANCH  21  22
ATOM     22  C   UNL     1       5.106   4.025  18.092  0.00  0.00    +0.000 A 
ATOM     23  C   UNL     1       6.399   4.586  18.055  0.00  0.00    +0.000 A 
ATOM     24  C   UNL     1       6.976   5.004  16.856  0.00  0.00    +0.000 A 
ATOM     25  C   UNL     1       6.264   4.889  15.668  0.00  0.00    +0.000 A 
ATOM     26  C   UNL     1       4.968   4.377  15.687  0.00  0.00    +0.000 A 
ATOM     27  C   UNL     1       4.389   3.949  16.889  0.00  0.00    +0.000 A 
ATOM     28 CL   UNL     1       2.776   3.333  16.814  0.00  0.00    +0.000 Cl
ENDBRANCH  21  22
ENDBRANCH  19  21
ENDBRANCH   3  15
TORSDOF 4
ENDMDL
MODEL 8
REMARK VINA RESULT:      -8.2      1.761      2.978
REMARK  Name = 
REMARK  4 active torsions:
REMARK  status: ('A' for Active; 'I' for Inactive)
REMARK    1  A    between atoms: C_2  and  C_18
REMARK    2  A    between atoms: N_3  and  C_4
REMARK    3  A    between atoms: N_8  and  C_9
REMARK    4  A    between atoms: C_9  and  C_10
REMARK                            x       y       z     vdW  Elec       q    Type
REMARK                         _______ _______ _______ _____ _____    ______ ____
ROOT
ATOM      1  O   UNL     1       1.846  10.270  18.486  0.00  0.00    +0.000 OA
ATOM      2  C   UNL     1       0.915   9.966  19.223  0.00  0.00    +0.000 C 
ATOM      3  N   UNL     1       0.843   8.756  19.871  0.00  0.00    +0.000 N 
ATOM      4  H   UNL     1       0.162   8.667  20.623  0.00  0.00    +0.000 HD
ENDROOT
BRANCH   2   5
ATOM      5  C   UNL     1      -0.217  10.850  19.439  0.00  0.00    +0.000 A 
ATOM      6  C   UNL     1      -0.953  11.415  18.409  0.00  0.00    +0.000 A 
ATOM      7  O   UNL     1      -1.959  12.199  18.883  0.00  0.00    +0.000 OA
ATOM      8  C   UNL     1      -1.855  12.161  20.231  0.00  0.00    +0.000 A 
ATOM      9  C   UNL     1      -0.806  11.364  20.630  0.00  0.00    +0.000 A 
ATOM     10  C   UNL     1      -0.501  11.232  22.041  0.00  0.00    +0.000 C 
ATOM     11  O   UNL     1       0.299  10.399  22.459  0.00  0.00    +0.000 OA
ATOM     12  C   UNL     1      -1.196  12.238  22.958  0.00  0.00    +0.000 C 
ATOM     13  C   UNL     1      -2.657  12.469  22.532  0.00  0.00    +0.000 C 
ATOM     14  C   UNL     1      -2.786  12.946  21.072  0.00  0.00    +0.000 C 
ENDBRANCH   2   5
BRANCH   3  15
ATOM     15  C   UNL     1       1.956   7.826  19.878  0.00  0.00    +0.000 C 
ATOM     16  C   UNL     1       1.622   6.552  20.648  0.00  0.00    +0.000 C 
ATOM     17  C   UNL     1       2.537   5.532  20.032  0.00  0.00    +0.000 C 
ATOM     18  O   UNL     1       2.788   4.439  20.514  0.00  0.00    +0.000 OA
ATOM     19  N   UNL     1       2.944   6.003  18.796  0.00  0.00    +0.000 N 
ATOM     20  C   UNL     1       2.378   7.301  18.501  0.00  0.00    +0.000 C 
BRANCH  19  21
ATOM     21  C   UNL     1       3.528   5.161  17.761  0.00  0.00    +0.000 C 
BRANCH  21  22
ATOM     22  C   UNL     1       5.039   5.140  17.839  0.00  0.00    +0.000 A 
ATOM     23  C   UNL     1       5.657   5.576  19.029  0.00  0.00    +0.000 A 
ATOM     24  C   UNL     1       7.039   5.499  19.200  0.00  0.00    +0.000 A 
ATOM     25  C   UNL     1       7.837   5.003  18.176  0.00  0.00    +0.000 A 
ATOM     26  C   UNL     1       7.251   4.607  16.975  0.00  0.00    +0.000 A 
ATOM     27  C   UNL     1       5.862   4.676  16.804  0.00  0.00    +0.000 A 
ATOM     28 CL   UNL     1       5.228   4.167  15.279  0.00  0.00    +0.000 Cl
ENDBRANCH  21  22
ENDBRANCH  19  21
ENDBRANCH   3  15
TORSDOF 4
ENDMDL
MODEL 9
REMARK VINA RESULT:      -8.2      1.855      3.055
REMARK  Name = 
REMARK  4 active torsions:
REMARK  status: ('A' for Active; 'I' for Inactive)
REMARK    1  A    between atoms: C_2  and  C_18
REMARK    2  A    between atoms: N_3  and  C_4
REMARK    3  A    between atoms: N_8  and  C_9
REMARK    4  A    between atoms: C_9  and  C_10
REMARK                            x       y       z     vdW  Elec       q    Type
REMARK                         _______ _______ _______ _____ _____    ______ ____
ROOT
ATOM      1  O   UNL     1       1.725   8.920  21.673  0.00  0.00    +0.000 OA
ATOM      2  C   UNL     1       1.191   8.995  20.572  0.00  0.00    +0.000 C 
ATOM      3  N   UNL     1       1.544   8.186  19.518  0.00  0.00    +0.000 N 
ATOM      4  H   UNL     1       0.916   8.160  18.716  0.00  0.00    +0.000 HD
ENDROOT
BRANCH   2   5
ATOM      5  C   UNL     1       0.165   9.979  20.277  0.00  0.00    +0.000 A 
ATOM      6  C   UNL     1      -0.232  10.308  18.990  0.00  0.00    +0.000 A 
ATOM      7  O   UNL     1      -1.210  11.254  18.993  0.00  0.00    +0.000 OA
ATOM      8  C   UNL     1      -1.427  11.558  20.292  0.00  0.00    +0.000 A 
ATOM      9  C   UNL     1      -0.612  10.822  21.123  0.00  0.00    +0.000 A 
ATOM     10  C   UNL     1      -0.662  11.040  22.555  0.00  0.00    +0.000 C 
ATOM     11  O   UNL     1      -0.097  10.291  23.347  0.00  0.00    +0.000 OA
ATOM     12  C   UNL     1      -1.414  12.293  23.001  0.00  0.00    +0.000 C 
ATOM     13  C   UNL     1      -2.693  12.505  22.172  0.00  0.00    +0.000 C 
ATOM     14  C   UNL     1      -2.417  12.596  20.658  0.00  0.00    +0.000 C 
ENDBRANCH   2   5
BRANCH   3  15
ATOM     15  C   UNL     1       2.443   7.060  19.686  0.00  0.00    +0.000 C 
ATOM     16  C   UNL     1       1.814   5.957  20.531  0.00  0.00    +0.000 C 
ATOM     17  C   UNL     1       2.537   4.722  20.074  0.00  0.00    +0.000 C 
ATOM     18  O   UNL     1       2.533   3.653  20.662  0.00  0.00    +0.000 OA
ATOM     19  N   UNL     1       3.103   4.984  18.838  0.00  0.00    +0.000 N 
ATOM     20  C   UNL     1       2.829   6.332  18.394  0.00  0.00    +0.000 C 
BRANCH  19  21
ATOM     21  C   UNL     1       3.564   3.947  17.924  0.00  0.00    +0.000 C 
BRANCH  21  22
ATOM     22  C   UNL     1       4.804   4.374  17.170  0.00  0.00    +0.000 A 
ATOM     23  C   UNL     1       4.817   4.243  15.767  0.00  0.00    +0.000 A 
ATOM     24  C   UNL     1       5.891   4.700  15.004  0.00  0.00    +0.000 A 
ATOM     25  C   UNL     1       6.988   5.280  15.630  0.00  0.00    +0.000 A 
ATOM     26  C   UNL     1       7.016   5.381  17.020  0.00  0.00    +0.000 A 
ATOM     27  C   UNL     1       5.934   4.930  17.788  0.00  0.00    +0.000 A 
ATOM     28 CL   UNL     1       6.061   5.092  19.503  0.00  0.00    +0.000 Cl
ENDBRANCH  21  22
ENDBRANCH  19  21
ENDBRANCH   3  15
TORSDOF 4
ENDMDL
