MODEL 1
REMARK VINA RESULT:      -8.1      0.000      0.000
REMARK  Name = 
REMARK  5 active torsions:
REMARK  status: ('A' for Active; 'I' for Inactive)
REMARK    1  A    between atoms: C_2  and  C_3
REMARK    2  A    between atoms: C_7  and  C_8
REMARK    3  A    between atoms: C_8  and  N_9
REMARK    4  A    between atoms: N_9  and  S_10
REMARK    5  A    between atoms: S_10  and  C_13
REMARK                            x       y       z     vdW  Elec       q    Type
REMARK                         _______ _______ _______ _____ _____    ______ ____
ROOT
ATOM      1  C   UNL     1       1.329   9.247  19.763  0.00  0.00    +0.000 A 
ATOM      2  C   UNL     1       1.757   9.452  18.449  0.00  0.00    +0.000 A 
ATOM      3  C   UNL     1       2.249   8.401  17.685  0.00  0.00    +0.000 A 
ATOM      4  C   UNL     1       2.447   7.160  18.275  0.00  0.00    +0.000 A 
ATOM      5  C   UNL     1       2.176   6.961  19.639  0.00  0.00    +0.000 A 
ATOM      6  C   UNL     1       1.586   8.007  20.376  0.00  0.00    +0.000 A 
ENDROOT
BRANCH   1   8
ATOM      7  O   UNL     1       1.117  10.624  21.642  0.00  0.00    +0.000 OA
ATOM      8  C   UNL     1       0.689  10.365  20.520  0.00  0.00    +0.000 C 
ATOM      9  N   UNL     1      -0.363  11.066  19.927  0.00  0.00    +0.000 N 
ATOM     10  C   UNL     1      -0.971  12.208  20.596  0.00  0.00    +0.000 C 
ATOM     11  C   UNL     1      -2.400  12.240  20.073  0.00  0.00    +0.000 C 
ATOM     12  C   UNL     1      -2.268  11.708  18.657  0.00  0.00    +0.000 C 
ATOM     13  C   UNL     1      -1.158  10.675  18.765  0.00  0.00    +0.000 C 
ENDBRANCH   1   8
BRANCH   5  14
ATOM     14  C   UNL     1       2.612   5.661  20.277  0.00  0.00    +0.000 C 
BRANCH  14  15
ATOM     15  N   UNL     1       3.956   5.242  19.893  0.00  0.00    +0.000 NA
ATOM     16  H   UNL     1       4.687   5.327  20.599  0.00  0.00    +0.000 HD
BRANCH  15  17
ATOM     17  S   UNL     1       4.069   3.773  19.075  0.00  0.00    +0.000 S 
ATOM     18  O   UNL     1       4.819   2.885  19.935  0.00  0.00    +0.000 OA
ATOM     19  O   UNL     1       2.756   3.425  18.588  0.00  0.00    +0.000 OA
BRANCH  17  20
ATOM     20  C   UNL     1       5.106   4.170  17.691  0.00  0.00    +0.000 A 
ATOM     21  C   UNL     1       6.438   4.540  17.920  0.00  0.00    +0.000 A 
ATOM     22  C   UNL     1       7.266   4.825  16.833  0.00  0.00    +0.000 A 
ATOM     23  C   UNL     1       6.759   4.732  15.539  0.00  0.00    +0.000 A 
ATOM     24  F   UNL     1       7.558   5.004  14.499  0.00  0.00    +0.000 F 
ATOM     25  C   UNL     1       5.439   4.357  15.307  0.00  0.00    +0.000 A 
ATOM     26  C   UNL     1       4.604   4.069  16.388  0.00  0.00    +0.000 A 
ENDBRANCH  17  20
ENDBRANCH  15  17
ENDBRANCH  14  15
ENDBRANCH   5  14
TORSDOF 5
ENDMDL
MODEL 2
REMARK VINA RESULT:      -8.1      0.640      1.203
REMARK  Name = 
REMARK  5 active torsions:
REMARK  status: ('A' for Active; 'I' for Inactive)
REMARK    1  A    between atoms: C_2  and  C_3
REMARK    2  A    between atoms: C_7  and  C_8
REMARK    3  A    between atoms: C_8  and  N_9
REMARK    4  A    between atoms: N_9  and  S_10
REMARK    5  A    between atoms: S_10  and  C_13
REMARK                            x       y       z     vdW  Elec       q    Type
REMARK                         _______ _______ _______ _____ _____    ______ ____
ROOT
ATOM      1  C   UNL     1       1.405   9.263  19.117  0.00  0.00    +0.000 A 
ATOM      2  C   UNL     1       2.133   9.429  17.937  0.00  0.00    +0.000 A 
ATOM      3  C   UNL     1       2.832   8.370  17.373  0.00  0.00    +0.000 A 
ATOM      4  C   UNL     1       2.921   7.166  18.059  0.00  0.00    +0.000 A 
ATOM      5  C   UNL     1       2.332   7.015  19.326  0.00  0.00    +0.000 A 
ATOM      6  C   UNL     1       1.545   8.065  19.840  0.00  0.00    +0.000 A 
ENDROOT
BRANCH   1   8
ATOM      7  O   UNL     1       0.872  10.892  20.709  0.00  0.00    +0.000 OA
ATOM      8  C   UNL     1       0.562  10.383  19.634  0.00  0.00    +0.000 C 
ATOM      9  N   UNL     1      -0.539  10.803  18.883  0.00  0.00    +0.000 N 
ATOM     10  C   UNL     1      -1.347  11.936  19.311  0.00  0.00    +0.000 C 
ATOM     11  C   UNL     1      -2.728  11.659  18.733  0.00  0.00    +0.000 C 
ATOM     12  C   UNL     1      -2.427  10.919  17.442  0.00  0.00    +0.000 C 
ATOM     13  C   UNL     1      -1.189  10.102  17.778  0.00  0.00    +0.000 C 
ENDBRANCH   1   8
BRANCH   5  14
ATOM     14  C   UNL     1       2.643   5.766  20.120  0.00  0.00    +0.000 C 
BRANCH  14  15
ATOM     15  N   UNL     1       3.985   5.242  19.887  0.00  0.00    +0.000 NA
ATOM     16  H   UNL     1       4.632   5.259  20.675  0.00  0.00    +0.000 HD
BRANCH  15  17
ATOM     17  S   UNL     1       4.075   3.779  19.056  0.00  0.00    +0.000 S 
ATOM     18  O   UNL     1       4.795   2.867  19.915  0.00  0.00    +0.000 OA
ATOM     19  O   UNL     1       2.760   3.465  18.551  0.00  0.00    +0.000 OA
BRANCH  17  20
ATOM     20  C   UNL     1       5.137   4.166  17.688  0.00  0.00    +0.000 A 
ATOM     21  C   UNL     1       4.655   4.007  16.382  0.00  0.00    +0.000 A 
ATOM     22  C   UNL     1       5.476   4.338  15.304  0.00  0.00    +0.000 A 
ATOM     23  C   UNL     1       6.758   4.829  15.540  0.00  0.00    +0.000 A 
ATOM     24  F   UNL     1       7.541   5.148  14.502  0.00  0.00    +0.000 F 
ATOM     25  C   UNL     1       7.237   4.997  16.835  0.00  0.00    +0.000 A 
ATOM     26  C   UNL     1       6.423   4.668  17.920  0.00  0.00    +0.000 A 
ENDBRANCH  17  20
ENDBRANCH  15  17
ENDBRANCH  14  15
ENDBRANCH   5  14
TORSDOF 5
ENDMDL
MODEL 3
REMARK VINA RESULT:      -8.1      3.864      8.405
REMARK  Name = 
REMARK  5 active torsions:
REMARK  status: ('A' for Active; 'I' for Inactive)
REMARK    1  A    between atoms: C_2  and  C_3
REMARK    2  A    between atoms: C_7  and  C_8
REMARK    3  A    between atoms: C_8  and  N_9
REMARK    4  A    between atoms: N_9  and  S_10
REMARK    5  A    between atoms: S_10  and  C_13
REMARK                            x       y       z     vdW  Elec       q    Type
REMARK                         _______ _______ _______ _____ _____    ______ ____
ROOT
ATOM      1  C   UNL     1       2.753   5.320  17.839  0.00  0.00    +0.000 A 
ATOM      2  C   UNL     1       3.964   5.183  17.158  0.00  0.00    +0.000 A 
ATOM      3  C   UNL     1       4.764   6.287  16.893  0.00  0.00    +0.000 A 
ATOM      4  C   UNL     1       4.295   7.559  17.188  0.00  0.00    +0.000 A 
ATOM      5  C   UNL     1       3.012   7.745  17.730  0.00  0.00    +0.000 A 
ATOM      6  C   UNL     1       2.252   6.611  18.083  0.00  0.00    +0.000 A 
ENDROOT
BRANCH   1   8
ATOM      7  O   UNL     1       1.242   3.596  17.373  0.00  0.00    +0.000 OA
ATOM      8  C   UNL     1       1.972   4.105  18.221  0.00  0.00    +0.000 C 
ATOM      9  N   UNL     1       2.100   3.598  19.516  0.00  0.00    +0.000 N 
ATOM     10  C   UNL     1       1.414   2.377  19.912  0.00  0.00    +0.000 C 
ATOM     11  C   UNL     1       1.198   2.529  21.411  0.00  0.00    +0.000 C 
ATOM     12  C   UNL     1       2.403   3.336  21.860  0.00  0.00    +0.000 C 
ATOM     13  C   UNL     1       2.670   4.264  20.685  0.00  0.00    +0.000 C 
ENDBRANCH   1   8
BRANCH   5  14
ATOM     14  C   UNL     1       2.468   9.153  17.828  0.00  0.00    +0.000 C 
BRANCH  14  15
ATOM     15  N   UNL     1       1.010   9.219  17.829  0.00  0.00    +0.000 NA
ATOM     16  H   UNL     1       0.507   8.333  17.798  0.00  0.00    +0.000 HD
BRANCH  15  17
ATOM     17  S   UNL     1       0.317  10.275  18.945  0.00  0.00    +0.000 S 
ATOM     18  O   UNL     1       0.180   9.532  20.177  0.00  0.00    +0.000 OA
ATOM     19  O   UNL     1       1.037  11.525  18.890  0.00  0.00    +0.000 OA
BRANCH  17  20
ATOM     20  C   UNL     1      -1.314  10.524  18.292  0.00  0.00    +0.000 A 
ATOM     21  C   UNL     1      -2.170  11.437  18.922  0.00  0.00    +0.000 A 
ATOM     22  C   UNL     1      -3.443  11.657  18.394  0.00  0.00    +0.000 A 
ATOM     23  C   UNL     1      -3.841  10.974  17.248  0.00  0.00    +0.000 A 
ATOM     24  F   UNL     1      -5.063  11.192  16.744  0.00  0.00    +0.000 F 
ATOM     25  C   UNL     1      -2.991  10.074  16.614  0.00  0.00    +0.000 A 
ATOM     26  C   UNL     1      -1.716   9.846  17.134  0.00  0.00    +0.000 A 
ENDBRANCH  17  20
ENDBRANCH  15  17
ENDBRANCH  14  15
ENDBRANCH   5  14
TORSDOF 5
ENDMDL
MODEL 4
REMARK VINA RESULT:      -8.1      3.375      8.309
REMARK  Name = 
REMARK  5 active torsions:
REMARK  status: ('A' for Active; 'I' for Inactive)
REMARK    1  A    between atoms: C_2  and  C_3
REMARK    2  A    between atoms: C_7  and  C_8
REMARK    3  A    between atoms: C_8  and  N_9
REMARK    4  A    between atoms: N_9  and  S_10
REMARK    5  A    between atoms: S_10  and  C_13
REMARK                            x       y       z     vdW  Elec       q    Type
REMARK                         _______ _______ _______ _____ _____    ______ ____
ROOT
ATOM      1  C   UNL     1       4.237   4.944  19.509  0.00  0.00    +0.000 A 
ATOM      2  C   UNL     1       3.697   3.787  20.075  0.00  0.00    +0.000 A 
ATOM      3  C   UNL     1       2.365   3.737  20.467  0.00  0.00    +0.000 A 
ATOM      4  C   UNL     1       1.595   4.891  20.423  0.00  0.00    +0.000 A 
ATOM      5  C   UNL     1       2.152   6.112  20.007  0.00  0.00    +0.000 A 
ATOM      6  C   UNL     1       3.475   6.126  19.520  0.00  0.00    +0.000 A 
ENDROOT
BRANCH   1   8
ATOM      7  O   UNL     1       6.544   5.246  19.747  0.00  0.00    +0.000 OA
ATOM      8  C   UNL     1       5.635   4.932  18.983  0.00  0.00    +0.000 C 
ATOM      9  N   UNL     1       5.852   4.568  17.651  0.00  0.00    +0.000 N 
ATOM     10  C   UNL     1       7.202   4.473  17.114  0.00  0.00    +0.000 C 
ATOM     11  C   UNL     1       7.041   4.764  15.628  0.00  0.00    +0.000 C 
ATOM     12  C   UNL     1       5.664   4.211  15.308  0.00  0.00    +0.000 C 
ATOM     13  C   UNL     1       4.868   4.480  16.575  0.00  0.00    +0.000 C 
ENDBRANCH   1   8
BRANCH   5  14
ATOM     14  C   UNL     1       1.336   7.372  20.184  0.00  0.00    +0.000 C 
BRANCH  14  15
ATOM     15  N   UNL     1       1.678   8.128  21.385  0.00  0.00    +0.000 NA
ATOM     16  H   UNL     1       2.566   8.628  21.380  0.00  0.00    +0.000 HD
BRANCH  15  17
ATOM     17  S   UNL     1       0.448   9.077  22.039  0.00  0.00    +0.000 S 
ATOM     18  O   UNL     1      -0.745   8.261  22.028  0.00  0.00    +0.000 OA
ATOM     19  O   UNL     1       0.941   9.682  23.253  0.00  0.00    +0.000 OA
BRANCH  17  20
ATOM     20  C   UNL     1       0.234  10.343  20.814  0.00  0.00    +0.000 A 
ATOM     21  C   UNL     1       1.032  11.493  20.873  0.00  0.00    +0.000 A 
ATOM     22  C   UNL     1       0.887  12.478  19.895  0.00  0.00    +0.000 A 
ATOM     23  C   UNL     1      -0.042  12.301  18.872  0.00  0.00    +0.000 A 
ATOM     24  F   UNL     1      -0.174  13.248  17.934  0.00  0.00    +0.000 F 
ATOM     25  C   UNL     1      -0.830  11.157  18.805  0.00  0.00    +0.000 A 
ATOM     26  C   UNL     1      -0.692  10.166  19.779  0.00  0.00    +0.000 A 
ENDBRANCH  17  20
ENDBRANCH  15  17
ENDBRANCH  14  15
ENDBRANCH   5  14
TORSDOF 5
ENDMDL
MODEL 5
REMARK VINA RESULT:      -8.0      3.388      8.291
REMARK  Name = 
REMARK  5 active torsions:
REMARK  status: ('A' for Active; 'I' for Inactive)
REMARK    1  A    between atoms: C_2  and  C_3
REMARK    2  A    between atoms: C_7  and  C_8
REMARK    3  A    between atoms: C_8  and  N_9
REMARK    4  A    between atoms: N_9  and  S_10
REMARK    5  A    between atoms: S_10  and  C_13
REMARK                            x       y       z     vdW  Elec       q    Type
REMARK                         _______ _______ _______ _____ _____    ______ ____
ROOT
ATOM      1  C   UNL     1       4.045   4.569  19.372  0.00  0.00    +0.000 A 
ATOM      2  C   UNL     1       3.506   3.281  19.408  0.00  0.00    +0.000 A 
ATOM      3  C   UNL     1       2.169   3.075  19.725  0.00  0.00    +0.000 A 
ATOM      4  C   UNL     1       1.391   4.146  20.143  0.00  0.00    +0.000 A 
ATOM      5  C   UNL     1       1.945   5.431  20.270  0.00  0.00    +0.000 A 
ATOM      6  C   UNL     1       3.274   5.643  19.852  0.00  0.00    +0.000 A 
ENDROOT
BRANCH   1   8
ATOM      7  O   UNL     1       6.271   5.198  19.718  0.00  0.00    +0.000 OA
ATOM      8  C   UNL     1       5.450   4.774  18.908  0.00  0.00    +0.000 C 
ATOM      9  N   UNL     1       5.773   4.481  17.581  0.00  0.00    +0.000 N 
ATOM     10  C   UNL     1       7.143   4.597  17.102  0.00  0.00    +0.000 C 
ATOM     11  C   UNL     1       7.003   4.899  15.616  0.00  0.00    +0.000 C 
ATOM     12  C   UNL     1       5.736   4.160  15.225  0.00  0.00    +0.000 C 
ATOM     13  C   UNL     1       4.857   4.277  16.461  0.00  0.00    +0.000 C 
ENDBRANCH   1   8
BRANCH   5  14
ATOM     14  C   UNL     1       1.118   6.509  20.933  0.00  0.00    +0.000 C 
BRANCH  14  15
ATOM     15  N   UNL     1       1.721   7.836  20.863  0.00  0.00    +0.000 NA
ATOM     16  H   UNL     1       1.972   8.183  19.938  0.00  0.00    +0.000 HD
BRANCH  15  17
ATOM     17  S   UNL     1       0.976   9.038  21.781  0.00  0.00    +0.000 S 
ATOM     18  O   UNL     1      -0.274   8.480  22.243  0.00  0.00    +0.000 OA
ATOM     19  O   UNL     1       1.952   9.574  22.699  0.00  0.00    +0.000 OA
BRANCH  17  20
ATOM     20  C   UNL     1       0.588  10.276  20.570  0.00  0.00    +0.000 A 
ATOM     21  C   UNL     1      -0.275   9.953  19.515  0.00  0.00    +0.000 A 
ATOM     22  C   UNL     1      -0.606  10.932  18.577  0.00  0.00    +0.000 A 
ATOM     23  C   UNL     1      -0.080  12.215  18.707  0.00  0.00    +0.000 A 
ATOM     24  F   UNL     1      -0.403  13.152  17.806  0.00  0.00    +0.000 F 
ATOM     25  C   UNL     1       0.770  12.542  19.758  0.00  0.00    +0.000 A 
ATOM     26  C   UNL     1       1.107  11.570  20.701  0.00  0.00    +0.000 A 
ENDBRANCH  17  20
ENDBRANCH  15  17
ENDBRANCH  14  15
ENDBRANCH   5  14
TORSDOF 5
ENDMDL
MODEL 6
REMARK VINA RESULT:      -8.0      3.809      8.431
REMARK  Name = 
REMARK  5 active torsions:
REMARK  status: ('A' for Active; 'I' for Inactive)
REMARK    1  A    between atoms: C_2  and  C_3
REMARK    2  A    between atoms: C_7  and  C_8
REMARK    3  A    between atoms: C_8  and  N_9
REMARK    4  A    between atoms: N_9  and  S_10
REMARK    5  A    between atoms: S_10  and  C_13
REMARK                            x       y       z     vdW  Elec       q    Type
REMARK                         _______ _______ _______ _____ _____    ______ ____
ROOT
ATOM      1  C   UNL     1       2.768   5.421  17.869  0.00  0.00    +0.000 A 
ATOM      2  C   UNL     1       4.010   5.371  17.232  0.00  0.00    +0.000 A 
ATOM      3  C   UNL     1       4.745   6.528  17.009  0.00  0.00    +0.000 A 
ATOM      4  C   UNL     1       4.182   7.764  17.297  0.00  0.00    +0.000 A 
ATOM      5  C   UNL     1       2.870   7.859  17.791  0.00  0.00    +0.000 A 
ATOM      6  C   UNL     1       2.174   6.674  18.105  0.00  0.00    +0.000 A 
ENDROOT
BRANCH   1   8
ATOM      7  O   UNL     1       1.418   3.590  17.322  0.00  0.00    +0.000 OA
ATOM      8  C   UNL     1       2.056   4.153  18.210  0.00  0.00    +0.000 C 
ATOM      9  N   UNL     1       2.140   3.659  19.514  0.00  0.00    +0.000 N 
ATOM     10  C   UNL     1       1.522   2.392  19.875  0.00  0.00    +0.000 C 
ATOM     11  C   UNL     1       1.203   2.531  21.357  0.00  0.00    +0.000 C 
ATOM     12  C   UNL     1       2.317   3.424  21.874  0.00  0.00    +0.000 C 
ATOM     13  C   UNL     1       2.588   4.367  20.711  0.00  0.00    +0.000 C 
ENDBRANCH   1   8
BRANCH   5  14
ATOM     14  C   UNL     1       2.232   9.226  17.882  0.00  0.00    +0.000 C 
BRANCH  14  15
ATOM     15  N   UNL     1       1.119   9.292  18.824  0.00  0.00    +0.000 NA
ATOM     16  H   UNL     1       1.173   8.692  19.647  0.00  0.00    +0.000 HD
BRANCH  15  17
ATOM     17  S   UNL     1       0.586  10.838  19.233  0.00  0.00    +0.000 S 
ATOM     18  O   UNL     1       0.482  10.865  20.674  0.00  0.00    +0.000 OA
ATOM     19  O   UNL     1       1.388  11.798  18.513  0.00  0.00    +0.000 OA
BRANCH  17  20
ATOM     20  C   UNL     1      -1.065  10.870  18.583  0.00  0.00    +0.000 A 
ATOM     21  C   UNL     1      -1.410   9.989  17.550  0.00  0.00    +0.000 A 
ATOM     22  C   UNL     1      -2.715   9.990  17.056  0.00  0.00    +0.000 A 
ATOM     23  C   UNL     1      -3.657  10.860  17.601  0.00  0.00    +0.000 A 
ATOM     24  F   UNL     1      -4.909  10.855  17.125  0.00  0.00    +0.000 F 
ATOM     25  C   UNL     1      -3.321  11.730  18.633  0.00  0.00    +0.000 A 
ATOM     26  C   UNL     1      -2.018  11.736  19.133  0.00  0.00    +0.000 A 
ENDBRANCH  17  20
ENDBRANCH  15  17
ENDBRANCH  14  15
ENDBRANCH   5  14
TORSDOF 5
ENDMDL
MODEL 7
REMARK VINA RESULT:      -7.9      3.738      8.001
REMARK  Name = 
REMARK  5 active torsions:
REMARK  status: ('A' for Active; 'I' for Inactive)
REMARK    1  A    between atoms: C_2  and  C_3
REMARK    2  A    between atoms: C_7  and  C_8
REMARK    3  A    between atoms: C_8  and  N_9
REMARK    4  A    between atoms: N_9  and  S_10
REMARK    5  A    between atoms: S_10  and  C_13
REMARK                            x       y       z     vdW  Elec       q    Type
REMARK                         _______ _______ _______ _____ _____    ______ ____
ROOT
ATOM      1  C   UNL     1       3.274   4.777  17.642  0.00  0.00    +0.000 A 
ATOM      2  C   UNL     1       4.409   4.667  16.835  0.00  0.00    +0.000 A 
ATOM      3  C   UNL     1       5.148   5.789  16.485  0.00  0.00    +0.000 A 
ATOM      4  C   UNL     1       4.680   7.051  16.825  0.00  0.00    +0.000 A 
ATOM      5  C   UNL     1       3.458   7.207  17.500  0.00  0.00    +0.000 A 
ATOM      6  C   UNL     1       2.769   6.056  17.935  0.00  0.00    +0.000 A 
ENDROOT
BRANCH   1   8
ATOM      7  O   UNL     1       2.123   2.777  17.257  0.00  0.00    +0.000 OA
ATOM      8  C   UNL     1       2.570   3.544  18.107  0.00  0.00    +0.000 C 
ATOM      9  N   UNL     1       2.445   3.313  19.479  0.00  0.00    +0.000 N 
ATOM     10  C   UNL     1       1.830   2.092  19.979  0.00  0.00    +0.000 C 
ATOM     11  C   UNL     1       1.250   2.483  21.331  0.00  0.00    +0.000 C 
ATOM     12  C   UNL     1       2.215   3.542  21.835  0.00  0.00    +0.000 C 
ATOM     13  C   UNL     1       2.643   4.267  20.568  0.00  0.00    +0.000 C 
ENDBRANCH   1   8
BRANCH   5  14
ATOM     14  C   UNL     1       2.892   8.601  17.653  0.00  0.00    +0.000 C 
BRANCH  14  15
ATOM     15  N   UNL     1       1.455   8.625  17.907  0.00  0.00    +0.000 NA
ATOM     16  H   UNL     1       1.068   7.855  18.453  0.00  0.00    +0.000 HD
BRANCH  15  17
ATOM     17  S   UNL     1       0.815  10.104  18.402  0.00  0.00    +0.000 S 
ATOM     18  O   UNL     1       1.873  11.077  18.249  0.00  0.00    +0.000 OA
ATOM     19  O   UNL     1      -0.469  10.275  17.767  0.00  0.00    +0.000 OA
BRANCH  17  20
ATOM     20  C   UNL     1       0.566   9.863  20.143  0.00  0.00    +0.000 A 
ATOM     21  C   UNL     1       1.161   8.762  20.772  0.00  0.00    +0.000 A 
ATOM     22  C   UNL     1       0.992   8.585  22.146  0.00  0.00    +0.000 A 
ATOM     23  C   UNL     1       0.242   9.507  22.872  0.00  0.00    +0.000 A 
ATOM     24  F   UNL     1       0.085   9.334  24.191  0.00  0.00    +0.000 F 
ATOM     25  C   UNL     1      -0.342  10.607  22.252  0.00  0.00    +0.000 A 
ATOM     26  C   UNL     1      -0.179  10.792  20.879  0.00  0.00    +0.000 A 
ENDBRANCH  17  20
ENDBRANCH  15  17
ENDBRANCH  14  15
ENDBRANCH   5  14
TORSDOF 5
ENDMDL
MODEL 8
REMARK VINA RESULT:      -7.9      3.973      8.435
REMARK  Name = 
REMARK  5 active torsions:
REMARK  status: ('A' for Active; 'I' for Inactive)
REMARK    1  A    between atoms: C_2  and  C_3
REMARK    2  A    between atoms: C_7  and  C_8
REMARK    3  A    between atoms: C_8  and  N_9
REMARK    4  A    between atoms: N_9  and  S_10
REMARK    5  A    between atoms: S_10  and  C_13
REMARK                            x       y       z     vdW  Elec       q    Type
REMARK                         _______ _______ _______ _____ _____    ______ ____
ROOT
ATOM      1  C   UNL     1       2.838   6.619  19.141  0.00  0.00    +0.000 A 
ATOM      2  C   UNL     1       2.824   7.110  17.834  0.00  0.00    +0.000 A 
ATOM      3  C   UNL     1       2.363   8.390  17.556  0.00  0.00    +0.000 A 
ATOM      4  C   UNL     1       1.783   9.143  18.568  0.00  0.00    +0.000 A 
ATOM      5  C   UNL     1       1.636   8.617  19.862  0.00  0.00    +0.000 A 
ATOM      6  C   UNL     1       2.196   7.357  20.152  0.00  0.00    +0.000 A 
ENDROOT
BRANCH   1   8
ATOM      7  O   UNL     1       4.652   5.250  19.698  0.00  0.00    +0.000 OA
ATOM      8  C   UNL     1       3.453   5.288  19.429  0.00  0.00    +0.000 C 
ATOM      9  N   UNL     1       2.649   4.147  19.381  0.00  0.00    +0.000 N 
ATOM     10  C   UNL     1       3.187   2.838  19.723  0.00  0.00    +0.000 C 
ATOM     11  C   UNL     1       2.342   1.857  18.922  0.00  0.00    +0.000 C 
ATOM     12  C   UNL     1       0.983   2.531  18.861  0.00  0.00    +0.000 C 
ATOM     13  C   UNL     1       1.321   4.012  18.786  0.00  0.00    +0.000 C 
ENDBRANCH   1   8
BRANCH   5  14
ATOM     14  C   UNL     1       0.807   9.389  20.863  0.00  0.00    +0.000 C 
BRANCH  14  15
ATOM     15  N   UNL     1      -0.565   9.631  20.425  0.00  0.00    +0.000 NA
ATOM     16  H   UNL     1      -1.309   9.212  20.981  0.00  0.00    +0.000 HD
BRANCH  15  17
ATOM     17  S   UNL     1      -0.939  11.221  20.007  0.00  0.00    +0.000 S 
ATOM     18  O   UNL     1      -1.782  11.732  21.064  0.00  0.00    +0.000 OA
ATOM     19  O   UNL     1       0.283  11.886  19.624  0.00  0.00    +0.000 OA
BRANCH  17  20
ATOM     20  C   UNL     1      -1.957  11.020  18.568  0.00  0.00    +0.000 A 
ATOM     21  C   UNL     1      -1.533  10.162  17.545  0.00  0.00    +0.000 A 
ATOM     22  C   UNL     1      -2.345   9.979  16.424  0.00  0.00    +0.000 A 
ATOM     23  C   UNL     1      -3.565  10.645  16.342  0.00  0.00    +0.000 A 
ATOM     24  F   UNL     1      -4.341  10.464  15.265  0.00  0.00    +0.000 F 
ATOM     25  C   UNL     1      -3.994  11.492  17.359  0.00  0.00    +0.000 A 
ATOM     26  C   UNL     1      -3.189  11.681  18.484  0.00  0.00    +0.000 A 
ENDBRANCH  17  20
ENDBRANCH  15  17
ENDBRANCH  14  15
ENDBRANCH   5  14
TORSDOF 5
ENDMDL
MODEL 9
REMARK VINA RESULT:      -7.8      1.488      1.616
REMARK  Name = 
REMARK  5 active torsions:
REMARK  status: ('A' for Active; 'I' for Inactive)
REMARK    1  A    between atoms: C_2  and  C_3
REMARK    2  A    between atoms: C_7  and  C_8
REMARK    3  A    between atoms: C_8  and  N_9
REMARK    4  A    between atoms: N_9  and  S_10
REMARK    5  A    between atoms: S_10  and  C_13
REMARK                            x       y       z     vdW  Elec       q    Type
REMARK                         _______ _______ _______ _____ _____    ______ ____
ROOT
ATOM      1  C   UNL     1       1.361   8.994  20.168  0.00  0.00    +0.000 A 
ATOM      2  C   UNL     1       1.516   9.418  18.846  0.00  0.00    +0.000 A 
ATOM      3  C   UNL     1       1.929   8.536  17.857  0.00  0.00    +0.000 A 
ATOM      4  C   UNL     1       2.324   7.251  18.206  0.00  0.00    +0.000 A 
ATOM      5  C   UNL     1       2.331   6.842  19.550  0.00  0.00    +0.000 A 
ATOM      6  C   UNL     1       1.817   7.715  20.530  0.00  0.00    +0.000 A 
ENDROOT
BRANCH   1   8
ATOM      7  O   UNL     1       1.196   9.834  22.345  0.00  0.00    +0.000 OA
ATOM      8  C   UNL     1       0.797   9.930  21.187  0.00  0.00    +0.000 C 
ATOM      9  N   UNL     1      -0.157  10.869  20.788  0.00  0.00    +0.000 N 
ATOM     10  C   UNL     1      -0.683  11.847  21.729  0.00  0.00    +0.000 C 
ATOM     11  C   UNL     1      -2.078  12.166  21.209  0.00  0.00    +0.000 C 
ATOM     12  C   UNL     1      -1.934  12.020  19.704  0.00  0.00    +0.000 C 
ATOM     13  C   UNL     1      -0.932  10.887  19.549  0.00  0.00    +0.000 C 
ENDBRANCH   1   8
BRANCH   5  14
ATOM     14  C   UNL     1       2.973   5.517  19.895  0.00  0.00    +0.000 C 
BRANCH  14  15
ATOM     15  N   UNL     1       2.951   4.553  18.800  0.00  0.00    +0.000 NA
ATOM     16  H   UNL     1       2.504   4.847  17.932  0.00  0.00    +0.000 HD
BRANCH  15  17
ATOM     17  S   UNL     1       4.400   3.746  18.494  0.00  0.00    +0.000 S 
ATOM     18  O   UNL     1       4.811   3.159  19.749  0.00  0.00    +0.000 OA
ATOM     19  O   UNL     1       4.229   2.947  17.304  0.00  0.00    +0.000 OA
BRANCH  17  20
ATOM     20  C   UNL     1       5.523   5.073  18.138  0.00  0.00    +0.000 A 
ATOM     21  C   UNL     1       6.669   5.229  18.927  0.00  0.00    +0.000 A 
ATOM     22  C   UNL     1       7.570   6.253  18.632  0.00  0.00    +0.000 A 
ATOM     23  C   UNL     1       7.320   7.100  17.554  0.00  0.00    +0.000 A 
ATOM     24  F   UNL     1       8.189   8.079  17.273  0.00  0.00    +0.000 F 
ATOM     25  C   UNL     1       6.188   6.943  16.762  0.00  0.00    +0.000 A 
ATOM     26  C   UNL     1       5.281   5.921  17.050  0.00  0.00    +0.000 A 
ENDBRANCH  17  20
ENDBRANCH  15  17
ENDBRANCH  14  15
ENDBRANCH   5  14
TORSDOF 5
ENDMDL
