MODEL 1
REMARK VINA RESULT:      -8.5      0.000      0.000
REMARK  Name = 
REMARK  5 active torsions:
REMARK  status: ('A' for Active; 'I' for Inactive)
REMARK    1  A    between atoms: C_2  and  C_17
REMARK    2  A    between atoms: C_6  and  C_7
REMARK    3  A    between atoms: N_21  and  C_22
REMARK    4  A    between atoms: C_22  and  C_23
REMARK    5  A    between atoms: C_23  and  C_24
REMARK                            x       y       z     vdW  Elec       q    Type
REMARK                         _______ _______ _______ _____ _____    ______ ____
ROOT
ATOM      1  O   UNL     1       1.594   5.836  20.165  0.00  0.00    +0.000 OA
ATOM      2  C   UNL     1       2.403   5.954  19.243  0.00  0.00    +0.000 C 
ATOM      3  N   UNL     1       2.680   7.111  18.551  0.00  0.00    +0.000 N 
ATOM      4  C   UNL     1       2.035   8.285  18.824  0.00  0.00    +0.000 A 
ATOM      5  N   UNL     1       1.271   8.585  19.838  0.00  0.00    +0.000 NA
ATOM      6  C   UNL     1       0.777   9.874  19.697  0.00  0.00    +0.000 A 
ATOM      7  C   UNL     1       1.209  10.526  18.557  0.00  0.00    +0.000 A 
ATOM      8  S   UNL     1       2.269   9.507  17.661  0.00  0.00    +0.000 S 
ATOM      9  H   UNL     1       3.282   7.113  17.740  0.00  0.00    +0.000 HD
ENDROOT
BRANCH   6  10
ATOM     10  C   UNL     1      -0.058  10.446  20.752  0.00  0.00    +0.000 A 
ATOM     11  C   UNL     1      -1.029  11.387  20.352  0.00  0.00    +0.000 A 
ATOM     12  C   UNL     1      -1.877  11.997  21.282  0.00  0.00    +0.000 A 
ATOM     13  C   UNL     1      -1.765  11.672  22.627  0.00  0.00    +0.000 A 
ATOM     14 CL   UNL     1      -2.803  12.419  23.777  0.00  0.00    +0.000 Cl
ATOM     15  C   UNL     1      -0.807  10.756  23.050  0.00  0.00    +0.000 A 
ATOM     16  C   UNL     1       0.051  10.150  22.122  0.00  0.00    +0.000 A 
ATOM     17 CL   UNL     1       1.254   9.093  22.780  0.00  0.00    +0.000 Cl
ENDBRANCH   6  10
BRANCH   2  18
ATOM     18  C   UNL     1       3.192   4.728  18.801  0.00  0.00    +0.000 C 
ATOM     19  C   UNL     1       4.330   4.409  19.762  0.00  0.00    +0.000 C 
ATOM     20  C   UNL     1       5.505   5.115  19.137  0.00  0.00    +0.000 C 
ATOM     21  O   UNL     1       6.533   5.406  19.721  0.00  0.00    +0.000 OA
ATOM     22  N   UNL     1       5.196   5.369  17.807  0.00  0.00    +0.000 N 
ATOM     23  C   UNL     1       3.867   4.917  17.456  0.00  0.00    +0.000 C 
BRANCH  22  24
ATOM     24  C   UNL     1       6.080   5.992  16.825  0.00  0.00    +0.000 C 
BRANCH  24  25
ATOM     25  C   UNL     1       7.173   5.062  16.291  0.00  0.00    +0.000 C 
BRANCH  25  26
ATOM     26  C   UNL     1       6.970   4.709  14.839  0.00  0.00    +0.000 A 
ATOM     27  C   UNL     1       5.961   3.815  14.459  0.00  0.00    +0.000 A 
ATOM     28  C   UNL     1       5.764   3.504  13.114  0.00  0.00    +0.000 A 
ATOM     29  C   UNL     1       6.577   4.079  12.138  0.00  0.00    +0.000 A 
ATOM     30  C   UNL     1       7.589   4.963  12.508  0.00  0.00    +0.000 A 
ATOM     31  C   UNL     1       7.786   5.277  13.854  0.00  0.00    +0.000 A 
ENDBRANCH  25  26
ENDBRANCH  24  25
ENDBRANCH  22  24
ENDBRANCH   2  18
TORSDOF 5
ENDMDL
MODEL 2
REMARK VINA RESULT:      -8.4      2.441      2.818
REMARK  Name = 
REMARK  5 active torsions:
REMARK  status: ('A' for Active; 'I' for Inactive)
REMARK    1  A    between atoms: C_2  and  C_17
REMARK    2  A    between atoms: C_6  and  C_7
REMARK    3  A    between atoms: N_21  and  C_22
REMARK    4  A    between atoms: C_22  and  C_23
REMARK    5  A    between atoms: C_23  and  C_24
REMARK                            x       y       z     vdW  Elec       q    Type
REMARK                         _______ _______ _______ _____ _____    ______ ____
ROOT
ATOM      1  O   UNL     1       2.860   7.926  18.022  0.00  0.00    +0.000 OA
ATOM      2  C   UNL     1       2.575   7.043  18.833  0.00  0.00    +0.000 C 
ATOM      3  N   UNL     1       1.848   7.209  19.989  0.00  0.00    +0.000 N 
ATOM      4  C   UNL     1       1.371   8.432  20.370  0.00  0.00    +0.000 A 
ATOM      5  N   UNL     1       1.310   9.539  19.684  0.00  0.00    +0.000 NA
ATOM      6  C   UNL     1       0.801  10.561  20.472  0.00  0.00    +0.000 A 
ATOM      7  C   UNL     1       0.471  10.176  21.758  0.00  0.00    +0.000 A 
ATOM      8  S   UNL     1       0.789   8.497  21.970  0.00  0.00    +0.000 S 
ATOM      9  H   UNL     1       1.737   6.460  20.659  0.00  0.00    +0.000 HD
ENDROOT
BRANCH   6  10
ATOM     10  C   UNL     1       0.587  11.884  19.888  0.00  0.00    +0.000 A 
ATOM     11  C   UNL     1       1.343  12.946  20.428  0.00  0.00    +0.000 A 
ATOM     12  C   UNL     1       1.213  14.251  19.945  0.00  0.00    +0.000 A 
ATOM     13  C   UNL     1       0.322  14.513  18.912  0.00  0.00    +0.000 A 
ATOM     14 CL   UNL     1       0.154  16.116  18.312  0.00  0.00    +0.000 Cl
ATOM     15  C   UNL     1      -0.445  13.487  18.369  0.00  0.00    +0.000 A 
ATOM     16  C   UNL     1      -0.324  12.178  18.858  0.00  0.00    +0.000 A 
ATOM     17 CL   UNL     1      -1.391  11.007  18.162  0.00  0.00    +0.000 Cl
ENDBRANCH   6  10
BRANCH   2  18
ATOM     18  C   UNL     1       3.053   5.621  18.565  0.00  0.00    +0.000 C 
ATOM     19  C   UNL     1       4.031   5.142  19.629  0.00  0.00    +0.000 C 
ATOM     20  C   UNL     1       5.372   5.469  19.025  0.00  0.00    +0.000 C 
ATOM     21  O   UNL     1       6.413   5.563  19.650  0.00  0.00    +0.000 OA
ATOM     22  N   UNL     1       5.197   5.645  17.658  0.00  0.00    +0.000 N 
ATOM     23  C   UNL     1       3.814   5.493  17.259  0.00  0.00    +0.000 C 
BRANCH  22  24
ATOM     24  C   UNL     1       6.252   5.923  16.688  0.00  0.00    +0.000 C 
BRANCH  24  25
ATOM     25  C   UNL     1       6.997   4.678  16.201  0.00  0.00    +0.000 C 
BRANCH  25  26
ATOM     26  C   UNL     1       6.974   4.543  14.699  0.00  0.00    +0.000 A 
ATOM     27  C   UNL     1       6.132   3.609  14.082  0.00  0.00    +0.000 A 
ATOM     28  C   UNL     1       6.099   3.500  12.692  0.00  0.00    +0.000 A 
ATOM     29  C   UNL     1       6.913   4.317  11.908  0.00  0.00    +0.000 A 
ATOM     30  C   UNL     1       7.760   5.242  12.514  0.00  0.00    +0.000 A 
ATOM     31  C   UNL     1       7.793   5.355  13.905  0.00  0.00    +0.000 A 
ENDBRANCH  25  26
ENDBRANCH  24  25
ENDBRANCH  22  24
ENDBRANCH   2  18
TORSDOF 5
ENDMDL
MODEL 3
REMARK VINA RESULT:      -8.2      0.737      1.175
REMARK  Name = 
REMARK  5 active torsions:
REMARK  status: ('A' for Active; 'I' for Inactive)
REMARK    1  A    between atoms: C_2  and  C_17
REMARK    2  A    between atoms: C_6  and  C_7
REMARK    3  A    between atoms: N_21  and  C_22
REMARK    4  A    between atoms: C_22  and  C_23
REMARK    5  A    between atoms: C_23  and  C_24
REMARK                            x       y       z     vdW  Elec       q    Type
REMARK                         _______ _______ _______ _____ _____    ______ ____
ROOT
ATOM      1  O   UNL     1       1.355   5.433  20.445  0.00  0.00    +0.000 OA
ATOM      2  C   UNL     1       2.208   5.390  19.557  0.00  0.00    +0.000 C 
ATOM      3  N   UNL     1       2.629   6.450  18.785  0.00  0.00    +0.000 N 
ATOM      4  C   UNL     1       2.095   7.700  18.927  0.00  0.00    +0.000 A 
ATOM      5  N   UNL     1       1.326   8.162  19.873  0.00  0.00    +0.000 NA
ATOM      6  C   UNL     1       0.971   9.475  19.601  0.00  0.00    +0.000 A 
ATOM      7  C   UNL     1       1.513   9.979  18.434  0.00  0.00    +0.000 A 
ATOM      8  S   UNL     1       2.499   8.786  17.679  0.00  0.00    +0.000 S 
ATOM      9  H   UNL     1       3.260   6.321  18.007  0.00  0.00    +0.000 HD
ENDROOT
BRANCH   6  10
ATOM     10  C   UNL     1       0.156  10.216  20.563  0.00  0.00    +0.000 A 
ATOM     11  C   UNL     1      -0.751  11.157  20.033  0.00  0.00    +0.000 A 
ATOM     12  C   UNL     1      -1.575  11.921  20.865  0.00  0.00    +0.000 A 
ATOM     13  C   UNL     1      -1.502  11.754  22.241  0.00  0.00    +0.000 A 
ATOM     14 CL   UNL     1      -2.510  12.691  23.272  0.00  0.00    +0.000 Cl
ATOM     15  C   UNL     1      -0.607  10.842  22.791  0.00  0.00    +0.000 A 
ATOM     16  C   UNL     1       0.228  10.081  21.961  0.00  0.00    +0.000 A 
ATOM     17 CL   UNL     1       1.357   9.044  22.765  0.00  0.00    +0.000 Cl
ENDBRANCH   6  10
BRANCH   2  18
ATOM     18  C   UNL     1       2.886   4.059  19.258  0.00  0.00    +0.000 C 
ATOM     19  C   UNL     1       4.170   3.885  20.058  0.00  0.00    +0.000 C 
ATOM     20  C   UNL     1       5.227   4.383  19.108  0.00  0.00    +0.000 C 
ATOM     21  O   UNL     1       6.347   4.732  19.434  0.00  0.00    +0.000 OA
ATOM     22  N   UNL     1       4.693   4.374  17.826  0.00  0.00    +0.000 N 
ATOM     23  C   UNL     1       3.315   3.931  17.809  0.00  0.00    +0.000 C 
BRANCH  22  24
ATOM     24  C   UNL     1       5.400   4.733  16.599  0.00  0.00    +0.000 C 
BRANCH  24  25
ATOM     25  C   UNL     1       5.389   3.638  15.529  0.00  0.00    +0.000 C 
BRANCH  25  26
ATOM     26  C   UNL     1       6.146   4.039  14.288  0.00  0.00    +0.000 A 
ATOM     27  C   UNL     1       7.122   5.042  14.343  0.00  0.00    +0.000 A 
ATOM     28  C   UNL     1       7.833   5.398  13.197  0.00  0.00    +0.000 A 
ATOM     29  C   UNL     1       7.568   4.760  11.986  0.00  0.00    +0.000 A 
ATOM     30  C   UNL     1       6.592   3.768  11.920  0.00  0.00    +0.000 A 
ATOM     31  C   UNL     1       5.882   3.409  13.066  0.00  0.00    +0.000 A 
ENDBRANCH  25  26
ENDBRANCH  24  25
ENDBRANCH  22  24
ENDBRANCH   2  18
TORSDOF 5
ENDMDL
MODEL 4
REMARK VINA RESULT:      -8.2      2.259      3.180
REMARK  Name = 
REMARK  5 active torsions:
REMARK  status: ('A' for Active; 'I' for Inactive)
REMARK    1  A    between atoms: C_2  and  C_17
REMARK    2  A    between atoms: C_6  and  C_7
REMARK    3  A    between atoms: N_21  and  C_22
REMARK    4  A    between atoms: C_22  and  C_23
REMARK    5  A    between atoms: C_23  and  C_24
REMARK                            x       y       z     vdW  Elec       q    Type
REMARK                         _______ _______ _______ _____ _____    ______ ____
ROOT
ATOM      1  O   UNL     1       0.565   4.671  20.109  0.00  0.00    +0.000 OA
ATOM      2  C   UNL     1       1.524   4.481  19.360  0.00  0.00    +0.000 C 
ATOM      3  N   UNL     1       2.302   5.454  18.775  0.00  0.00    +0.000 N 
ATOM      4  C   UNL     1       2.053   6.785  18.966  0.00  0.00    +0.000 A 
ATOM      5  N   UNL     1       1.260   7.356  19.830  0.00  0.00    +0.000 NA
ATOM      6  C   UNL     1       1.267   8.731  19.647  0.00  0.00    +0.000 A 
ATOM      7  C   UNL     1       2.101   9.165  18.634  0.00  0.00    +0.000 A 
ATOM      8  S   UNL     1       2.902   7.821  17.914  0.00  0.00    +0.000 S 
ATOM      9  H   UNL     1       3.011   5.228  18.091  0.00  0.00    +0.000 HD
ENDROOT
BRANCH   6  10
ATOM     10  C   UNL     1       0.492   9.582  20.548  0.00  0.00    +0.000 A 
ATOM     11  C   UNL     1       0.526   9.250  21.919  0.00  0.00    +0.000 A 
ATOM     12  C   UNL     1      -0.182   9.997  22.866  0.00  0.00    +0.000 A 
ATOM     13  C   UNL     1      -0.934  11.089  22.453  0.00  0.00    +0.000 A 
ATOM     14 CL   UNL     1      -1.809  12.013  23.611  0.00  0.00    +0.000 Cl
ATOM     15  C   UNL     1      -0.994  11.431  21.106  0.00  0.00    +0.000 A 
ATOM     16  C   UNL     1      -0.294  10.679  20.153  0.00  0.00    +0.000 A 
ATOM     17 CL   UNL     1      -0.515  11.150  18.502  0.00  0.00    +0.000 Cl
ENDBRANCH   6  10
BRANCH   2  18
ATOM     18  C   UNL     1       1.919   3.047  19.027  0.00  0.00    +0.000 C 
ATOM     19  C   UNL     1       2.892   2.476  20.050  0.00  0.00    +0.000 C 
ATOM     20  C   UNL     1       4.236   2.755  19.428  0.00  0.00    +0.000 C 
ATOM     21  O   UNL     1       5.293   2.770  20.033  0.00  0.00    +0.000 OA
ATOM     22  N   UNL     1       4.042   2.993  18.074  0.00  0.00    +0.000 N 
ATOM     23  C   UNL     1       2.645   2.930  17.700  0.00  0.00    +0.000 C 
BRANCH  22  24
ATOM     24  C   UNL     1       5.090   3.253  17.090  0.00  0.00    +0.000 C 
BRANCH  24  25
ATOM     25  C   UNL     1       5.113   4.692  16.569  0.00  0.00    +0.000 C 
BRANCH  25  26
ATOM     26  C   UNL     1       6.168   5.532  17.245  0.00  0.00    +0.000 A 
ATOM     27  C   UNL     1       6.405   6.848  16.826  0.00  0.00    +0.000 A 
ATOM     28  C   UNL     1       7.368   7.628  17.465  0.00  0.00    +0.000 A 
ATOM     29  C   UNL     1       8.108   7.098  18.521  0.00  0.00    +0.000 A 
ATOM     30  C   UNL     1       7.885   5.787  18.938  0.00  0.00    +0.000 A 
ATOM     31  C   UNL     1       6.920   5.005  18.301  0.00  0.00    +0.000 A 
ENDBRANCH  25  26
ENDBRANCH  24  25
ENDBRANCH  22  24
ENDBRANCH   2  18
TORSDOF 5
ENDMDL
MODEL 5
REMARK VINA RESULT:      -8.1      0.967      1.366
REMARK  Name = 
REMARK  5 active torsions:
REMARK  status: ('A' for Active; 'I' for Inactive)
REMARK    1  A    between atoms: C_2  and  C_17
REMARK    2  A    between atoms: C_6  and  C_7
REMARK    3  A    between atoms: N_21  and  C_22
REMARK    4  A    between atoms: C_22  and  C_23
REMARK    5  A    between atoms: C_23  and  C_24
REMARK                            x       y       z     vdW  Elec       q    Type
REMARK                         _______ _______ _______ _____ _____    ______ ____
ROOT
ATOM      1  O   UNL     1       1.546   5.861  20.073  0.00  0.00    +0.000 OA
ATOM      2  C   UNL     1       2.403   5.964  19.195  0.00  0.00    +0.000 C 
ATOM      3  N   UNL     1       2.734   7.114  18.516  0.00  0.00    +0.000 N 
ATOM      4  C   UNL     1       2.094   8.299  18.752  0.00  0.00    +0.000 A 
ATOM      5  N   UNL     1       1.284   8.614  19.724  0.00  0.00    +0.000 NA
ATOM      6  C   UNL     1       0.818   9.909  19.555  0.00  0.00    +0.000 A 
ATOM      7  C   UNL     1       1.319  10.552  18.438  0.00  0.00    +0.000 A 
ATOM      8  S   UNL     1       2.408   9.514  17.601  0.00  0.00    +0.000 S 
ATOM      9  H   UNL     1       3.378   7.104  17.737  0.00  0.00    +0.000 HD
ENDROOT
BRANCH   6  10
ATOM     10  C   UNL     1      -0.062  10.497  20.564  0.00  0.00    +0.000 A 
ATOM     11  C   UNL     1       0.058   9.997  21.878  0.00  0.00    +0.000 A 
ATOM     12  C   UNL     1      -0.738  10.487  22.918  0.00  0.00    +0.000 A 
ATOM     13  C   UNL     1      -1.666  11.487  22.657  0.00  0.00    +0.000 A 
ATOM     14 CL   UNL     1      -2.649  12.095  23.930  0.00  0.00    +0.000 Cl
ATOM     15  C   UNL     1      -1.813  11.990  21.368  0.00  0.00    +0.000 A 
ATOM     16  C   UNL     1      -1.024  11.493  20.321  0.00  0.00    +0.000 A 
ATOM     17 CL   UNL     1      -1.358  12.136  18.749  0.00  0.00    +0.000 Cl
ENDBRANCH   6  10
BRANCH   2  18
ATOM     18  C   UNL     1       3.195   4.724  18.796  0.00  0.00    +0.000 C 
ATOM     19  C   UNL     1       4.312   4.423  19.787  0.00  0.00    +0.000 C 
ATOM     20  C   UNL     1       5.502   5.109  19.170  0.00  0.00    +0.000 C 
ATOM     21  O   UNL     1       6.520   5.408  19.768  0.00  0.00    +0.000 OA
ATOM     22  N   UNL     1       5.222   5.333  17.828  0.00  0.00    +0.000 N 
ATOM     23  C   UNL     1       3.898   4.879  17.461  0.00  0.00    +0.000 C 
BRANCH  22  24
ATOM     24  C   UNL     1       6.128   5.929  16.851  0.00  0.00    +0.000 C 
BRANCH  24  25
ATOM     25  C   UNL     1       7.180   4.961  16.303  0.00  0.00    +0.000 C 
BRANCH  25  26
ATOM     26  C   UNL     1       6.975   4.655  14.841  0.00  0.00    +0.000 A 
ATOM     27  C   UNL     1       5.962   3.777  14.433  0.00  0.00    +0.000 A 
ATOM     28  C   UNL     1       5.763   3.510  13.079  0.00  0.00    +0.000 A 
ATOM     29  C   UNL     1       6.580   4.112  12.122  0.00  0.00    +0.000 A 
ATOM     30  C   UNL     1       7.596   4.979  12.519  0.00  0.00    +0.000 A 
ATOM     31  C   UNL     1       7.794   5.249  13.874  0.00  0.00    +0.000 A 
ENDBRANCH  25  26
ENDBRANCH  24  25
ENDBRANCH  22  24
ENDBRANCH   2  18
TORSDOF 5
ENDMDL
MODEL 6
REMARK VINA RESULT:      -8.1      3.496     10.207
REMARK  Name = 
REMARK  5 active torsions:
REMARK  status: ('A' for Active; 'I' for Inactive)
REMARK    1  A    between atoms: C_2  and  C_17
REMARK    2  A    between atoms: C_6  and  C_7
REMARK    3  A    between atoms: N_21  and  C_22
REMARK    4  A    between atoms: C_22  and  C_23
REMARK    5  A    between atoms: C_23  and  C_24
REMARK                            x       y       z     vdW  Elec       q    Type
REMARK                         _______ _______ _______ _____ _____    ______ ____
ROOT
ATOM      1  O   UNL     1       2.173   8.135  19.440  0.00  0.00    +0.000 OA
ATOM      2  C   UNL     1       1.780   7.553  20.453  0.00  0.00    +0.000 C 
ATOM      3  N   UNL     1       2.069   6.254  20.805  0.00  0.00    +0.000 N 
ATOM      4  C   UNL     1       2.838   5.448  20.012  0.00  0.00    +0.000 A 
ATOM      5  N   UNL     1       3.572   5.768  18.983  0.00  0.00    +0.000 NA
ATOM      6  C   UNL     1       4.147   4.630  18.436  0.00  0.00    +0.000 A 
ATOM      7  C   UNL     1       3.832   3.459  19.100  0.00  0.00    +0.000 A 
ATOM      8  S   UNL     1       2.810   3.800  20.444  0.00  0.00    +0.000 S 
ATOM      9  H   UNL     1       1.631   5.810  21.600  0.00  0.00    +0.000 HD
ENDROOT
BRANCH   6  10
ATOM     10  C   UNL     1       5.064   4.758  17.305  0.00  0.00    +0.000 A 
ATOM     11  C   UNL     1       4.593   4.309  16.053  0.00  0.00    +0.000 A 
ATOM     12  C   UNL     1       5.390   4.383  14.907  0.00  0.00    +0.000 A 
ATOM     13  C   UNL     1       6.672   4.909  14.997  0.00  0.00    +0.000 A 
ATOM     14 CL   UNL     1       7.660   5.002  13.592  0.00  0.00    +0.000 Cl
ATOM     15  C   UNL     1       7.166   5.348  16.221  0.00  0.00    +0.000 A 
ATOM     16  C   UNL     1       6.373   5.266  17.375  0.00  0.00    +0.000 A 
ATOM     17 CL   UNL     1       7.128   5.764  18.850  0.00  0.00    +0.000 Cl
ENDBRANCH   6  10
BRANCH   2  18
ATOM     18  C   UNL     1       0.892   8.309  21.433  0.00  0.00    +0.000 C 
ATOM     19  C   UNL     1      -0.530   8.461  20.907  0.00  0.00    +0.000 C 
ATOM     20  C   UNL     1      -0.498   9.811  20.239  0.00  0.00    +0.000 C 
ATOM     21  O   UNL     1      -1.304  10.197  19.411  0.00  0.00    +0.000 OA
ATOM     22  N   UNL     1       0.598  10.508  20.729  0.00  0.00    +0.000 N 
ATOM     23  C   UNL     1       1.364   9.730  21.679  0.00  0.00    +0.000 C 
BRANCH  22  24
ATOM     24  C   UNL     1       0.968  11.878  20.383  0.00  0.00    +0.000 C 
BRANCH  24  25
ATOM     25  C   UNL     1       0.536  12.921  21.417  0.00  0.00    +0.000 C 
BRANCH  25  26
ATOM     26  C   UNL     1      -0.931  12.826  21.752  0.00  0.00    +0.000 A 
ATOM     27  C   UNL     1      -1.349  12.251  22.959  0.00  0.00    +0.000 A 
ATOM     28  C   UNL     1      -2.706  12.181  23.275  0.00  0.00    +0.000 A 
ATOM     29  C   UNL     1      -3.656  12.678  22.384  0.00  0.00    +0.000 A 
ATOM     30  C   UNL     1      -3.250  13.243  21.177  0.00  0.00    +0.000 A 
ATOM     31  C   UNL     1      -1.892  13.316  20.860  0.00  0.00    +0.000 A 
ENDBRANCH  25  26
ENDBRANCH  24  25
ENDBRANCH  22  24
ENDBRANCH   2  18
TORSDOF 5
ENDMDL
MODEL 7
REMARK VINA RESULT:      -8.1      0.993      1.137
REMARK  Name = 
REMARK  5 active torsions:
REMARK  status: ('A' for Active; 'I' for Inactive)
REMARK    1  A    between atoms: C_2  and  C_17
REMARK    2  A    between atoms: C_6  and  C_7
REMARK    3  A    between atoms: N_21  and  C_22
REMARK    4  A    between atoms: C_22  and  C_23
REMARK    5  A    between atoms: C_23  and  C_24
REMARK                            x       y       z     vdW  Elec       q    Type
REMARK                         _______ _______ _______ _____ _____    ______ ____
ROOT
ATOM      1  O   UNL     1       1.340   5.621  20.396  0.00  0.00    +0.000 OA
ATOM      2  C   UNL     1       2.097   5.533  19.428  0.00  0.00    +0.000 C 
ATOM      3  N   UNL     1       2.499   6.569  18.617  0.00  0.00    +0.000 N 
ATOM      4  C   UNL     1       2.057   7.848  18.810  0.00  0.00    +0.000 A 
ATOM      5  N   UNL     1       1.414   8.349  19.828  0.00  0.00    +0.000 NA
ATOM      6  C   UNL     1       1.110   9.682  19.592  0.00  0.00    +0.000 A 
ATOM      7  C   UNL     1       1.562  10.160  18.375  0.00  0.00    +0.000 A 
ATOM      8  S   UNL     1       2.397   8.915  17.527  0.00  0.00    +0.000 S 
ATOM      9  H   UNL     1       3.042   6.408  17.780  0.00  0.00    +0.000 HD
ENDROOT
BRANCH   6  10
ATOM     10  C   UNL     1       0.441  10.464  20.629  0.00  0.00    +0.000 A 
ATOM     11  C   UNL     1       0.582  11.866  20.556  0.00  0.00    +0.000 A 
ATOM     12  C   UNL     1      -0.015  12.707  21.500  0.00  0.00    +0.000 A 
ATOM     13  C   UNL     1      -0.763  12.157  22.532  0.00  0.00    +0.000 A 
ATOM     14 CL   UNL     1      -1.500  13.184  23.698  0.00  0.00    +0.000 Cl
ATOM     15  C   UNL     1      -0.909  10.777  22.634  0.00  0.00    +0.000 A 
ATOM     16  C   UNL     1      -0.304   9.929  21.695  0.00  0.00    +0.000 A 
ATOM     17 CL   UNL     1      -0.486   8.232  21.977  0.00  0.00    +0.000 Cl
ENDBRANCH   6  10
BRANCH   2  18
ATOM     18  C   UNL     1       2.662   4.166  19.064  0.00  0.00    +0.000 C 
ATOM     19  C   UNL     1       3.898   3.827  19.886  0.00  0.00    +0.000 C 
ATOM     20  C   UNL     1       5.027   4.283  18.999  0.00  0.00    +0.000 C 
ATOM     21  O   UNL     1       6.162   4.508  19.378  0.00  0.00    +0.000 OA
ATOM     22  N   UNL     1       4.537   4.400  17.705  0.00  0.00    +0.000 N 
ATOM     23  C   UNL     1       3.127   4.087  17.622  0.00  0.00    +0.000 C 
BRANCH  22  24
ATOM     24  C   UNL     1       5.314   4.767  16.524  0.00  0.00    +0.000 C 
BRANCH  24  25
ATOM     25  C   UNL     1       5.659   3.586  15.613  0.00  0.00    +0.000 C 
BRANCH  25  26
ATOM     26  C   UNL     1       6.337   4.022  14.338  0.00  0.00    +0.000 A 
ATOM     27  C   UNL     1       5.993   3.435  13.113  0.00  0.00    +0.000 A 
ATOM     28  C   UNL     1       6.608   3.853  11.933  0.00  0.00    +0.000 A 
ATOM     29  C   UNL     1       7.577   4.854  11.969  0.00  0.00    +0.000 A 
ATOM     30  C   UNL     1       7.932   5.437  13.184  0.00  0.00    +0.000 A 
ATOM     31  C   UNL     1       7.316   5.022  14.365  0.00  0.00    +0.000 A 
ENDBRANCH  25  26
ENDBRANCH  24  25
ENDBRANCH  22  24
ENDBRANCH   2  18
TORSDOF 5
ENDMDL
MODEL 8
REMARK VINA RESULT:      -8.1      3.893      9.413
REMARK  Name = 
REMARK  5 active torsions:
REMARK  status: ('A' for Active; 'I' for Inactive)
REMARK    1  A    between atoms: C_2  and  C_17
REMARK    2  A    between atoms: C_6  and  C_7
REMARK    3  A    between atoms: N_21  and  C_22
REMARK    4  A    between atoms: C_22  and  C_23
REMARK    5  A    between atoms: C_23  and  C_24
REMARK                            x       y       z     vdW  Elec       q    Type
REMARK                         _______ _______ _______ _____ _____    ______ ____
ROOT
ATOM      1  O   UNL     1       2.197   8.157  19.485  0.00  0.00    +0.000 OA
ATOM      2  C   UNL     1       1.795   7.576  20.494  0.00  0.00    +0.000 C 
ATOM      3  N   UNL     1       2.065   6.271  20.839  0.00  0.00    +0.000 N 
ATOM      4  C   UNL     1       2.823   5.458  20.043  0.00  0.00    +0.000 A 
ATOM      5  N   UNL     1       3.562   5.772  19.016  0.00  0.00    +0.000 NA
ATOM      6  C   UNL     1       4.122   4.629  18.464  0.00  0.00    +0.000 A 
ATOM      7  C   UNL     1       3.789   3.459  19.121  0.00  0.00    +0.000 A 
ATOM      8  S   UNL     1       2.771   3.808  20.466  0.00  0.00    +0.000 S 
ATOM      9  H   UNL     1       1.620   5.829  21.631  0.00  0.00    +0.000 HD
ENDROOT
BRANCH   6  10
ATOM     10  C   UNL     1       5.041   4.750  17.334  0.00  0.00    +0.000 A 
ATOM     11  C   UNL     1       4.559   4.329  16.077  0.00  0.00    +0.000 A 
ATOM     12  C   UNL     1       5.357   4.399  14.931  0.00  0.00    +0.000 A 
ATOM     13  C   UNL     1       6.652   4.892  15.027  0.00  0.00    +0.000 A 
ATOM     14 CL   UNL     1       7.641   4.980  13.623  0.00  0.00    +0.000 Cl
ATOM     15  C   UNL     1       7.157   5.302  16.257  0.00  0.00    +0.000 A 
ATOM     16  C   UNL     1       6.362   5.224  17.410  0.00  0.00    +0.000 A 
ATOM     17 CL   UNL     1       7.129   5.683  18.892  0.00  0.00    +0.000 Cl
ENDBRANCH   6  10
BRANCH   2  18
ATOM     18  C   UNL     1       0.917   8.340  21.477  0.00  0.00    +0.000 C 
ATOM     19  C   UNL     1      -0.495   8.536  20.941  0.00  0.00    +0.000 C 
ATOM     20  C   UNL     1      -0.422   9.894  20.293  0.00  0.00    +0.000 C 
ATOM     21  O   UNL     1      -1.210  10.313  19.464  0.00  0.00    +0.000 OA
ATOM     22  N   UNL     1       0.687  10.556  20.805  0.00  0.00    +0.000 N 
ATOM     23  C   UNL     1       1.423   9.743  21.749  0.00  0.00    +0.000 C 
BRANCH  22  24
ATOM     24  C   UNL     1       1.095  11.920  20.483  0.00  0.00    +0.000 C 
BRANCH  24  25
ATOM     25  C   UNL     1       1.620  12.095  19.056  0.00  0.00    +0.000 C 
BRANCH  25  26
ATOM     26  C   UNL     1       1.983  13.526  18.747  0.00  0.00    +0.000 A 
ATOM     27  C   UNL     1       3.238  13.841  18.210  0.00  0.00    +0.000 A 
ATOM     28  C   UNL     1       3.564  15.163  17.908  0.00  0.00    +0.000 A 
ATOM     29  C   UNL     1       2.642  16.181  18.148  0.00  0.00    +0.000 A 
ATOM     30  C   UNL     1       1.395  15.878  18.691  0.00  0.00    +0.000 A 
ATOM     31  C   UNL     1       1.066  14.555  18.991  0.00  0.00    +0.000 A 
ENDBRANCH  25  26
ENDBRANCH  24  25
ENDBRANCH  22  24
ENDBRANCH   2  18
TORSDOF 5
ENDMDL
MODEL 9
REMARK VINA RESULT:      -8.0      1.216      1.769
REMARK  Name = 
REMARK  5 active torsions:
REMARK  status: ('A' for Active; 'I' for Inactive)
REMARK    1  A    between atoms: C_2  and  C_17
REMARK    2  A    between atoms: C_6  and  C_7
REMARK    3  A    between atoms: N_21  and  C_22
REMARK    4  A    between atoms: C_22  and  C_23
REMARK    5  A    between atoms: C_23  and  C_24
REMARK                            x       y       z     vdW  Elec       q    Type
REMARK                         _______ _______ _______ _____ _____    ______ ____
ROOT
ATOM      1  O   UNL     1       1.318   5.450  20.563  0.00  0.00    +0.000 OA
ATOM      2  C   UNL     1       2.172   5.422  19.676  0.00  0.00    +0.000 C 
ATOM      3  N   UNL     1       2.568   6.486  18.898  0.00  0.00    +0.000 N 
ATOM      4  C   UNL     1       2.005   7.725  19.033  0.00  0.00    +0.000 A 
ATOM      5  N   UNL     1       1.226   8.173  19.977  0.00  0.00    +0.000 NA
ATOM      6  C   UNL     1       0.840   9.476  19.698  0.00  0.00    +0.000 A 
ATOM      7  C   UNL     1       1.370   9.987  18.528  0.00  0.00    +0.000 A 
ATOM      8  S   UNL     1       2.384   8.813  17.779  0.00  0.00    +0.000 S 
ATOM      9  H   UNL     1       3.202   6.368  18.120  0.00  0.00    +0.000 HD
ENDROOT
BRANCH   6  10
ATOM     10  C   UNL     1       0.009  10.204  20.656  0.00  0.00    +0.000 A 
ATOM     11  C   UNL     1       0.047   9.760  21.994  0.00  0.00    +0.000 A 
ATOM     12  C   UNL     1      -0.711  10.383  22.990  0.00  0.00    +0.000 A 
ATOM     13  C   UNL     1      -1.520  11.462  22.659  0.00  0.00    +0.000 A 
ATOM     14 CL   UNL     1      -2.458  12.234  23.877  0.00  0.00    +0.000 Cl
ATOM     15  C   UNL     1      -1.586  11.913  21.344  0.00  0.00    +0.000 A 
ATOM     16  C   UNL     1      -0.835  11.284  20.342  0.00  0.00    +0.000 A 
ATOM     17 CL   UNL     1      -1.066  11.880  18.734  0.00  0.00    +0.000 Cl
ENDBRANCH   6  10
BRANCH   2  18
ATOM     18  C   UNL     1       2.880   4.105  19.383  0.00  0.00    +0.000 C 
ATOM     19  C   UNL     1       4.287   4.077  19.966  0.00  0.00    +0.000 C 
ATOM     20  C   UNL     1       5.138   4.535  18.810  0.00  0.00    +0.000 C 
ATOM     21  O   UNL     1       6.270   4.973  18.909  0.00  0.00    +0.000 OA
ATOM     22  N   UNL     1       4.402   4.372  17.643  0.00  0.00    +0.000 N 
ATOM     23  C   UNL     1       3.074   3.858  17.899  0.00  0.00    +0.000 C 
BRANCH  22  24
ATOM     24  C   UNL     1       4.871   4.646  16.288  0.00  0.00    +0.000 C 
BRANCH  24  25
ATOM     25  C   UNL     1       5.935   3.666  15.786  0.00  0.00    +0.000 C 
BRANCH  25  26
ATOM     26  C   UNL     1       6.430   4.012  14.404  0.00  0.00    +0.000 A 
ATOM     27  C   UNL     1       7.404   5.003  14.225  0.00  0.00    +0.000 A 
ATOM     28  C   UNL     1       7.874   5.308  12.948  0.00  0.00    +0.000 A 
ATOM     29  C   UNL     1       7.368   4.631  11.839  0.00  0.00    +0.000 A 
ATOM     30  C   UNL     1       6.393   3.651  12.006  0.00  0.00    +0.000 A 
ATOM     31  C   UNL     1       5.923   3.342  13.284  0.00  0.00    +0.000 A 
ENDBRANCH  25  26
ENDBRANCH  24  25
ENDBRANCH  22  24
ENDBRANCH   2  18
TORSDOF 5
ENDMDL
