MODEL 1
REMARK VINA RESULT:      -8.2      0.000      0.000
REMARK  Name = 
REMARK  3 active torsions:
REMARK  status: ('A' for Active; 'I' for Inactive)
REMARK    1  A    between atoms: C_1  and  N_2
REMARK    2  A    between atoms: N_2  and  C_3
REMARK    3  A    between atoms: C_6  and  C_7
REMARK                            x       y       z     vdW  Elec       q    Type
REMARK                         _______ _______ _______ _____ _____    ______ ____
ROOT
ATOM      1  C   UNL     1       4.617   4.203  19.666  0.00  0.00    +0.000 C 
ATOM      2  C   UNL     1       3.085   4.361  19.651  0.00  0.00    +0.000 C 
ATOM      3  C   UNL     1       2.517   4.784  18.301  0.00  0.00    +0.000 C 
ATOM      4  C   UNL     1       3.184   6.049  17.738  0.00  0.00    +0.000 C 
ATOM      5  C   UNL     1       4.695   6.066  17.907  0.00  0.00    +0.000 A 
ATOM      6  C   UNL     1       5.446   6.985  17.146  0.00  0.00    +0.000 A 
ATOM      7  C   UNL     1       6.813   7.145  17.360  0.00  0.00    +0.000 A 
ATOM      8  C   UNL     1       7.450   6.395  18.341  0.00  0.00    +0.000 A 
ATOM      9  C   UNL     1       6.727   5.462  19.084  0.00  0.00    +0.000 A 
ATOM     10  C   UNL     1       5.350   5.268  18.865  0.00  0.00    +0.000 A 
ENDROOT
BRANCH   4  11
ATOM     11  C   UNL     1       2.518   7.308  18.298  0.00  0.00    +0.000 A 
ATOM     12  C   UNL     1       2.239   8.425  17.497  0.00  0.00    +0.000 A 
ATOM     13  C   UNL     1       1.635   9.563  18.036  0.00  0.00    +0.000 A 
ATOM     14  C   UNL     1       1.301   9.606  19.390  0.00  0.00    +0.000 A 
ATOM     15 CL   UNL     1       0.564  11.048  19.989  0.00  0.00    +0.000 Cl
ATOM     16  C   UNL     1       1.573   8.504  20.206  0.00  0.00    +0.000 A 
ATOM     17 CL   UNL     1       1.177   8.477  21.888  0.00  0.00    +0.000 Cl
ATOM     18  C   UNL     1       2.181   7.365  19.662  0.00  0.00    +0.000 A 
ENDBRANCH   4  11
BRANCH   1  20
ATOM     19  C   UNL     1       4.085   1.788  19.442  0.00  0.00    +0.000 C 
ATOM     20  N   UNL     1       5.083   2.841  19.346  0.00  0.00    +0.000 NA
ATOM     21  H   UNL     1       5.456   2.845  18.398  0.00  0.00    +0.000 HD
ENDBRANCH   1  20
TORSDOF 2
ENDMDL
MODEL 2
REMARK VINA RESULT:      -8.2      1.655      3.552
REMARK  Name = 
REMARK  3 active torsions:
REMARK  status: ('A' for Active; 'I' for Inactive)
REMARK    1  A    between atoms: C_1  and  N_2
REMARK    2  A    between atoms: N_2  and  C_3
REMARK    3  A    between atoms: C_6  and  C_7
REMARK                            x       y       z     vdW  Elec       q    Type
REMARK                         _______ _______ _______ _____ _____    ______ ____
ROOT
ATOM      1  C   UNL     1       3.803   4.389  16.956  0.00  0.00    +0.000 C 
ATOM      2  C   UNL     1       4.376   5.814  17.079  0.00  0.00    +0.000 C 
ATOM      3  C   UNL     1       4.609   6.268  18.516  0.00  0.00    +0.000 C 
ATOM      4  C   UNL     1       3.361   6.121  19.402  0.00  0.00    +0.000 C 
ATOM      5  C   UNL     1       2.610   4.817  19.184  0.00  0.00    +0.000 A 
ATOM      6  C   UNL     1       1.668   4.415  20.152  0.00  0.00    +0.000 A 
ATOM      7  C   UNL     1       0.850   3.308  19.941  0.00  0.00    +0.000 A 
ATOM      8  C   UNL     1       0.955   2.589  18.756  0.00  0.00    +0.000 A 
ATOM      9  C   UNL     1       1.901   2.958  17.799  0.00  0.00    +0.000 A 
ATOM     10  C   UNL     1       2.754   4.059  18.007  0.00  0.00    +0.000 A 
ENDROOT
BRANCH   4  11
ATOM     11  C   UNL     1       2.455   7.348  19.269  0.00  0.00    +0.000 A 
ATOM     12  C   UNL     1       2.271   8.012  18.047  0.00  0.00    +0.000 A 
ATOM     13  C   UNL     1       1.441   9.131  17.956  0.00  0.00    +0.000 A 
ATOM     14  C   UNL     1       0.782   9.611  19.089  0.00  0.00    +0.000 A 
ATOM     15 CL   UNL     1      -0.221  11.004  18.903  0.00  0.00    +0.000 Cl
ATOM     16  C   UNL     1       0.954   8.964  20.316  0.00  0.00    +0.000 A 
ATOM     17 CL   UNL     1       0.161   9.490  21.758  0.00  0.00    +0.000 Cl
ATOM     18  C   UNL     1       1.789   7.842  20.404  0.00  0.00    +0.000 A 
ENDBRANCH   4  11
BRANCH   1  20
ATOM     19  C   UNL     1       5.943   3.632  15.951  0.00  0.00    +0.000 C 
ATOM     20  N   UNL     1       4.829   3.336  16.837  0.00  0.00    +0.000 NA
ATOM     21  H   UNL     1       5.200   3.146  17.767  0.00  0.00    +0.000 HD
ENDBRANCH   1  20
TORSDOF 2
ENDMDL
MODEL 3
REMARK VINA RESULT:      -7.7      0.902      1.660
REMARK  Name = 
REMARK  3 active torsions:
REMARK  status: ('A' for Active; 'I' for Inactive)
REMARK    1  A    between atoms: C_1  and  N_2
REMARK    2  A    between atoms: N_2  and  C_3
REMARK    3  A    between atoms: C_6  and  C_7
REMARK                            x       y       z     vdW  Elec       q    Type
REMARK                         _______ _______ _______ _____ _____    ______ ____
ROOT
ATOM      1  C   UNL     1       4.179   3.730  19.064  0.00  0.00    +0.000 C 
ATOM      2  C   UNL     1       2.663   3.964  19.213  0.00  0.00    +0.000 C 
ATOM      3  C   UNL     1       2.042   4.754  18.065  0.00  0.00    +0.000 C 
ATOM      4  C   UNL     1       2.759   6.086  17.795  0.00  0.00    +0.000 C 
ATOM      5  C   UNL     1       4.275   5.982  17.842  0.00  0.00    +0.000 A 
ATOM      6  C   UNL     1       5.038   7.027  17.287  0.00  0.00    +0.000 A 
ATOM      7  C   UNL     1       6.424   7.057  17.425  0.00  0.00    +0.000 A 
ATOM      8  C   UNL     1       7.069   6.045  18.128  0.00  0.00    +0.000 A 
ATOM      9  C   UNL     1       6.330   4.988  18.661  0.00  0.00    +0.000 A 
ATOM     10  C   UNL     1       4.932   4.929  18.509  0.00  0.00    +0.000 A 
ENDROOT
BRANCH   4  11
ATOM     11  C   UNL     1       2.219   7.188  18.710  0.00  0.00    +0.000 A 
ATOM     12  C   UNL     1       2.042   6.994  20.088  0.00  0.00    +0.000 A 
ATOM     13  C   UNL     1       1.543   8.016  20.898  0.00  0.00    +0.000 A 
ATOM     14  C   UNL     1       1.208   9.252  20.344  0.00  0.00    +0.000 A 
ATOM     15 CL   UNL     1       0.590  10.466  21.404  0.00  0.00    +0.000 Cl
ATOM     16  C   UNL     1       1.376   9.464  18.972  0.00  0.00    +0.000 A 
ATOM     17 CL   UNL     1       0.996  10.971  18.216  0.00  0.00    +0.000 Cl
ATOM     18  C   UNL     1       1.874   8.436  18.162  0.00  0.00    +0.000 A 
ENDBRANCH   4  11
BRANCH   1  20
ATOM     19  C   UNL     1       3.558   1.398  18.477  0.00  0.00    +0.000 C 
ATOM     20  N   UNL     1       4.528   2.476  18.370  0.00  0.00    +0.000 NA
ATOM     21  H   UNL     1       4.667   2.687  17.383  0.00  0.00    +0.000 HD
ENDBRANCH   1  20
TORSDOF 2
ENDMDL
MODEL 4
REMARK VINA RESULT:      -7.3      1.802      3.966
REMARK  Name = 
REMARK  3 active torsions:
REMARK  status: ('A' for Active; 'I' for Inactive)
REMARK    1  A    between atoms: C_1  and  N_2
REMARK    2  A    between atoms: N_2  and  C_3
REMARK    3  A    between atoms: C_6  and  C_7
REMARK                            x       y       z     vdW  Elec       q    Type
REMARK                         _______ _______ _______ _____ _____    ______ ____
ROOT
ATOM      1  C   UNL     1       3.743   4.437  17.263  0.00  0.00    +0.000 C 
ATOM      2  C   UNL     1       4.314   5.816  17.643  0.00  0.00    +0.000 C 
ATOM      3  C   UNL     1       4.512   6.014  19.142  0.00  0.00    +0.000 C 
ATOM      4  C   UNL     1       3.242   5.724  19.959  0.00  0.00    +0.000 C 
ATOM      5  C   UNL     1       2.495   4.481  19.501  0.00  0.00    +0.000 A 
ATOM      6  C   UNL     1       1.528   3.924  20.362  0.00  0.00    +0.000 A 
ATOM      7  C   UNL     1       0.714   2.874  19.943  0.00  0.00    +0.000 A 
ATOM      8  C   UNL     1       0.848   2.369  18.655  0.00  0.00    +0.000 A 
ATOM      9  C   UNL     1       1.819   2.892  17.799  0.00  0.00    +0.000 A 
ATOM     10  C   UNL     1       2.667   3.936  18.214  0.00  0.00    +0.000 A 
ENDROOT
BRANCH   4  11
ATOM     11  C   UNL     1       2.341   6.960  20.017  0.00  0.00    +0.000 A 
ATOM     12  C   UNL     1       1.496   7.218  21.106  0.00  0.00    +0.000 A 
ATOM     13  C   UNL     1       0.681   8.352  21.131  0.00  0.00    +0.000 A 
ATOM     14  C   UNL     1       0.694   9.249  20.062  0.00  0.00    +0.000 A 
ATOM     15 CL   UNL     1      -0.345  10.625  20.156  0.00  0.00    +0.000 Cl
ATOM     16  C   UNL     1       1.528   9.009  18.966  0.00  0.00    +0.000 A 
ATOM     17 CL   UNL     1       1.609  10.080  17.612  0.00  0.00    +0.000 Cl
ATOM     18  C   UNL     1       2.343   7.869  18.944  0.00  0.00    +0.000 A 
ENDBRANCH   4  11
BRANCH   1  20
ATOM     19  C   UNL     1       5.724   3.737  15.939  0.00  0.00    +0.000 C 
ATOM     20  N   UNL     1       4.770   3.415  16.989  0.00  0.00    +0.000 NA
ATOM     21  H   UNL     1       5.287   3.244  17.850  0.00  0.00    +0.000 HD
ENDBRANCH   1  20
TORSDOF 2
ENDMDL
MODEL 5
REMARK VINA RESULT:      -6.9      1.955      3.571
REMARK  Name = 
REMARK  3 active torsions:
REMARK  status: ('A' for Active; 'I' for Inactive)
REMARK    1  A    between atoms: C_1  and  N_2
REMARK    2  A    between atoms: N_2  and  C_3
REMARK    3  A    between atoms: C_6  and  C_7
REMARK                            x       y       z     vdW  Elec       q    Type
REMARK                         _______ _______ _______ _____ _____    ______ ____
ROOT
ATOM      1  C   UNL     1       2.111   2.948  17.796  0.00  0.00    +0.000 C 
ATOM      2  C   UNL     1       2.641   4.110  16.936  0.00  0.00    +0.000 C 
ATOM      3  C   UNL     1       3.815   4.859  17.558  0.00  0.00    +0.000 C 
ATOM      4  C   UNL     1       3.527   5.347  18.986  0.00  0.00    +0.000 C 
ATOM      5  C   UNL     1       2.806   4.321  19.847  0.00  0.00    +0.000 A 
ATOM      6  C   UNL     1       2.790   4.507  21.243  0.00  0.00    +0.000 A 
ATOM      7  C   UNL     1       2.030   3.682  22.068  0.00  0.00    +0.000 A 
ATOM      8  C   UNL     1       1.268   2.662  21.511  0.00  0.00    +0.000 A 
ATOM      9  C   UNL     1       1.295   2.447  20.132  0.00  0.00    +0.000 A 
ATOM     10  C   UNL     1       2.077   3.255  19.285  0.00  0.00    +0.000 A 
ENDROOT
BRANCH   4  11
ATOM     11  C   UNL     1       2.809   6.699  18.963  0.00  0.00    +0.000 A 
ATOM     12  C   UNL     1       2.857   7.551  17.850  0.00  0.00    +0.000 A 
ATOM     13  C   UNL     1       2.195   8.781  17.859  0.00  0.00    +0.000 A 
ATOM     14  C   UNL     1       1.475   9.184  18.985  0.00  0.00    +0.000 A 
ATOM     15 CL   UNL     1       0.690  10.720  18.927  0.00  0.00    +0.000 Cl
ATOM     16  C   UNL     1       1.417   8.349  20.105  0.00  0.00    +0.000 A 
ATOM     17 CL   UNL     1       0.535   8.772  21.529  0.00  0.00    +0.000 Cl
ATOM     18  C   UNL     1       2.083   7.116  20.093  0.00  0.00    +0.000 A 
ENDBRANCH   4  11
BRANCH   1  20
ATOM     19  C   UNL     1       3.872   1.286  18.351  0.00  0.00    +0.000 C 
ATOM     20  N   UNL     1       2.745   1.648  17.506  0.00  0.00    +0.000 NA
ATOM     21  H   UNL     1       2.035   0.921  17.589  0.00  0.00    +0.000 HD
ENDBRANCH   1  20
TORSDOF 2
ENDMDL
MODEL 6
REMARK VINA RESULT:      -6.7      3.498      5.787
REMARK  Name = 
REMARK  3 active torsions:
REMARK  status: ('A' for Active; 'I' for Inactive)
REMARK    1  A    between atoms: C_1  and  N_2
REMARK    2  A    between atoms: N_2  and  C_3
REMARK    3  A    between atoms: C_6  and  C_7
REMARK                            x       y       z     vdW  Elec       q    Type
REMARK                         _______ _______ _______ _____ _____    ______ ____
ROOT
ATOM      1  C   UNL     1       1.999   6.647  20.683  0.00  0.00    +0.000 C 
ATOM      2  C   UNL     1       2.463   7.487  19.479  0.00  0.00    +0.000 C 
ATOM      3  C   UNL     1       1.937   6.992  18.136  0.00  0.00    +0.000 C 
ATOM      4  C   UNL     1       2.231   5.504  17.888  0.00  0.00    +0.000 C 
ATOM      5  C   UNL     1       1.998   4.625  19.107  0.00  0.00    +0.000 A 
ATOM      6  C   UNL     1       1.902   3.232  18.923  0.00  0.00    +0.000 A 
ATOM      7  C   UNL     1       1.831   2.367  20.013  0.00  0.00    +0.000 A 
ATOM      8  C   UNL     1       1.862   2.881  21.304  0.00  0.00    +0.000 A 
ATOM      9  C   UNL     1       1.930   4.260  21.503  0.00  0.00    +0.000 A 
ATOM     10  C   UNL     1       1.977   5.151  20.414  0.00  0.00    +0.000 A 
ENDROOT
BRANCH   4  11
ATOM     11  C   UNL     1       3.629   5.319  17.293  0.00  0.00    +0.000 A 
ATOM     12  C   UNL     1       3.971   4.199  16.521  0.00  0.00    +0.000 A 
ATOM     13  C   UNL     1       5.256   4.055  15.994  0.00  0.00    +0.000 A 
ATOM     14  C   UNL     1       6.227   5.030  16.233  0.00  0.00    +0.000 A 
ATOM     15 CL   UNL     1       7.796   4.781  15.557  0.00  0.00    +0.000 Cl
ATOM     16  C   UNL     1       5.906   6.153  17.001  0.00  0.00    +0.000 A 
ATOM     17 CL   UNL     1       7.049   7.407  17.329  0.00  0.00    +0.000 Cl
ATOM     18  C   UNL     1       4.616   6.293  17.530  0.00  0.00    +0.000 A 
ENDBRANCH   4  11
BRANCH   1  20
ATOM     19  C   UNL     1       0.647   8.561  21.506  0.00  0.00    +0.000 C 
ATOM     20  N   UNL     1       0.748   7.125  21.303  0.00  0.00    +0.000 NA
ATOM     21  H   UNL     1      -0.031   6.828  20.717  0.00  0.00    +0.000 HD
ENDBRANCH   1  20
TORSDOF 2
ENDMDL
MODEL 7
REMARK VINA RESULT:      -6.7      4.332      6.016
REMARK  Name = 
REMARK  3 active torsions:
REMARK  status: ('A' for Active; 'I' for Inactive)
REMARK    1  A    between atoms: C_1  and  N_2
REMARK    2  A    between atoms: N_2  and  C_3
REMARK    3  A    between atoms: C_6  and  C_7
REMARK                            x       y       z     vdW  Elec       q    Type
REMARK                         _______ _______ _______ _____ _____    ______ ____
ROOT
ATOM      1  C   UNL     1       3.267   4.348  19.420  0.00  0.00    +0.000 C 
ATOM      2  C   UNL     1       4.453   3.445  19.035  0.00  0.00    +0.000 C 
ATOM      3  C   UNL     1       5.768   4.194  18.844  0.00  0.00    +0.000 C 
ATOM      4  C   UNL     1       5.654   5.365  17.855  0.00  0.00    +0.000 C 
ATOM      5  C   UNL     1       4.388   6.190  18.033  0.00  0.00    +0.000 A 
ATOM      6  C   UNL     1       4.327   7.464  17.435  0.00  0.00    +0.000 A 
ATOM      7  C   UNL     1       3.148   8.205  17.443  0.00  0.00    +0.000 A 
ATOM      8  C   UNL     1       2.009   7.682  18.043  0.00  0.00    +0.000 A 
ATOM      9  C   UNL     1       2.060   6.433  18.663  0.00  0.00    +0.000 A 
ATOM     10  C   UNL     1       3.250   5.681  18.687  0.00  0.00    +0.000 A 
ENDROOT
BRANCH   4  11
ATOM     11  C   UNL     1       5.838   4.880  16.415  0.00  0.00    +0.000 A 
ATOM     12  C   UNL     1       4.988   3.928  15.833  0.00  0.00    +0.000 A 
ATOM     13  C   UNL     1       5.183   3.500  14.518  0.00  0.00    +0.000 A 
ATOM     14  C   UNL     1       6.236   4.015  13.761  0.00  0.00    +0.000 A 
ATOM     15 CL   UNL     1       6.421   3.434  12.145  0.00  0.00    +0.000 Cl
ATOM     16  C   UNL     1       7.095   4.963  14.324  0.00  0.00    +0.000 A 
ATOM     17 CL   UNL     1       8.412   5.656  13.445  0.00  0.00    +0.000 Cl
ATOM     18  C   UNL     1       6.898   5.389  15.644  0.00  0.00    +0.000 A 
ENDBRANCH   4  11
BRANCH   1  20
ATOM     19  C   UNL     1       2.095   3.625  21.486  0.00  0.00    +0.000 C 
ATOM     20  N   UNL     1       3.077   4.505  20.874  0.00  0.00    +0.000 NA
ATOM     21  H   UNL     1       3.975   4.351  21.331  0.00  0.00    +0.000 HD
ENDBRANCH   1  20
TORSDOF 2
ENDMDL
MODEL 8
REMARK VINA RESULT:      -6.6      3.846      5.206
REMARK  Name = 
REMARK  3 active torsions:
REMARK  status: ('A' for Active; 'I' for Inactive)
REMARK    1  A    between atoms: C_1  and  N_2
REMARK    2  A    between atoms: N_2  and  C_3
REMARK    3  A    between atoms: C_6  and  C_7
REMARK                            x       y       z     vdW  Elec       q    Type
REMARK                         _______ _______ _______ _____ _____    ______ ____
ROOT
ATOM      1  C   UNL     1       6.411   6.954  17.028  0.00  0.00    +0.000 C 
ATOM      2  C   UNL     1       5.945   6.676  18.469  0.00  0.00    +0.000 C 
ATOM      3  C   UNL     1       6.337   5.299  18.993  0.00  0.00    +0.000 C 
ATOM      4  C   UNL     1       5.898   4.155  18.065  0.00  0.00    +0.000 C 
ATOM      5  C   UNL     1       6.132   4.444  16.590  0.00  0.00    +0.000 A 
ATOM      6  C   UNL     1       6.094   3.369  15.681  0.00  0.00    +0.000 A 
ATOM      7  C   UNL     1       6.160   3.588  14.307  0.00  0.00    +0.000 A 
ATOM      8  C   UNL     1       6.259   4.886  13.820  0.00  0.00    +0.000 A 
ATOM      9  C   UNL     1       6.325   5.960  14.708  0.00  0.00    +0.000 A 
ATOM     10  C   UNL     1       6.285   5.755  16.101  0.00  0.00    +0.000 A 
ENDROOT
BRANCH   4  11
ATOM     11  C   UNL     1       4.453   3.743  18.358  0.00  0.00    +0.000 A 
ATOM     12  C   UNL     1       3.462   3.736  17.366  0.00  0.00    +0.000 A 
ATOM     13  C   UNL     1       2.150   3.360  17.663  0.00  0.00    +0.000 A 
ATOM     14  C   UNL     1       1.804   2.987  18.962  0.00  0.00    +0.000 A 
ATOM     15 CL   UNL     1       0.162   2.542  19.258  0.00  0.00    +0.000 Cl
ATOM     16  C   UNL     1       2.777   2.989  19.966  0.00  0.00    +0.000 A 
ATOM     17 CL   UNL     1       2.428   2.526  21.594  0.00  0.00    +0.000 Cl
ATOM     18  C   UNL     1       4.091   3.369  19.665  0.00  0.00    +0.000 A 
ENDBRANCH   4  11
BRANCH   1  20
ATOM     19  C   UNL     1       7.956   8.729  17.822  0.00  0.00    +0.000 C 
ATOM     20  N   UNL     1       7.737   7.595  16.938  0.00  0.00    +0.000 NA
ATOM     21  H   UNL     1       8.446   6.891  17.138  0.00  0.00    +0.000 HD
ENDBRANCH   1  20
TORSDOF 2
ENDMDL
MODEL 9
REMARK VINA RESULT:      -6.5      4.305      6.038
REMARK  Name = 
REMARK  3 active torsions:
REMARK  status: ('A' for Active; 'I' for Inactive)
REMARK    1  A    between atoms: C_1  and  N_2
REMARK    2  A    between atoms: N_2  and  C_3
REMARK    3  A    between atoms: C_6  and  C_7
REMARK                            x       y       z     vdW  Elec       q    Type
REMARK                         _______ _______ _______ _____ _____    ______ ____
ROOT
ATOM      1  C   UNL     1       1.951   3.649  17.788  0.00  0.00    +0.000 C 
ATOM      2  C   UNL     1       3.062   2.651  17.409  0.00  0.00    +0.000 C 
ATOM      3  C   UNL     1       4.411   2.949  18.056  0.00  0.00    +0.000 C 
ATOM      4  C   UNL     1       4.889   4.390  17.813  0.00  0.00    +0.000 C 
ATOM      5  C   UNL     1       3.788   5.429  17.961  0.00  0.00    +0.000 A 
ATOM      6  C   UNL     1       4.156   6.782  18.100  0.00  0.00    +0.000 A 
ATOM      7  C   UNL     1       3.195   7.791  18.097  0.00  0.00    +0.000 A 
ATOM      8  C   UNL     1       1.853   7.464  17.947  0.00  0.00    +0.000 A 
ATOM      9  C   UNL     1       1.469   6.127  17.835  0.00  0.00    +0.000 A 
ATOM     10  C   UNL     1       2.424   5.092  17.862  0.00  0.00    +0.000 A 
ENDROOT
BRANCH   4  11
ATOM     11  C   UNL     1       5.621   4.500  16.474  0.00  0.00    +0.000 A 
ATOM     12  C   UNL     1       6.917   5.026  16.372  0.00  0.00    +0.000 A 
ATOM     13  C   UNL     1       7.560   5.118  15.136  0.00  0.00    +0.000 A 
ATOM     14  C   UNL     1       6.915   4.688  13.975  0.00  0.00    +0.000 A 
ATOM     15 CL   UNL     1       7.767   4.840  12.481  0.00  0.00    +0.000 Cl
ATOM     16  C   UNL     1       5.622   4.162  14.055  0.00  0.00    +0.000 A 
ATOM     17 CL   UNL     1       4.766   3.597  12.665  0.00  0.00    +0.000 Cl
ATOM     18  C   UNL     1       4.980   4.073  15.297  0.00  0.00    +0.000 A 
ENDBRANCH   4  11
BRANCH   1  20
ATOM     19  C   UNL     1       1.790   3.504  20.262  0.00  0.00    +0.000 C 
ATOM     20  N   UNL     1       1.166   3.254  18.972  0.00  0.00    +0.000 NA
ATOM     21  H   UNL     1       0.276   3.749  18.945  0.00  0.00    +0.000 HD
ENDBRANCH   1  20
TORSDOF 2
ENDMDL
