MODEL 1
REMARK VINA RESULT:      -7.8      0.000      0.000
REMARK  Name = 
REMARK  7 active torsions:
REMARK  status: ('A' for Active; 'I' for Inactive)
REMARK    1  A    between atoms: C_1  and  C_2
REMARK    2  A    between atoms: C_5  and  C_6
REMARK    3  A    between atoms: C_6  and  N_7
REMARK    4  A    between atoms: C_9  and  N_10
REMARK    5  A    between atoms: N_13  and  C_14
REMARK    6  A    between atoms: C_14  and  C_15
REMARK    7  A    between atoms: C_19  and  C_20
REMARK                            x       y       z     vdW  Elec       q    Type
REMARK                         _______ _______ _______ _____ _____    ______ ____
ROOT
ATOM      1  N   UNL     1       2.664   5.471  19.561  0.00  0.00    +0.000 NA
ATOM      2  C   UNL     1       4.130   5.540  19.519  0.00  0.00    +0.000 C 
ATOM      3  C   UNL     1       4.636   4.451  18.515  0.00  0.00    +0.000 C 
ATOM      4  C   UNL     1       3.668   3.269  18.736  0.00  0.00    +0.000 C 
ATOM      5  S   UNL     1       2.087   3.941  19.184  0.00  0.00    +0.000 S 
ATOM      6  O   UNL     1       1.639   3.274  20.388  0.00  0.00    +0.000 OA
ATOM      7  O   UNL     1       1.234   4.052  18.024  0.00  0.00    +0.000 OA
ENDROOT
BRANCH   3   8
ATOM      8  N   UNL     1       4.787   4.959  17.128  0.00  0.00    +0.000 NA
ATOM      9  C   UNL     1       5.902   5.925  16.953  0.00  0.00    +0.000 C 
ATOM     10  C   UNL     1       7.236   5.440  16.317  0.00  0.00    +0.000 C 
ATOM     11  N   UNL     1       7.155   4.436  15.246  0.00  0.00    +0.000 NA
ATOM     12  C   UNL     1       6.190   3.401  15.669  0.00  0.00    +0.000 C 
ATOM     13  C   UNL     1       4.800   3.950  16.057  0.00  0.00    +0.000 C 
BRANCH  11  14
ATOM     14  C   UNL     1       6.748   5.009  13.951  0.00  0.00    +0.000 C 
BRANCH  14  15
ATOM     15  C   UNL     1       6.437   4.034  12.829  0.00  0.00    +0.000 A 
ATOM     16  C   UNL     1       7.359   3.126  12.300  0.00  0.00    +0.000 A 
ATOM     17  C   UNL     1       6.963   2.191  11.342  0.00  0.00    +0.000 A 
ATOM     18  C   UNL     1       5.632   2.123  10.919  0.00  0.00    +0.000 A 
ATOM     19  C   UNL     1       4.688   3.008  11.448  0.00  0.00    +0.000 A 
ATOM     20  C   UNL     1       3.236   2.917  11.088  0.00  0.00    +0.000 C 
ATOM     21  C   UNL     1       5.101   3.956  12.392  0.00  0.00    +0.000 A 
ENDBRANCH  14  15
ENDBRANCH  11  14
ENDBRANCH   3   8
BRANCH   1  22
ATOM     22  C   UNL     1       1.949   6.314  20.521  0.00  0.00    +0.000 C 
BRANCH  22  27
ATOM     23  C   UNL     1       0.971  11.762  18.703  0.00  0.00    +0.000 C 
ATOM     24  C   UNL     1       1.150  10.350  19.170  0.00  0.00    +0.000 A 
ATOM     25  C   UNL     1       0.811   9.964  20.471  0.00  0.00    +0.000 A 
ATOM     26  C   UNL     1       1.069   8.664  20.912  0.00  0.00    +0.000 A 
ATOM     27  C   UNL     1       1.663   7.724  20.057  0.00  0.00    +0.000 A 
ATOM     28  C   UNL     1       1.972   8.109  18.747  0.00  0.00    +0.000 A 
ATOM     29  C   UNL     1       1.718   9.407  18.307  0.00  0.00    +0.000 A 
ENDBRANCH  22  27
ENDBRANCH   1  22
TORSDOF 5
ENDMDL
MODEL 2
REMARK VINA RESULT:      -7.4      0.389      1.553
REMARK  Name = 
REMARK  7 active torsions:
REMARK  status: ('A' for Active; 'I' for Inactive)
REMARK    1  A    between atoms: C_1  and  C_2
REMARK    2  A    between atoms: C_5  and  C_6
REMARK    3  A    between atoms: C_6  and  N_7
REMARK    4  A    between atoms: C_9  and  N_10
REMARK    5  A    between atoms: N_13  and  C_14
REMARK    6  A    between atoms: C_14  and  C_15
REMARK    7  A    between atoms: C_19  and  C_20
REMARK                            x       y       z     vdW  Elec       q    Type
REMARK                         _______ _______ _______ _____ _____    ______ ____
ROOT
ATOM      1  N   UNL     1       2.630   5.510  19.723  0.00  0.00    +0.000 NA
ATOM      2  C   UNL     1       4.096   5.597  19.673  0.00  0.00    +0.000 C 
ATOM      3  C   UNL     1       4.611   4.503  18.679  0.00  0.00    +0.000 C 
ATOM      4  C   UNL     1       3.659   3.312  18.918  0.00  0.00    +0.000 C 
ATOM      5  S   UNL     1       2.072   3.969  19.366  0.00  0.00    +0.000 S 
ATOM      6  O   UNL     1       1.638   3.310  20.580  0.00  0.00    +0.000 OA
ATOM      7  O   UNL     1       1.212   4.055  18.210  0.00  0.00    +0.000 OA
ENDROOT
BRANCH   3   8
ATOM      8  N   UNL     1       4.749   4.998  17.286  0.00  0.00    +0.000 NA
ATOM      9  C   UNL     1       5.808   6.024  17.108  0.00  0.00    +0.000 C 
ATOM     10  C   UNL     1       7.176   5.606  16.494  0.00  0.00    +0.000 C 
ATOM     11  N   UNL     1       7.165   4.583  15.439  0.00  0.00    +0.000 NA
ATOM     12  C   UNL     1       6.257   3.501  15.869  0.00  0.00    +0.000 C 
ATOM     13  C   UNL     1       4.833   3.974  16.232  0.00  0.00    +0.000 C 
BRANCH  11  14
ATOM     14  C   UNL     1       6.741   5.111  14.130  0.00  0.00    +0.000 C 
BRANCH  14  15
ATOM     15  C   UNL     1       6.141   4.122  13.146  0.00  0.00    +0.000 A 
ATOM     16  C   UNL     1       4.793   4.106  12.774  0.00  0.00    +0.000 A 
ATOM     17  C   UNL     1       4.342   3.232  11.783  0.00  0.00    +0.000 A 
ATOM     18  C   UNL     1       5.234   2.381  11.123  0.00  0.00    +0.000 A 
ATOM     19  C   UNL     1       6.589   2.393  11.464  0.00  0.00    +0.000 A 
ATOM     20  C   UNL     1       7.595   1.561  10.727  0.00  0.00    +0.000 C 
ATOM     21  C   UNL     1       7.027   3.259  12.475  0.00  0.00    +0.000 A 
ENDBRANCH  14  15
ENDBRANCH  11  14
ENDBRANCH   3   8
BRANCH   1  22
ATOM     22  C   UNL     1       1.909   6.355  20.677  0.00  0.00    +0.000 C 
BRANCH  22  27
ATOM     23  C   UNL     1       0.424  11.658  18.775  0.00  0.00    +0.000 C 
ATOM     24  C   UNL     1       0.876  10.317  19.268  0.00  0.00    +0.000 A 
ATOM     25  C   UNL     1       1.606   9.448  18.450  0.00  0.00    +0.000 A 
ATOM     26  C   UNL     1       1.939   8.168  18.900  0.00  0.00    +0.000 A 
ATOM     27  C   UNL     1       1.556   7.737  20.178  0.00  0.00    +0.000 A 
ATOM     28  C   UNL     1       0.852   8.624  21.001  0.00  0.00    +0.000 A 
ATOM     29  C   UNL     1       0.516   9.900  20.553  0.00  0.00    +0.000 A 
ENDBRANCH  22  27
ENDBRANCH   1  22
TORSDOF 5
ENDMDL
MODEL 3
REMARK VINA RESULT:      -7.1      5.519      8.074
REMARK  Name = 
REMARK  7 active torsions:
REMARK  status: ('A' for Active; 'I' for Inactive)
REMARK    1  A    between atoms: C_1  and  C_2
REMARK    2  A    between atoms: C_5  and  C_6
REMARK    3  A    between atoms: C_6  and  N_7
REMARK    4  A    between atoms: C_9  and  N_10
REMARK    5  A    between atoms: N_13  and  C_14
REMARK    6  A    between atoms: C_14  and  C_15
REMARK    7  A    between atoms: C_19  and  C_20
REMARK                            x       y       z     vdW  Elec       q    Type
REMARK                         _______ _______ _______ _____ _____    ______ ____
ROOT
ATOM      1  N   UNL     1      -1.004  12.174  20.067  0.00  0.00    +0.000 NA
ATOM      2  C   UNL     1       0.009  12.029  19.012  0.00  0.00    +0.000 C 
ATOM      3  C   UNL     1       1.060  10.974  19.495  0.00  0.00    +0.000 C 
ATOM      4  C   UNL     1       1.183  11.245  21.010  0.00  0.00    +0.000 C 
ATOM      5  S   UNL     1      -0.396  11.815  21.588  0.00  0.00    +0.000 S 
ATOM      6  O   UNL     1      -0.186  13.037  22.335  0.00  0.00    +0.000 OA
ATOM      7  O   UNL     1      -1.162  10.722  22.136  0.00  0.00    +0.000 OA
ENDROOT
BRANCH   3   8
ATOM      8  N   UNL     1       0.733   9.589  19.074  0.00  0.00    +0.000 NA
ATOM      9  C   UNL     1       1.387   9.169  17.808  0.00  0.00    +0.000 C 
ATOM     10  C   UNL     1       2.643   8.250  17.869  0.00  0.00    +0.000 C 
ATOM     11  N   UNL     1       2.686   7.225  18.922  0.00  0.00    +0.000 NA
ATOM     12  C   UNL     1       2.244   7.854  20.184  0.00  0.00    +0.000 C 
ATOM     13  C   UNL     1       0.865   8.542  20.101  0.00  0.00    +0.000 C 
BRANCH  11  14
ATOM     14  C   UNL     1       1.845   6.054  18.619  0.00  0.00    +0.000 C 
BRANCH  14  15
ATOM     15  C   UNL     1       1.979   4.849  19.534  0.00  0.00    +0.000 A 
ATOM     16  C   UNL     1       0.943   4.348  20.328  0.00  0.00    +0.000 A 
ATOM     17  C   UNL     1       1.117   3.173  21.061  0.00  0.00    +0.000 A 
ATOM     18  C   UNL     1       2.318   2.460  20.991  0.00  0.00    +0.000 A 
ATOM     19  C   UNL     1       3.362   2.932  20.190  0.00  0.00    +0.000 A 
ATOM     20  C   UNL     1       4.634   2.158  20.018  0.00  0.00    +0.000 C 
ATOM     21  C   UNL     1       3.183   4.123  19.475  0.00  0.00    +0.000 A 
ENDBRANCH  14  15
ENDBRANCH  11  14
ENDBRANCH   3   8
BRANCH   1  22
ATOM     22  C   UNL     1      -2.040  13.197  19.908  0.00  0.00    +0.000 C 
BRANCH  22  27
ATOM     23  C   UNL     1      -7.495  11.188  20.301  0.00  0.00    +0.000 C 
ATOM     24  C   UNL     1      -6.115  11.753  20.151  0.00  0.00    +0.000 A 
ATOM     25  C   UNL     1      -5.359  11.531  18.995  0.00  0.00    +0.000 A 
ATOM     26  C   UNL     1      -4.043  11.993  18.914  0.00  0.00    +0.000 A 
ATOM     27  C   UNL     1      -3.463  12.692  19.982  0.00  0.00    +0.000 A 
ATOM     28  C   UNL     1      -4.237  12.937  21.122  0.00  0.00    +0.000 A 
ATOM     29  C   UNL     1      -5.550  12.474  21.206  0.00  0.00    +0.000 A 
ENDBRANCH  22  27
ENDBRANCH   1  22
TORSDOF 5
ENDMDL
MODEL 4
REMARK VINA RESULT:      -7.0      5.074      8.072
REMARK  Name = 
REMARK  7 active torsions:
REMARK  status: ('A' for Active; 'I' for Inactive)
REMARK    1  A    between atoms: C_1  and  C_2
REMARK    2  A    between atoms: C_5  and  C_6
REMARK    3  A    between atoms: C_6  and  N_7
REMARK    4  A    between atoms: C_9  and  N_10
REMARK    5  A    between atoms: N_13  and  C_14
REMARK    6  A    between atoms: C_14  and  C_15
REMARK    7  A    between atoms: C_19  and  C_20
REMARK                            x       y       z     vdW  Elec       q    Type
REMARK                         _______ _______ _______ _____ _____    ______ ____
ROOT
ATOM      1  N   UNL     1      -1.191  12.405  20.398  0.00  0.00    +0.000 NA
ATOM      2  C   UNL     1      -0.243  12.316  19.279  0.00  0.00    +0.000 C 
ATOM      3  C   UNL     1       0.843  11.251  19.651  0.00  0.00    +0.000 C 
ATOM      4  C   UNL     1       1.055  11.457  21.166  0.00  0.00    +0.000 C 
ATOM      5  S   UNL     1      -0.490  11.986  21.863  0.00  0.00    +0.000 S 
ATOM      6  O   UNL     1      -0.244  13.176  22.649  0.00  0.00    +0.000 OA
ATOM      7  O   UNL     1      -1.214  10.862  22.407  0.00  0.00    +0.000 OA
ENDROOT
BRANCH   3   8
ATOM      8  N   UNL     1       0.501   9.882  19.190  0.00  0.00    +0.000 NA
ATOM      9  C   UNL     1       1.059   9.533  17.858  0.00  0.00    +0.000 C 
ATOM     10  C   UNL     1       2.326   8.633  17.778  0.00  0.00    +0.000 C 
ATOM     11  N   UNL     1       2.465   7.559  18.773  0.00  0.00    +0.000 NA
ATOM     12  C   UNL     1       2.115   8.121  20.094  0.00  0.00    +0.000 C 
ATOM     13  C   UNL     1       0.725   8.790  20.151  0.00  0.00    +0.000 C 
BRANCH  11  14
ATOM     14  C   UNL     1       1.617   6.390  18.479  0.00  0.00    +0.000 C 
BRANCH  14  15
ATOM     15  C   UNL     1       2.170   5.025  18.846  0.00  0.00    +0.000 A 
ATOM     16  C   UNL     1       3.269   4.429  18.219  0.00  0.00    +0.000 A 
ATOM     17  C   UNL     1       3.780   3.217  18.686  0.00  0.00    +0.000 A 
ATOM     18  C   UNL     1       3.223   2.593  19.808  0.00  0.00    +0.000 A 
ATOM     19  C   UNL     1       2.136   3.179  20.462  0.00  0.00    +0.000 A 
ATOM     20  C   UNL     1       1.562   2.592  21.716  0.00  0.00    +0.000 C 
ATOM     21  C   UNL     1       1.618   4.384  19.972  0.00  0.00    +0.000 A 
ENDBRANCH  14  15
ENDBRANCH  11  14
ENDBRANCH   3   8
BRANCH   1  22
ATOM     22  C   UNL     1      -2.243  13.423  20.347  0.00  0.00    +0.000 C 
BRANCH  22  27
ATOM     23  C   UNL     1      -7.658  11.323  20.804  0.00  0.00    +0.000 C 
ATOM     24  C   UNL     1      -6.291  11.917  20.644  0.00  0.00    +0.000 A 
ATOM     25  C   UNL     1      -5.597  11.831  19.433  0.00  0.00    +0.000 A 
ATOM     26  C   UNL     1      -4.289  12.313  19.333  0.00  0.00    +0.000 A 
ATOM     27  C   UNL     1      -3.657  12.898  20.440  0.00  0.00    +0.000 A 
ATOM     28  C   UNL     1      -4.370  13.007  21.640  0.00  0.00    +0.000 A 
ATOM     29  C   UNL     1      -5.673  12.524  21.741  0.00  0.00    +0.000 A 
ENDBRANCH  22  27
ENDBRANCH   1  22
TORSDOF 5
ENDMDL
MODEL 5
REMARK VINA RESULT:      -7.0      3.956      6.582
REMARK  Name = 
REMARK  7 active torsions:
REMARK  status: ('A' for Active; 'I' for Inactive)
REMARK    1  A    between atoms: C_1  and  C_2
REMARK    2  A    between atoms: C_5  and  C_6
REMARK    3  A    between atoms: C_6  and  N_7
REMARK    4  A    between atoms: C_9  and  N_10
REMARK    5  A    between atoms: N_13  and  C_14
REMARK    6  A    between atoms: C_14  and  C_15
REMARK    7  A    between atoms: C_19  and  C_20
REMARK                            x       y       z     vdW  Elec       q    Type
REMARK                         _______ _______ _______ _____ _____    ______ ____
ROOT
ATOM      1  N   UNL     1       0.685  11.354  20.459  0.00  0.00    +0.000 NA
ATOM      2  C   UNL     1       0.116  10.031  20.749  0.00  0.00    +0.000 C 
ATOM      3  C   UNL     1       0.537   9.061  19.595  0.00  0.00    +0.000 C 
ATOM      4  C   UNL     1       0.486   9.947  18.333  0.00  0.00    +0.000 C 
ATOM      5  S   UNL     1       0.915  11.601  18.816  0.00  0.00    +0.000 S 
ATOM      6  O   UNL     1      -0.102  12.496  18.306  0.00  0.00    +0.000 OA
ATOM      7  O   UNL     1       2.318  11.851  18.587  0.00  0.00    +0.000 OA
ENDROOT
BRANCH   3   8
ATOM      8  N   UNL     1       1.804   8.338  19.871  0.00  0.00    +0.000 NA
ATOM      9  C   UNL     1       1.679   7.258  20.883  0.00  0.00    +0.000 C 
ATOM     10  C   UNL     1       1.599   5.778  20.409  0.00  0.00    +0.000 C 
ATOM     11  N   UNL     1       2.396   5.394  19.235  0.00  0.00    +0.000 NA
ATOM     12  C   UNL     1       2.225   6.444  18.210  0.00  0.00    +0.000 C 
ATOM     13  C   UNL     1       2.561   7.869  18.699  0.00  0.00    +0.000 C 
BRANCH  11  14
ATOM     14  C   UNL     1       3.826   5.217  19.544  0.00  0.00    +0.000 C 
BRANCH  14  15
ATOM     15  C   UNL     1       4.788   5.169  18.369  0.00  0.00    +0.000 A 
ATOM     16  C   UNL     1       4.651   4.306  17.278  0.00  0.00    +0.000 A 
ATOM     17  C   UNL     1       5.519   4.399  16.188  0.00  0.00    +0.000 A 
ATOM     18  C   UNL     1       6.520   5.375  16.155  0.00  0.00    +0.000 A 
ATOM     19  C   UNL     1       6.664   6.261  17.226  0.00  0.00    +0.000 A 
ATOM     20  C   UNL     1       7.665   7.376  17.197  0.00  0.00    +0.000 C 
ATOM     21  C   UNL     1       5.801   6.145  18.323  0.00  0.00    +0.000 A 
ENDBRANCH  14  15
ENDBRANCH  11  14
ENDBRANCH   3   8
BRANCH   1  22
ATOM     22  C   UNL     1       0.336  12.475  21.334  0.00  0.00    +0.000 C 
BRANCH  22  27
ATOM     23  C   UNL     1      -5.272  12.905  22.854  0.00  0.00    +0.000 C 
ATOM     24  C   UNL     1      -3.838  12.722  22.460  0.00  0.00    +0.000 A 
ATOM     25  C   UNL     1      -2.900  12.188  23.350  0.00  0.00    +0.000 A 
ATOM     26  C   UNL     1      -1.552  12.108  22.991  0.00  0.00    +0.000 A 
ATOM     27  C   UNL     1      -1.120  12.554  21.734  0.00  0.00    +0.000 A 
ATOM     28  C   UNL     1      -2.069  13.059  20.838  0.00  0.00    +0.000 A 
ATOM     29  C   UNL     1      -3.414  13.141  21.196  0.00  0.00    +0.000 A 
ENDBRANCH  22  27
ENDBRANCH   1  22
TORSDOF 5
ENDMDL
MODEL 6
REMARK VINA RESULT:      -6.9      4.916      7.587
REMARK  Name = 
REMARK  7 active torsions:
REMARK  status: ('A' for Active; 'I' for Inactive)
REMARK    1  A    between atoms: C_1  and  C_2
REMARK    2  A    between atoms: C_5  and  C_6
REMARK    3  A    between atoms: C_6  and  N_7
REMARK    4  A    between atoms: C_9  and  N_10
REMARK    5  A    between atoms: N_13  and  C_14
REMARK    6  A    between atoms: C_14  and  C_15
REMARK    7  A    between atoms: C_19  and  C_20
REMARK                            x       y       z     vdW  Elec       q    Type
REMARK                         _______ _______ _______ _____ _____    ______ ____
ROOT
ATOM      1  N   UNL     1      -1.133  12.398  20.322  0.00  0.00    +0.000 NA
ATOM      2  C   UNL     1      -0.140  12.306  19.243  0.00  0.00    +0.000 C 
ATOM      3  C   UNL     1       0.907  11.213  19.643  0.00  0.00    +0.000 C 
ATOM      4  C   UNL     1       1.059  11.390  21.169  0.00  0.00    +0.000 C 
ATOM      5  S   UNL     1      -0.503  11.941  21.808  0.00  0.00    +0.000 S 
ATOM      6  O   UNL     1      -0.268  13.113  22.624  0.00  0.00    +0.000 OA
ATOM      7  O   UNL     1      -1.273  10.824  22.302  0.00  0.00    +0.000 OA
ENDROOT
BRANCH   3   8
ATOM      8  N   UNL     1       0.557   9.859  19.145  0.00  0.00    +0.000 NA
ATOM      9  C   UNL     1       1.200   9.502  17.854  0.00  0.00    +0.000 C 
ATOM     10  C   UNL     1       2.441   8.564  17.856  0.00  0.00    +0.000 C 
ATOM     11  N   UNL     1       2.474   7.479  18.848  0.00  0.00    +0.000 NA
ATOM     12  C   UNL     1       2.047   8.041  20.146  0.00  0.00    +0.000 C 
ATOM     13  C   UNL     1       0.678   8.754  20.109  0.00  0.00    +0.000 C 
BRANCH  11  14
ATOM     14  C   UNL     1       1.614   6.339  18.483  0.00  0.00    +0.000 C 
BRANCH  14  15
ATOM     15  C   UNL     1       2.304   5.022  18.176  0.00  0.00    +0.000 A 
ATOM     16  C   UNL     1       1.716   3.767  18.361  0.00  0.00    +0.000 A 
ATOM     17  C   UNL     1       2.379   2.607  17.955  0.00  0.00    +0.000 A 
ATOM     18  C   UNL     1       3.627   2.682  17.328  0.00  0.00    +0.000 A 
ATOM     19  C   UNL     1       4.226   3.927  17.115  0.00  0.00    +0.000 A 
ATOM     20  C   UNL     1       5.521   4.061  16.373  0.00  0.00    +0.000 C 
ATOM     21  C   UNL     1       3.561   5.082  17.546  0.00  0.00    +0.000 A 
ENDBRANCH  14  15
ENDBRANCH  11  14
ENDBRANCH   3   8
BRANCH   1  22
ATOM     22  C   UNL     1      -2.161  13.438  20.243  0.00  0.00    +0.000 C 
BRANCH  22  27
ATOM     23  C   UNL     1      -7.601  11.518  21.052  0.00  0.00    +0.000 C 
ATOM     24  C   UNL     1      -6.229  12.065  20.801  0.00  0.00    +0.000 A 
ATOM     25  C   UNL     1      -5.600  11.914  19.560  0.00  0.00    +0.000 A 
ATOM     26  C   UNL     1      -4.287  12.354  19.377  0.00  0.00    +0.000 A 
ATOM     27  C   UNL     1      -3.582  12.959  20.428  0.00  0.00    +0.000 A 
ATOM     28  C   UNL     1      -4.229  13.133  21.657  0.00  0.00    +0.000 A 
ATOM     29  C   UNL     1      -5.539  12.692  21.842  0.00  0.00    +0.000 A 
ENDBRANCH  22  27
ENDBRANCH   1  22
TORSDOF 5
ENDMDL
MODEL 7
REMARK VINA RESULT:      -6.9      2.753     10.123
REMARK  Name = 
REMARK  7 active torsions:
REMARK  status: ('A' for Active; 'I' for Inactive)
REMARK    1  A    between atoms: C_1  and  C_2
REMARK    2  A    between atoms: C_5  and  C_6
REMARK    3  A    between atoms: C_6  and  N_7
REMARK    4  A    between atoms: C_9  and  N_10
REMARK    5  A    between atoms: N_13  and  C_14
REMARK    6  A    between atoms: C_14  and  C_15
REMARK    7  A    between atoms: C_19  and  C_20
REMARK                            x       y       z     vdW  Elec       q    Type
REMARK                         _______ _______ _______ _____ _____    ______ ____
ROOT
ATOM      1  N   UNL     1       4.007   5.320  19.403  0.00  0.00    +0.000 NA
ATOM      2  C   UNL     1       3.546   6.409  18.530  0.00  0.00    +0.000 C 
ATOM      3  C   UNL     1       2.100   6.807  18.979  0.00  0.00    +0.000 C 
ATOM      4  C   UNL     1       1.454   5.462  19.374  0.00  0.00    +0.000 C 
ATOM      5  S   UNL     1       2.735   4.414  20.016  0.00  0.00    +0.000 S 
ATOM      6  O   UNL     1       2.662   3.141  19.330  0.00  0.00    +0.000 OA
ATOM      7  O   UNL     1       2.779   4.489  21.457  0.00  0.00    +0.000 OA
ENDROOT
BRANCH   3   8
ATOM      8  N   UNL     1       2.080   7.895  19.988  0.00  0.00    +0.000 NA
ATOM      9  C   UNL     1       1.787   9.239  19.427  0.00  0.00    +0.000 C 
ATOM     10  C   UNL     1       0.358   9.834  19.585  0.00  0.00    +0.000 C 
ATOM     11  N   UNL     1      -0.365   9.549  20.834  0.00  0.00    +0.000 NA
ATOM     12  C   UNL     1      -0.191   8.114  21.137  0.00  0.00    +0.000 C 
ATOM     13  C   UNL     1       1.281   7.652  21.200  0.00  0.00    +0.000 C 
BRANCH  11  14
ATOM     14  C   UNL     1       0.101  10.367  21.967  0.00  0.00    +0.000 C 
BRANCH  14  15
ATOM     15  C   UNL     1      -0.677  11.635  22.271  0.00  0.00    +0.000 A 
ATOM     16  C   UNL     1      -0.412  12.877  21.686  0.00  0.00    +0.000 A 
ATOM     17  C   UNL     1      -1.242  13.971  21.939  0.00  0.00    +0.000 A 
ATOM     18  C   UNL     1      -2.369  13.837  22.756  0.00  0.00    +0.000 A 
ATOM     19  C   UNL     1      -2.665  12.601  23.337  0.00  0.00    +0.000 A 
ATOM     20  C   UNL     1      -3.907  12.389  24.149  0.00  0.00    +0.000 C 
ATOM     21  C   UNL     1      -1.814  11.516  23.092  0.00  0.00    +0.000 A 
ENDBRANCH  14  15
ENDBRANCH  11  14
ENDBRANCH   3   8
BRANCH   1  22
ATOM     22  C   UNL     1       5.294   4.685  19.111  0.00  0.00    +0.000 C 
BRANCH  22  27
ATOM     23  C   UNL     1       6.483   4.053  13.443  0.00  0.00    +0.000 C 
ATOM     24  C   UNL     1       6.192   4.145  14.910  0.00  0.00    +0.000 A 
ATOM     25  C   UNL     1       5.036   3.580  15.460  0.00  0.00    +0.000 A 
ATOM     26  C   UNL     1       4.741   3.754  16.815  0.00  0.00    +0.000 A 
ATOM     27  C   UNL     1       5.601   4.488  17.645  0.00  0.00    +0.000 A 
ATOM     28  C   UNL     1       6.770   5.024  17.093  0.00  0.00    +0.000 A 
ATOM     29  C   UNL     1       7.064   4.854  15.741  0.00  0.00    +0.000 A 
ENDBRANCH  22  27
ENDBRANCH   1  22
TORSDOF 5
ENDMDL
MODEL 8
REMARK VINA RESULT:      -6.9      6.406      9.851
REMARK  Name = 
REMARK  7 active torsions:
REMARK  status: ('A' for Active; 'I' for Inactive)
REMARK    1  A    between atoms: C_1  and  C_2
REMARK    2  A    between atoms: C_5  and  C_6
REMARK    3  A    between atoms: C_6  and  N_7
REMARK    4  A    between atoms: C_9  and  N_10
REMARK    5  A    between atoms: N_13  and  C_14
REMARK    6  A    between atoms: C_14  and  C_15
REMARK    7  A    between atoms: C_19  and  C_20
REMARK                            x       y       z     vdW  Elec       q    Type
REMARK                         _______ _______ _______ _____ _____    ______ ____
ROOT
ATOM      1  N   UNL     1      -1.259  13.903  23.048  0.00  0.00    +0.000 NA
ATOM      2  C   UNL     1      -1.742  12.877  22.115  0.00  0.00    +0.000 C 
ATOM      3  C   UNL     1      -0.776  12.852  20.884  0.00  0.00    +0.000 C 
ATOM      4  C   UNL     1      -0.403  14.336  20.678  0.00  0.00    +0.000 C 
ATOM      5  S   UNL     1      -0.403  15.119  22.272  0.00  0.00    +0.000 S 
ATOM      6  O   UNL     1      -1.216  16.314  22.186  0.00  0.00    +0.000 OA
ATOM      7  O   UNL     1       0.931  15.156  22.821  0.00  0.00    +0.000 OA
ENDROOT
BRANCH   3   8
ATOM      8  N   UNL     1       0.339  11.883  21.035  0.00  0.00    +0.000 NA
ATOM      9  C   UNL     1       0.079  10.809  22.027  0.00  0.00    +0.000 C 
ATOM     10  C   UNL     1      -0.332   9.394  21.525  0.00  0.00    +0.000 C 
ATOM     11  N   UNL     1       0.279   8.908  20.279  0.00  0.00    +0.000 NA
ATOM     12  C   UNL     1       0.242  10.012  19.299  0.00  0.00    +0.000 C 
ATOM     13  C   UNL     1       0.893  11.322  19.792  0.00  0.00    +0.000 C 
BRANCH  11  14
ATOM     14  C   UNL     1       1.663   8.440  20.463  0.00  0.00    +0.000 C 
BRANCH  14  15
ATOM     15  C   UNL     1       2.014   7.076  19.894  0.00  0.00    +0.000 A 
ATOM     16  C   UNL     1       2.732   6.881  18.710  0.00  0.00    +0.000 A 
ATOM     17  C   UNL     1       3.104   5.596  18.311  0.00  0.00    +0.000 A 
ATOM     18  C   UNL     1       2.794   4.485  19.103  0.00  0.00    +0.000 A 
ATOM     19  C   UNL     1       2.093   4.658  20.300  0.00  0.00    +0.000 A 
ATOM     20  C   UNL     1       1.813   3.509  21.221  0.00  0.00    +0.000 C 
ATOM     21  C   UNL     1       1.706   5.949  20.679  0.00  0.00    +0.000 A 
ENDBRANCH  14  15
ENDBRANCH  11  14
ENDBRANCH   3   8
BRANCH   1  22
ATOM     22  C   UNL     1      -2.063  14.207  24.235  0.00  0.00    +0.000 C 
BRANCH  22  27
ATOM     23  C   UNL     1      -7.727  12.960  23.686  0.00  0.00    +0.000 C 
ATOM     24  C   UNL     1      -6.288  13.332  23.876  0.00  0.00    +0.000 A 
ATOM     25  C   UNL     1      -5.775  14.535  23.379  0.00  0.00    +0.000 A 
ATOM     26  C   UNL     1      -4.412  14.820  23.491  0.00  0.00    +0.000 A 
ATOM     27  C   UNL     1      -3.540  13.911  24.108  0.00  0.00    +0.000 A 
ATOM     28  C   UNL     1      -4.067  12.724  24.629  0.00  0.00    +0.000 A 
ATOM     29  C   UNL     1      -5.426  12.437  24.516  0.00  0.00    +0.000 A 
ENDBRANCH  22  27
ENDBRANCH   1  22
TORSDOF 5
ENDMDL
MODEL 9
REMARK VINA RESULT:      -6.8      6.694     10.023
REMARK  Name = 
REMARK  7 active torsions:
REMARK  status: ('A' for Active; 'I' for Inactive)
REMARK    1  A    between atoms: C_1  and  C_2
REMARK    2  A    between atoms: C_5  and  C_6
REMARK    3  A    between atoms: C_6  and  N_7
REMARK    4  A    between atoms: C_9  and  N_10
REMARK    5  A    between atoms: N_13  and  C_14
REMARK    6  A    between atoms: C_14  and  C_15
REMARK    7  A    between atoms: C_19  and  C_20
REMARK                            x       y       z     vdW  Elec       q    Type
REMARK                         _______ _______ _______ _____ _____    ______ ____
ROOT
ATOM      1  N   UNL     1       1.251  12.668  19.203  0.00  0.00    +0.000 NA
ATOM      2  C   UNL     1       1.962  13.309  18.089  0.00  0.00    +0.000 C 
ATOM      3  C   UNL     1       2.719  14.557  18.655  0.00  0.00    +0.000 C 
ATOM      4  C   UNL     1       1.754  15.121  19.720  0.00  0.00    +0.000 C 
ATOM      5  S   UNL     1       0.865  13.754  20.422  0.00  0.00    +0.000 S 
ATOM      6  O   UNL     1      -0.548  14.065  20.375  0.00  0.00    +0.000 OA
ATOM      7  O   UNL     1       1.497  13.309  21.642  0.00  0.00    +0.000 OA
ENDROOT
BRANCH   3   8
ATOM      8  N   UNL     1       4.107  14.254  19.084  0.00  0.00    +0.000 NA
ATOM      9  C   UNL     1       5.091  14.213  17.972  0.00  0.00    +0.000 C 
ATOM     10  C   UNL     1       6.031  15.433  17.743  0.00  0.00    +0.000 C 
ATOM     11  N   UNL     1       6.515  16.152  18.931  0.00  0.00    +0.000 NA
ATOM     12  C   UNL     1       5.368  16.342  19.842  0.00  0.00    +0.000 C 
ATOM     13  C   UNL     1       4.631  15.037  20.214  0.00  0.00    +0.000 C 
BRANCH  11  14
ATOM     14  C   UNL     1       7.604  15.445  19.627  0.00  0.00    +0.000 C 
BRANCH  14  15
ATOM     15  C   UNL     1       8.681  14.811  18.764  0.00  0.00    +0.000 A 
ATOM     16  C   UNL     1       9.702  15.527  18.131  0.00  0.00    +0.000 A 
ATOM     17  C   UNL     1      10.715  14.858  17.442  0.00  0.00    +0.000 A 
ATOM     18  C   UNL     1      10.744  13.460  17.399  0.00  0.00    +0.000 A 
ATOM     19  C   UNL     1       9.745  12.723  18.040  0.00  0.00    +0.000 A 
ATOM     20  C   UNL     1       9.782  11.225  18.092  0.00  0.00    +0.000 C 
ATOM     21  C   UNL     1       8.722  13.405  18.710  0.00  0.00    +0.000 A 
ENDBRANCH  14  15
ENDBRANCH  11  14
ENDBRANCH   3   8
BRANCH   1  22
ATOM     22  C   UNL     1       0.366  11.538  18.913  0.00  0.00    +0.000 C 
BRANCH  22  27
ATOM     23  C   UNL     1       2.897   6.315  19.419  0.00  0.00    +0.000 C 
ATOM     24  C   UNL     1       2.195   7.628  19.246  0.00  0.00    +0.000 A 
ATOM     25  C   UNL     1       2.243   8.325  18.034  0.00  0.00    +0.000 A 
ATOM     26  C   UNL     1       1.656   9.588  17.923  0.00  0.00    +0.000 A 
ATOM     27  C   UNL     1       1.004  10.172  19.019  0.00  0.00    +0.000 A 
ATOM     28  C   UNL     1       0.935   9.454  20.219  0.00  0.00    +0.000 A 
ATOM     29  C   UNL     1       1.522   8.196  20.331  0.00  0.00    +0.000 A 
ENDBRANCH  22  27
ENDBRANCH   1  22
TORSDOF 5
ENDMDL
