MODEL 1
REMARK VINA RESULT:      -8.8      0.000      0.000
REMARK  Name = 
REMARK  4 active torsions:
REMARK  status: ('A' for Active; 'I' for Inactive)
REMARK    1  A    between atoms: C_2  and  C_3
REMARK    2  A    between atoms: C_13  and  S_14
REMARK    3  A    between atoms: S_14  and  N_17
REMARK    4  A    between atoms: N_20  and  C_21
REMARK                            x       y       z     vdW  Elec       q    Type
REMARK                         _______ _______ _______ _____ _____    ______ ____
ROOT
ATOM      1  O   UNL     1       0.082  11.608  18.653  0.00  0.00    +0.000 OA
ATOM      2  C   UNL     1      -0.185  11.404  19.839  0.00  0.00    +0.000 C 
ATOM      3  N   UNL     1       0.381  10.377  20.577  0.00  0.00    +0.000 N 
ATOM      4  C   UNL     1       0.209  10.092  22.014  0.00  0.00    +0.000 C 
ATOM      5  C   UNL     1       1.158   8.925  22.350  0.00  0.00    +0.000 C 
ATOM      6  C   UNL     1       1.440   8.363  20.989  0.00  0.00    +0.000 A 
ATOM      7  C   UNL     1       2.057   7.160  20.646  0.00  0.00    +0.000 A 
ATOM      8  C   UNL     1       2.256   6.877  19.282  0.00  0.00    +0.000 A 
ATOM      9  C   UNL     1       1.928   7.829  18.306  0.00  0.00    +0.000 A 
ATOM     10  C   UNL     1       1.319   9.031  18.666  0.00  0.00    +0.000 A 
ATOM     11  C   UNL     1       1.059   9.279  20.003  0.00  0.00    +0.000 A 
ENDROOT
BRANCH   2  12
ATOM     12  C   UNL     1      -1.176  12.320  20.548  0.00  0.00    +0.000 C 
ATOM     13  C   UNL     1      -0.854  13.794  20.338  0.00  0.00    +0.000 C 
ATOM     14  C   UNL     1      -2.171  14.505  20.629  0.00  0.00    +0.000 C 
ATOM     15  C   UNL     1      -3.274  13.526  20.239  0.00  0.00    +0.000 C 
ATOM     16  C   UNL     1      -2.581  12.205  19.936  0.00  0.00    +0.000 C 
ENDBRANCH   2  12
BRANCH   8  17
ATOM     17  S   UNL     1       3.115   5.397  18.762  0.00  0.00    +0.000 S 
ATOM     18  O   UNL     1       3.241   4.557  19.931  0.00  0.00    +0.000 OA
ATOM     19  O   UNL     1       2.438   4.922  17.576  0.00  0.00    +0.000 OA
BRANCH  17  20
ATOM     20  N   UNL     1       4.665   5.871  18.305  0.00  0.00    +0.000 NA
ATOM     21  C   UNL     1       5.770   4.887  18.274  0.00  0.00    +0.000 C 
ATOM     22  C   UNL     1       5.921   4.260  16.881  0.00  0.00    +0.000 C 
ATOM     23  N   UNL     1       6.068   5.298  15.841  0.00  0.00    +0.000 N 
ATOM     24  C   UNL     1       5.085   6.414  15.888  0.00  0.00    +0.000 C 
ATOM     25  C   UNL     1       4.873   6.953  17.314  0.00  0.00    +0.000 C 
BRANCH  23  26
ATOM     26  C   UNL     1       6.409   4.892  14.542  0.00  0.00    +0.000 A 
ATOM     27  C   UNL     1       7.550   5.446  13.935  0.00  0.00    +0.000 A 
ATOM     28  C   UNL     1       7.968   5.073  12.656  0.00  0.00    +0.000 A 
ATOM     29  C   UNL     1       7.243   4.124  11.944  0.00  0.00    +0.000 A 
ATOM     30  C   UNL     1       6.110   3.558  12.523  0.00  0.00    +0.000 A 
ATOM     31 CL   UNL     1       5.209   2.384  11.639  0.00  0.00    +0.000 Cl
ATOM     32  C   UNL     1       5.698   3.930  13.808  0.00  0.00    +0.000 A 
ENDBRANCH  23  26
ENDBRANCH  17  20
ENDBRANCH   8  17
TORSDOF 4
ENDMDL
MODEL 2
REMARK VINA RESULT:      -8.6      4.563     10.747
REMARK  Name = 
REMARK  4 active torsions:
REMARK  status: ('A' for Active; 'I' for Inactive)
REMARK    1  A    between atoms: C_2  and  C_3
REMARK    2  A    between atoms: C_13  and  S_14
REMARK    3  A    between atoms: S_14  and  N_17
REMARK    4  A    between atoms: N_20  and  C_21
REMARK                            x       y       z     vdW  Elec       q    Type
REMARK                         _______ _______ _______ _____ _____    ______ ____
ROOT
ATOM      1  O   UNL     1       2.415   5.974  20.423  0.00  0.00    +0.000 OA
ATOM      2  C   UNL     1       2.463   6.419  19.275  0.00  0.00    +0.000 C 
ATOM      3  N   UNL     1       2.162   7.734  18.957  0.00  0.00    +0.000 N 
ATOM      4  C   UNL     1       2.272   8.397  17.645  0.00  0.00    +0.000 C 
ATOM      5  C   UNL     1       1.941   9.885  17.873  0.00  0.00    +0.000 C 
ATOM      6  C   UNL     1       1.237   9.839  19.196  0.00  0.00    +0.000 A 
ATOM      7  C   UNL     1       0.501  10.838  19.835  0.00  0.00    +0.000 A 
ATOM      8  C   UNL     1      -0.025  10.566  21.111  0.00  0.00    +0.000 A 
ATOM      9  C   UNL     1       0.271   9.356  21.757  0.00  0.00    +0.000 A 
ATOM     10  C   UNL     1       1.016   8.371  21.108  0.00  0.00    +0.000 A 
ATOM     11  C   UNL     1       1.473   8.612  19.823  0.00  0.00    +0.000 A 
ENDROOT
BRANCH   2  12
ATOM     12  C   UNL     1       2.882   5.496  18.135  0.00  0.00    +0.000 C 
ATOM     13  C   UNL     1       4.271   4.908  18.348  0.00  0.00    +0.000 C 
ATOM     14  C   UNL     1       4.289   3.670  17.459  0.00  0.00    +0.000 C 
ATOM     15  C   UNL     1       2.849   3.169  17.405  0.00  0.00    +0.000 C 
ATOM     16  C   UNL     1       2.002   4.238  18.082  0.00  0.00    +0.000 C 
ENDBRANCH   2  12
BRANCH   8  17
ATOM     17  S   UNL     1      -0.907  11.820  22.033  0.00  0.00    +0.000 S 
ATOM     18  O   UNL     1      -2.094  12.136  21.272  0.00  0.00    +0.000 OA
ATOM     19  O   UNL     1      -1.002  11.340  23.394  0.00  0.00    +0.000 OA
BRANCH  17  20
ATOM     20  N   UNL     1       0.072  13.190  22.046  0.00  0.00    +0.000 NA
ATOM     21  C   UNL     1       1.032  13.435  20.947  0.00  0.00    +0.000 C 
ATOM     22  C   UNL     1       0.411  14.308  19.848  0.00  0.00    +0.000 C 
ATOM     23  N   UNL     1      -0.133  15.563  20.404  0.00  0.00    +0.000 N 
ATOM     24  C   UNL     1      -0.994  15.424  21.610  0.00  0.00    +0.000 C 
ATOM     25  C   UNL     1      -0.398  14.459  22.651  0.00  0.00    +0.000 C 
BRANCH  23  26
ATOM     26  C   UNL     1      -0.560  16.555  19.510  0.00  0.00    +0.000 A 
ATOM     27  C   UNL     1      -1.792  17.194  19.742  0.00  0.00    +0.000 A 
ATOM     28  C   UNL     1      -2.272  18.208  18.912  0.00  0.00    +0.000 A 
ATOM     29  C   UNL     1      -1.521  18.613  17.813  0.00  0.00    +0.000 A 
ATOM     30  C   UNL     1      -0.298  17.999  17.562  0.00  0.00    +0.000 A 
ATOM     31 CL   UNL     1       0.632  18.498  16.199  0.00  0.00    +0.000 Cl
ATOM     32  C   UNL     1       0.184  16.987  18.401  0.00  0.00    +0.000 A 
ENDBRANCH  23  26
ENDBRANCH  17  20
ENDBRANCH   8  17
TORSDOF 4
ENDMDL
MODEL 3
REMARK VINA RESULT:      -8.6      1.352      2.083
REMARK  Name = 
REMARK  4 active torsions:
REMARK  status: ('A' for Active; 'I' for Inactive)
REMARK    1  A    between atoms: C_2  and  C_3
REMARK    2  A    between atoms: C_13  and  S_14
REMARK    3  A    between atoms: S_14  and  N_17
REMARK    4  A    between atoms: N_20  and  C_21
REMARK                            x       y       z     vdW  Elec       q    Type
REMARK                         _______ _______ _______ _____ _____    ______ ____
ROOT
ATOM      1  O   UNL     1       0.566  10.772  22.338  0.00  0.00    +0.000 OA
ATOM      2  C   UNL     1       0.506  11.343  21.247  0.00  0.00    +0.000 C 
ATOM      3  N   UNL     1       0.647  10.684  20.037  0.00  0.00    +0.000 N 
ATOM      4  C   UNL     1       0.505  11.241  18.678  0.00  0.00    +0.000 C 
ATOM      5  C   UNL     1       0.632  10.058  17.699  0.00  0.00    +0.000 C 
ATOM      6  C   UNL     1       1.284   9.019  18.563  0.00  0.00    +0.000 A 
ATOM      7  C   UNL     1       1.861   7.804  18.193  0.00  0.00    +0.000 A 
ATOM      8  C   UNL     1       2.367   6.970  19.205  0.00  0.00    +0.000 A 
ATOM      9  C   UNL     1       2.204   7.314  20.555  0.00  0.00    +0.000 A 
ATOM     10  C   UNL     1       1.618   8.529  20.910  0.00  0.00    +0.000 A 
ATOM     11  C   UNL     1       1.184   9.384  19.909  0.00  0.00    +0.000 A 
ENDROOT
BRANCH   2  12
ATOM     12  C   UNL     1       0.253  12.846  21.206  0.00  0.00    +0.000 C 
ATOM     13  C   UNL     1      -0.502  13.340  22.433  0.00  0.00    +0.000 C 
ATOM     14  C   UNL     1      -0.193  14.832  22.483  0.00  0.00    +0.000 C 
ATOM     15  C   UNL     1       1.196  14.995  21.874  0.00  0.00    +0.000 C 
ATOM     16  C   UNL     1       1.568  13.637  21.296  0.00  0.00    +0.000 C 
ENDBRANCH   2  12
BRANCH   8  17
ATOM     17  S   UNL     1       3.043   5.359  18.822  0.00  0.00    +0.000 S 
ATOM     18  O   UNL     1       2.968   4.578  20.035  0.00  0.00    +0.000 OA
ATOM     19  O   UNL     1       2.390   4.915  17.611  0.00  0.00    +0.000 OA
BRANCH  17  20
ATOM     20  N   UNL     1       4.672   5.588  18.464  0.00  0.00    +0.000 NA
ATOM     21  C   UNL     1       5.581   4.428  18.332  0.00  0.00    +0.000 C 
ATOM     22  C   UNL     1       5.678   3.958  16.874  0.00  0.00    +0.000 C 
ATOM     23  N   UNL     1       6.059   5.069  15.978  0.00  0.00    +0.000 N 
ATOM     24  C   UNL     1       5.293   6.333  16.145  0.00  0.00    +0.000 C 
ATOM     25  C   UNL     1       5.118   6.725  17.623  0.00  0.00    +0.000 C 
BRANCH  23  26
ATOM     26  C   UNL     1       6.378   4.767  14.646  0.00  0.00    +0.000 A 
ATOM     27  C   UNL     1       7.441   5.453  14.031  0.00  0.00    +0.000 A 
ATOM     28  C   UNL     1       7.835   5.189  12.718  0.00  0.00    +0.000 A 
ATOM     29  C   UNL     1       7.166   4.220  11.978  0.00  0.00    +0.000 A 
ATOM     30  C   UNL     1       6.112   3.526  12.564  0.00  0.00    +0.000 A 
ATOM     31 CL   UNL     1       5.279   2.326  11.647  0.00  0.00    +0.000 Cl
ATOM     32  C   UNL     1       5.723   3.787  13.883  0.00  0.00    +0.000 A 
ENDBRANCH  23  26
ENDBRANCH  17  20
ENDBRANCH   8  17
TORSDOF 4
ENDMDL
MODEL 4
REMARK VINA RESULT:      -8.4      5.154     10.800
REMARK  Name = 
REMARK  4 active torsions:
REMARK  status: ('A' for Active; 'I' for Inactive)
REMARK    1  A    between atoms: C_2  and  C_3
REMARK    2  A    between atoms: C_13  and  S_14
REMARK    3  A    between atoms: S_14  and  N_17
REMARK    4  A    between atoms: N_20  and  C_21
REMARK                            x       y       z     vdW  Elec       q    Type
REMARK                         _______ _______ _______ _____ _____    ______ ____
ROOT
ATOM      1  O   UNL     1       1.910   5.395  21.086  0.00  0.00    +0.000 OA
ATOM      2  C   UNL     1       2.042   5.535  19.869  0.00  0.00    +0.000 C 
ATOM      3  N   UNL     1       2.114   6.773  19.251  0.00  0.00    +0.000 N 
ATOM      4  C   UNL     1       2.361   7.062  17.826  0.00  0.00    +0.000 C 
ATOM      5  C   UNL     1       2.472   8.594  17.698  0.00  0.00    +0.000 C 
ATOM      6  C   UNL     1       1.829   9.051  18.974  0.00  0.00    +0.000 A 
ATOM      7  C   UNL     1       1.427  10.335  19.345  0.00  0.00    +0.000 A 
ATOM      8  C   UNL     1       0.890  10.520  20.631  0.00  0.00    +0.000 A 
ATOM      9  C   UNL     1       0.855   9.456  21.544  0.00  0.00    +0.000 A 
ATOM     10  C   UNL     1       1.268   8.180  21.161  0.00  0.00    +0.000 A 
ATOM     11  C   UNL     1       1.731   7.983  19.871  0.00  0.00    +0.000 A 
ENDROOT
BRANCH   2  12
ATOM     12  C   UNL     1       2.145   4.298  18.984  0.00  0.00    +0.000 C 
ATOM     13  C   UNL     1       3.467   3.564  19.165  0.00  0.00    +0.000 C 
ATOM     14  C   UNL     1       3.181   2.155  18.658  0.00  0.00    +0.000 C 
ATOM     15  C   UNL     1       1.703   1.899  18.936  0.00  0.00    +0.000 C 
ATOM     16  C   UNL     1       1.121   3.228  19.396  0.00  0.00    +0.000 C 
ENDBRANCH   2  12
BRANCH   8  17
ATOM     17  S   UNL     1       0.430  12.147  21.214  0.00  0.00    +0.000 S 
ATOM     18  O   UNL     1      -0.401  11.952  22.379  0.00  0.00    +0.000 OA
ATOM     19  O   UNL     1       1.653  12.917  21.294  0.00  0.00    +0.000 OA
BRANCH  17  20
ATOM     20  N   UNL     1      -0.526  12.841  20.014  0.00  0.00    +0.000 NA
ATOM     21  C   UNL     1      -1.006  12.027  18.875  0.00  0.00    +0.000 C 
ATOM     22  C   UNL     1      -2.392  11.433  19.160  0.00  0.00    +0.000 C 
ATOM     23  N   UNL     1      -3.358  12.484  19.540  0.00  0.00    +0.000 N 
ATOM     24  C   UNL     1      -2.899  13.446  20.578  0.00  0.00    +0.000 C 
ATOM     25  C   UNL     1      -1.464  13.945  20.327  0.00  0.00    +0.000 C 
BRANCH  23  26
ATOM     26  C   UNL     1      -4.712  12.136  19.644  0.00  0.00    +0.000 A 
ATOM     27  C   UNL     1      -5.325  11.467  18.569  0.00  0.00    +0.000 A 
ATOM     28  C   UNL     1      -6.662  11.065  18.609  0.00  0.00    +0.000 A 
ATOM     29  C   UNL     1      -7.427  11.325  19.740  0.00  0.00    +0.000 A 
ATOM     30  C   UNL     1      -6.844  11.984  20.819  0.00  0.00    +0.000 A 
ATOM     31 CL   UNL     1      -7.793  12.310  22.220  0.00  0.00    +0.000 Cl
ATOM     32  C   UNL     1      -5.502  12.380  20.779  0.00  0.00    +0.000 A 
ENDBRANCH  23  26
ENDBRANCH  17  20
ENDBRANCH   8  17
TORSDOF 4
ENDMDL
MODEL 5
REMARK VINA RESULT:      -8.2      1.061      1.709
REMARK  Name = 
REMARK  4 active torsions:
REMARK  status: ('A' for Active; 'I' for Inactive)
REMARK    1  A    between atoms: C_2  and  C_3
REMARK    2  A    between atoms: C_13  and  S_14
REMARK    3  A    between atoms: S_14  and  N_17
REMARK    4  A    between atoms: N_20  and  C_21
REMARK                            x       y       z     vdW  Elec       q    Type
REMARK                         _______ _______ _______ _____ _____    ______ ____
ROOT
ATOM      1  O   UNL     1      -0.673   9.378  22.234  0.00  0.00    +0.000 OA
ATOM      2  C   UNL     1      -0.352  10.221  21.394  0.00  0.00    +0.000 C 
ATOM      3  N   UNL     1       0.315   9.906  20.221  0.00  0.00    +0.000 N 
ATOM      4  C   UNL     1       0.668  10.807  19.108  0.00  0.00    +0.000 C 
ATOM      5  C   UNL     1       1.279   9.925  18.002  0.00  0.00    +0.000 C 
ATOM      6  C   UNL     1       1.632   8.683  18.764  0.00  0.00    +0.000 A 
ATOM      7  C   UNL     1       2.416   7.600  18.367  0.00  0.00    +0.000 A 
ATOM      8  C   UNL     1       2.558   6.517  19.253  0.00  0.00    +0.000 A 
ATOM      9  C   UNL     1       1.845   6.493  20.461  0.00  0.00    +0.000 A 
ATOM     10  C   UNL     1       1.058   7.579  20.841  0.00  0.00    +0.000 A 
ATOM     11  C   UNL     1       0.976   8.677  20.000  0.00  0.00    +0.000 A 
ENDROOT
BRANCH   2  12
ATOM     12  C   UNL     1      -0.705  11.685  21.633  0.00  0.00    +0.000 C 
ATOM     13  C   UNL     1       0.477  12.613  21.386  0.00  0.00    +0.000 C 
ATOM     14  C   UNL     1      -0.165  13.975  21.147  0.00  0.00    +0.000 C 
ATOM     15  C   UNL     1      -1.527  13.694  20.520  0.00  0.00    +0.000 C 
ATOM     16  C   UNL     1      -1.732  12.187  20.606  0.00  0.00    +0.000 C 
ENDBRANCH   2  12
BRANCH   8  17
ATOM     17  S   UNL     1       3.475   5.055  18.786  0.00  0.00    +0.000 S 
ATOM     18  O   UNL     1       3.653   4.274  19.988  0.00  0.00    +0.000 OA
ATOM     19  O   UNL     1       2.805   4.500  17.631  0.00  0.00    +0.000 OA
BRANCH  17  20
ATOM     20  N   UNL     1       4.997   5.576  18.286  0.00  0.00    +0.000 NA
ATOM     21  C   UNL     1       6.114   4.613  18.162  0.00  0.00    +0.000 C 
ATOM     22  C   UNL     1       6.213   4.054  16.736  0.00  0.00    +0.000 C 
ATOM     23  N   UNL     1       6.301   5.142  15.740  0.00  0.00    +0.000 N 
ATOM     24  C   UNL     1       5.304   6.237  15.881  0.00  0.00    +0.000 C 
ATOM     25  C   UNL     1       5.146   6.706  17.339  0.00  0.00    +0.000 C 
BRANCH  23  26
ATOM     26  C   UNL     1       6.591   4.802  14.410  0.00  0.00    +0.000 A 
ATOM     27  C   UNL     1       7.594   5.516  13.731  0.00  0.00    +0.000 A 
ATOM     28  C   UNL     1       7.958   5.219  12.416  0.00  0.00    +0.000 A 
ATOM     29  C   UNL     1       7.316   4.187  11.740  0.00  0.00    +0.000 A 
ATOM     30  C   UNL     1       6.320   3.464  12.390  0.00  0.00    +0.000 A 
ATOM     31 CL   UNL     1       5.522   2.187  11.551  0.00  0.00    +0.000 Cl
ATOM     32  C   UNL     1       5.963   3.759  13.711  0.00  0.00    +0.000 A 
ENDBRANCH  23  26
ENDBRANCH  17  20
ENDBRANCH   8  17
TORSDOF 4
ENDMDL
MODEL 6
REMARK VINA RESULT:      -8.2      1.557      1.746
REMARK  Name = 
REMARK  4 active torsions:
REMARK  status: ('A' for Active; 'I' for Inactive)
REMARK    1  A    between atoms: C_2  and  C_3
REMARK    2  A    between atoms: C_13  and  S_14
REMARK    3  A    between atoms: S_14  and  N_17
REMARK    4  A    between atoms: N_20  and  C_21
REMARK                            x       y       z     vdW  Elec       q    Type
REMARK                         _______ _______ _______ _____ _____    ______ ____
ROOT
ATOM      1  O   UNL     1       2.026  11.429  18.105  0.00  0.00    +0.000 OA
ATOM      2  C   UNL     1       1.425  11.527  19.177  0.00  0.00    +0.000 C 
ATOM      3  N   UNL     1       1.314  10.484  20.082  0.00  0.00    +0.000 N 
ATOM      4  C   UNL     1       0.703  10.509  21.424  0.00  0.00    +0.000 C 
ATOM      5  C   UNL     1       0.962   9.126  22.054  0.00  0.00    +0.000 C 
ATOM      6  C   UNL     1       1.294   8.301  20.846  0.00  0.00    +0.000 A 
ATOM      7  C   UNL     1       1.408   6.915  20.733  0.00  0.00    +0.000 A 
ATOM      8  C   UNL     1       1.785   6.376  19.489  0.00  0.00    +0.000 A 
ATOM      9  C   UNL     1       2.131   7.222  18.425  0.00  0.00    +0.000 A 
ATOM     10  C   UNL     1       2.020   8.607  18.557  0.00  0.00    +0.000 A 
ATOM     11  C   UNL     1       1.579   9.134  19.760  0.00  0.00    +0.000 A 
ENDROOT
BRANCH   2  12
ATOM     12  C   UNL     1       0.776  12.856  19.549  0.00  0.00    +0.000 C 
ATOM     13  C   UNL     1       1.780  14.000  19.586  0.00  0.00    +0.000 C 
ATOM     14  C   UNL     1       0.922  15.251  19.435  0.00  0.00    +0.000 C 
ATOM     15  C   UNL     1      -0.283  14.836  18.597  0.00  0.00    +0.000 C 
ATOM     16  C   UNL     1      -0.206  13.322  18.463  0.00  0.00    +0.000 C 
ENDBRANCH   2  12
BRANCH   8  17
ATOM     17  S   UNL     1       2.037   4.617  19.284  0.00  0.00    +0.000 S 
ATOM     18  O   UNL     1       1.559   3.986  20.492  0.00  0.00    +0.000 OA
ATOM     19  O   UNL     1       1.482   4.269  17.994  0.00  0.00    +0.000 OA
BRANCH  17  20
ATOM     20  N   UNL     1       3.700   4.371  19.203  0.00  0.00    +0.000 NA
ATOM     21  C   UNL     1       4.244   3.083  18.717  0.00  0.00    +0.000 C 
ATOM     22  C   UNL     1       4.521   3.128  17.208  0.00  0.00    +0.000 C 
ATOM     23  N   UNL     1       5.392   4.268  16.858  0.00  0.00    +0.000 N 
ATOM     24  C   UNL     1       5.004   5.585  17.430  0.00  0.00    +0.000 C 
ATOM     25  C   UNL     1       4.627   5.492  18.920  0.00  0.00    +0.000 C 
BRANCH  23  26
ATOM     26  C   UNL     1       5.898   4.341  15.552  0.00  0.00    +0.000 A 
ATOM     27  C   UNL     1       7.064   5.090  15.316  0.00  0.00    +0.000 A 
ATOM     28  C   UNL     1       7.642   5.187  14.049  0.00  0.00    +0.000 A 
ATOM     29  C   UNL     1       7.058   4.529  12.972  0.00  0.00    +0.000 A 
ATOM     30  C   UNL     1       5.904   3.778  13.179  0.00  0.00    +0.000 A 
ATOM     31 CL   UNL     1       5.178   2.964  11.844  0.00  0.00    +0.000 Cl
ATOM     32  C   UNL     1       5.331   3.677  14.452  0.00  0.00    +0.000 A 
ENDBRANCH  23  26
ENDBRANCH  17  20
ENDBRANCH   8  17
TORSDOF 4
ENDMDL
MODEL 7
REMARK VINA RESULT:      -8.1      4.282     10.799
REMARK  Name = 
REMARK  4 active torsions:
REMARK  status: ('A' for Active; 'I' for Inactive)
REMARK    1  A    between atoms: C_2  and  C_3
REMARK    2  A    between atoms: C_13  and  S_14
REMARK    3  A    between atoms: S_14  and  N_17
REMARK    4  A    between atoms: N_20  and  C_21
REMARK                            x       y       z     vdW  Elec       q    Type
REMARK                         _______ _______ _______ _____ _____    ______ ____
ROOT
ATOM      1  O   UNL     1       4.170   7.326  16.067  0.00  0.00    +0.000 OA
ATOM      2  C   UNL     1       4.308   6.463  16.936  0.00  0.00    +0.000 C 
ATOM      3  N   UNL     1       3.540   6.418  18.089  0.00  0.00    +0.000 N 
ATOM      4  C   UNL     1       3.552   5.390  19.147  0.00  0.00    +0.000 C 
ATOM      5  C   UNL     1       2.418   5.751  20.126  0.00  0.00    +0.000 C 
ATOM      6  C   UNL     1       2.167   7.189  19.782  0.00  0.00    +0.000 A 
ATOM      7  C   UNL     1       1.409   8.137  20.469  0.00  0.00    +0.000 A 
ATOM      8  C   UNL     1       1.281   9.422  19.910  0.00  0.00    +0.000 A 
ATOM      9  C   UNL     1       1.822   9.702  18.647  0.00  0.00    +0.000 A 
ATOM     10  C   UNL     1       2.570   8.740  17.968  0.00  0.00    +0.000 A 
ATOM     11  C   UNL     1       2.756   7.498  18.552  0.00  0.00    +0.000 A 
ENDROOT
BRANCH   2  12
ATOM     12  C   UNL     1       5.363   5.378  16.749  0.00  0.00    +0.000 C 
ATOM     13  C   UNL     1       4.862   4.226  15.887  0.00  0.00    +0.000 C 
ATOM     14  C   UNL     1       6.136   3.559  15.383  0.00  0.00    +0.000 C 
ATOM     15  C   UNL     1       7.182   4.666  15.287  0.00  0.00    +0.000 C 
ATOM     16  C   UNL     1       6.558   5.896  15.934  0.00  0.00    +0.000 C 
ENDBRANCH   2  12
BRANCH   8  17
ATOM     17  S   UNL     1       0.258  10.668  20.684  0.00  0.00    +0.000 S 
ATOM     18  O   UNL     1      -0.792   9.966  21.386  0.00  0.00    +0.000 OA
ATOM     19  O   UNL     1       1.154  11.559  21.387  0.00  0.00    +0.000 OA
BRANCH  17  20
ATOM     20  N   UNL     1      -0.459  11.548  19.441  0.00  0.00    +0.000 NA
ATOM     21  C   UNL     1      -1.137  10.852  18.325  0.00  0.00    +0.000 C 
ATOM     22  C   UNL     1      -2.636  10.677  18.605  0.00  0.00    +0.000 C 
ATOM     23  N   UNL     1      -3.275  11.969  18.927  0.00  0.00    +0.000 N 
ATOM     24  C   UNL     1      -2.576  12.809  19.936  0.00  0.00    +0.000 C 
ATOM     25  C   UNL     1      -1.058  12.881  19.694  0.00  0.00    +0.000 C 
BRANCH  23  26
ATOM     26  C   UNL     1      -4.674  12.013  19.018  0.00  0.00    +0.000 A 
ATOM     27  C   UNL     1      -5.435  11.152  18.207  0.00  0.00    +0.000 A 
ATOM     28  C   UNL     1      -6.829  11.119  18.261  0.00  0.00    +0.000 A 
ATOM     29  C   UNL     1      -7.506  11.959  19.137  0.00  0.00    +0.000 A 
ATOM     30  C   UNL     1      -6.777  12.821  19.952  0.00  0.00    +0.000 A 
ATOM     31 CL   UNL     1      -7.615  13.866  21.037  0.00  0.00    +0.000 Cl
ATOM     32  C   UNL     1      -5.378  12.847  19.901  0.00  0.00    +0.000 A 
ENDBRANCH  23  26
ENDBRANCH  17  20
ENDBRANCH   8  17
TORSDOF 4
ENDMDL
MODEL 8
REMARK VINA RESULT:      -8.0      1.709      2.441
REMARK  Name = 
REMARK  4 active torsions:
REMARK  status: ('A' for Active; 'I' for Inactive)
REMARK    1  A    between atoms: C_2  and  C_3
REMARK    2  A    between atoms: C_13  and  S_14
REMARK    3  A    between atoms: S_14  and  N_17
REMARK    4  A    between atoms: N_20  and  C_21
REMARK                            x       y       z     vdW  Elec       q    Type
REMARK                         _______ _______ _______ _____ _____    ______ ____
ROOT
ATOM      1  O   UNL     1       0.478  11.183  21.606  0.00  0.00    +0.000 OA
ATOM      2  C   UNL     1       0.984  11.506  20.530  0.00  0.00    +0.000 C 
ATOM      3  N   UNL     1       1.320  10.591  19.545  0.00  0.00    +0.000 N 
ATOM      4  C   UNL     1       1.842  10.866  18.193  0.00  0.00    +0.000 C 
ATOM      5  C   UNL     1       1.920   9.509  17.465  0.00  0.00    +0.000 C 
ATOM      6  C   UNL     1       1.867   8.546  18.614  0.00  0.00    +0.000 A 
ATOM      7  C   UNL     1       2.120   7.174  18.623  0.00  0.00    +0.000 A 
ATOM      8  C   UNL     1       1.952   6.473  19.830  0.00  0.00    +0.000 A 
ATOM      9  C   UNL     1       1.448   7.126  20.965  0.00  0.00    +0.000 A 
ATOM     10  C   UNL     1       1.192   8.496  20.938  0.00  0.00    +0.000 A 
ATOM     11  C   UNL     1       1.427   9.201  19.768  0.00  0.00    +0.000 A 
ENDROOT
BRANCH   2  12
ATOM     12  C   UNL     1       1.251  12.980  20.245  0.00  0.00    +0.000 C 
ATOM     13  C   UNL     1       0.164  13.609  19.383  0.00  0.00    +0.000 C 
ATOM     14  C   UNL     1       0.299  15.104  19.651  0.00  0.00    +0.000 C 
ATOM     15  C   UNL     1       0.819  15.231  21.079  0.00  0.00    +0.000 C 
ATOM     16  C   UNL     1       1.175  13.821  21.528  0.00  0.00    +0.000 C 
ENDBRANCH   2  12
BRANCH   8  17
ATOM     17  S   UNL     1       2.172   4.699  19.906  0.00  0.00    +0.000 S 
ATOM     18  O   UNL     1       1.785   4.289  21.236  0.00  0.00    +0.000 OA
ATOM     19  O   UNL     1       1.515   4.152  18.739  0.00  0.00    +0.000 OA
BRANCH  17  20
ATOM     20  N   UNL     1       3.822   4.407  19.741  0.00  0.00    +0.000 NA
ATOM     21  C   UNL     1       4.303   3.120  19.191  0.00  0.00    +0.000 C 
ATOM     22  C   UNL     1       4.514   3.206  17.673  0.00  0.00    +0.000 C 
ATOM     23  N   UNL     1       5.403   4.331  17.320  0.00  0.00    +0.000 N 
ATOM     24  C   UNL     1       5.082   5.640  17.950  0.00  0.00    +0.000 C 
ATOM     25  C   UNL     1       4.769   5.510  19.452  0.00  0.00    +0.000 C 
BRANCH  23  26
ATOM     26  C   UNL     1       5.852   4.432  15.995  0.00  0.00    +0.000 A 
ATOM     27  C   UNL     1       7.076   5.077  15.739  0.00  0.00    +0.000 A 
ATOM     28  C   UNL     1       7.600   5.192  14.451  0.00  0.00    +0.000 A 
ATOM     29  C   UNL     1       6.904   4.659  13.372  0.00  0.00    +0.000 A 
ATOM     30  C   UNL     1       5.691   4.014  13.598  0.00  0.00    +0.000 A 
ATOM     31 CL   UNL     1       4.826   3.355  12.261  0.00  0.00    +0.000 Cl
ATOM     32  C   UNL     1       5.171   3.893  14.892  0.00  0.00    +0.000 A 
ENDBRANCH  23  26
ENDBRANCH  17  20
ENDBRANCH   8  17
TORSDOF 4
ENDMDL
MODEL 9
REMARK VINA RESULT:      -8.0      1.492      1.766
REMARK  Name = 
REMARK  4 active torsions:
REMARK  status: ('A' for Active; 'I' for Inactive)
REMARK    1  A    between atoms: C_2  and  C_3
REMARK    2  A    between atoms: C_13  and  S_14
REMARK    3  A    between atoms: S_14  and  N_17
REMARK    4  A    between atoms: N_20  and  C_21
REMARK                            x       y       z     vdW  Elec       q    Type
REMARK                         _______ _______ _______ _____ _____    ______ ____
ROOT
ATOM      1  O   UNL     1       1.360  11.798  18.485  0.00  0.00    +0.000 OA
ATOM      2  C   UNL     1       0.844  11.700  19.600  0.00  0.00    +0.000 C 
ATOM      3  N   UNL     1       0.945  10.563  20.385  0.00  0.00    +0.000 N 
ATOM      4  C   UNL     1       0.450  10.364  21.760  0.00  0.00    +0.000 C 
ATOM      5  C   UNL     1       0.939   8.974  22.209  0.00  0.00    +0.000 C 
ATOM      6  C   UNL     1       1.273   8.332  20.896  0.00  0.00    +0.000 A 
ATOM      7  C   UNL     1       1.557   6.994  20.618  0.00  0.00    +0.000 A 
ATOM      8  C   UNL     1       1.896   6.644  19.298  0.00  0.00    +0.000 A 
ATOM      9  C   UNL     1       2.038   7.636  18.316  0.00  0.00    +0.000 A 
ATOM     10  C   UNL     1       1.759   8.970  18.612  0.00  0.00    +0.000 A 
ATOM     11  C   UNL     1       1.356   9.305  19.894  0.00  0.00    +0.000 A 
ENDROOT
BRANCH   2  12
ATOM     12  C   UNL     1       0.060  12.880  20.164  0.00  0.00    +0.000 C 
ATOM     13  C   UNL     1       0.925  13.790  21.027  0.00  0.00    +0.000 C 
ATOM     14  C   UNL     1       0.169  15.114  21.042  0.00  0.00    +0.000 C 
ATOM     15  C   UNL     1      -0.569  15.193  19.709  0.00  0.00    +0.000 C 
ATOM     16  C   UNL     1      -0.398  13.832  19.048  0.00  0.00    +0.000 C 
ENDBRANCH   2  12
BRANCH   8  17
ATOM     17  S   UNL     1       2.357   4.968  18.877  0.00  0.00    +0.000 S 
ATOM     18  O   UNL     1       1.980   4.140  19.999  0.00  0.00    +0.000 OA
ATOM     19  O   UNL     1       1.827   4.715  17.555  0.00  0.00    +0.000 OA
BRANCH  17  20
ATOM     20  N   UNL     1       4.036   4.940  18.763  0.00  0.00    +0.000 NA
ATOM     21  C   UNL     1       4.748   3.670  18.498  0.00  0.00    +0.000 C 
ATOM     22  C   UNL     1       4.984   3.466  16.995  0.00  0.00    +0.000 C 
ATOM     23  N   UNL     1       5.675   4.628  16.399  0.00  0.00    +0.000 N 
ATOM     24  C   UNL     1       5.115   5.964  16.737  0.00  0.00    +0.000 C 
ATOM     25  C   UNL     1       4.787   6.104  18.235  0.00  0.00    +0.000 C 
BRANCH  23  26
ATOM     26  C   UNL     1       6.137   4.520  15.079  0.00  0.00    +0.000 A 
ATOM     27  C   UNL     1       5.455   3.671  14.189  0.00  0.00    +0.000 A 
ATOM     28  C   UNL     1       5.839   3.532  12.854  0.00  0.00    +0.000 A 
ATOM     29  C   UNL     1       6.929   4.247  12.371  0.00  0.00    +0.000 A 
ATOM     30  C   UNL     1       7.620   5.096  13.231  0.00  0.00    +0.000 A 
ATOM     31 CL   UNL     1       8.974   5.981  12.635  0.00  0.00    +0.000 Cl
ATOM     32  C   UNL     1       7.229   5.239  14.568  0.00  0.00    +0.000 A 
ENDBRANCH  23  26
ENDBRANCH  17  20
ENDBRANCH   8  17
TORSDOF 4
ENDMDL
