MODEL 1
REMARK VINA RESULT:      -5.3      0.000      0.000
REMARK  Name = 
REMARK  5 active torsions:
REMARK  status: ('A' for Active; 'I' for Inactive)
REMARK    1  A    between atoms: O_1  and  C_2
REMARK    2  A    between atoms: C_4  and  O_5
REMARK    3  A    between atoms: C_6  and  O_7
REMARK    4  A    between atoms: C_8  and  O_9
REMARK    5  A    between atoms: C_10  and  O_11
REMARK                            x       y       z     vdW  Elec       q    Type
REMARK                         _______ _______ _______ _____ _____    ______ ____
ROOT
ATOM      1  C   UNL     1       4.609   3.408  19.315  0.00  0.00    +0.000 C 
ATOM      2  C   UNL     1       4.016   4.779  19.650  0.00  0.00    +0.000 C 
ATOM      3  C   UNL     1       2.682   4.676  20.377  0.00  0.00    +0.000 C 
ATOM      4  C   UNL     1       1.677   3.812  19.599  0.00  0.00    +0.000 C 
ATOM      5  C   UNL     1       2.265   2.420  19.317  0.00  0.00    +0.000 C 
ATOM      6  C   UNL     1       3.596   2.532  18.548  0.00  0.00    +0.000 C 
ENDROOT
BRANCH   1   7
ATOM      7  O   UNL     1       5.779   3.609  18.530  0.00  0.00    +0.000 OA
ATOM      8  H   UNL     1       6.190   4.444  18.809  0.00  0.00    +0.000 HD
ENDBRANCH   1   7
BRANCH   3   9
ATOM      9  O   UNL     1       2.199   6.009  20.558  0.00  0.00    +0.000 OA
ATOM     10  H   UNL     1       2.140   6.432  19.682  0.00  0.00    +0.000 HD
ENDBRANCH   3   9
BRANCH   4  11
ATOM     11  O   UNL     1       0.460   3.733  20.352  0.00  0.00    +0.000 OA
ATOM     12  H   UNL     1      -0.133   3.091  19.924  0.00  0.00    +0.000 HD
ENDBRANCH   4  11
BRANCH   5  13
ATOM     13  O   UNL     1       1.313   1.621  18.604  0.00  0.00    +0.000 OA
ATOM     14  H   UNL     1       0.915   0.988  19.228  0.00  0.00    +0.000 HD
ENDBRANCH   5  13
BRANCH   6  15
ATOM     15  O   UNL     1       4.134   1.227  18.307  0.00  0.00    +0.000 OA
ATOM     16  H   UNL     1       5.085   1.239  18.500  0.00  0.00    +0.000 HD
ENDBRANCH   6  15
TORSDOF 5
ENDMDL
MODEL 2
REMARK VINA RESULT:      -5.2      3.134      5.208
REMARK  Name = 
REMARK  5 active torsions:
REMARK  status: ('A' for Active; 'I' for Inactive)
REMARK    1  A    between atoms: O_1  and  C_2
REMARK    2  A    between atoms: C_4  and  O_5
REMARK    3  A    between atoms: C_6  and  O_7
REMARK    4  A    between atoms: C_8  and  O_9
REMARK    5  A    between atoms: C_10  and  O_11
REMARK                            x       y       z     vdW  Elec       q    Type
REMARK                         _______ _______ _______ _____ _____    ______ ____
ROOT
ATOM      1  C   UNL     1       4.210   4.904  17.999  0.00  0.00    +0.000 C 
ATOM      2  C   UNL     1       4.239   6.104  17.047  0.00  0.00    +0.000 C 
ATOM      3  C   UNL     1       5.244   5.927  15.916  0.00  0.00    +0.000 C 
ATOM      4  C   UNL     1       6.649   5.609  16.450  0.00  0.00    +0.000 C 
ATOM      5  C   UNL     1       6.614   4.370  17.360  0.00  0.00    +0.000 C 
ATOM      6  C   UNL     1       5.623   4.572  18.523  0.00  0.00    +0.000 C 
ENDROOT
BRANCH   1   7
ATOM      7  O   UNL     1       3.344   5.218  19.084  0.00  0.00    +0.000 OA
ATOM      8  H   UNL     1       2.469   5.430  18.719  0.00  0.00    +0.000 HD
ENDBRANCH   1   7
BRANCH   3   9
ATOM      9  O   UNL     1       5.233   7.136  15.154  0.00  0.00    +0.000 OA
ATOM     10  H   UNL     1       4.373   7.574  15.290  0.00  0.00    +0.000 HD
ENDBRANCH   3   9
BRANCH   4  11
ATOM     11  O   UNL     1       7.532   5.426  15.336  0.00  0.00    +0.000 OA
ATOM     12  H   UNL     1       8.385   5.849  15.539  0.00  0.00    +0.000 HD
ENDBRANCH   4  11
BRANCH   5  13
ATOM     13  O   UNL     1       7.931   4.076  17.839  0.00  0.00    +0.000 OA
ATOM     14  H   UNL     1       8.562   4.217  17.110  0.00  0.00    +0.000 HD
ENDBRANCH   5  13
BRANCH   6  15
ATOM     15  O   UNL     1       5.595   3.404  19.351  0.00  0.00    +0.000 OA
ATOM     16  H   UNL     1       6.251   3.504  20.058  0.00  0.00    +0.000 HD
ENDBRANCH   6  15
TORSDOF 5
ENDMDL
MODEL 3
REMARK VINA RESULT:      -5.2      0.817      3.220
REMARK  Name = 
REMARK  5 active torsions:
REMARK  status: ('A' for Active; 'I' for Inactive)
REMARK    1  A    between atoms: O_1  and  C_2
REMARK    2  A    between atoms: C_4  and  O_5
REMARK    3  A    between atoms: C_6  and  O_7
REMARK    4  A    between atoms: C_8  and  O_9
REMARK    5  A    between atoms: C_10  and  O_11
REMARK                            x       y       z     vdW  Elec       q    Type
REMARK                         _______ _______ _______ _____ _____    ______ ____
ROOT
ATOM      1  C   UNL     1       1.543   3.724  19.400  0.00  0.00    +0.000 C 
ATOM      2  C   UNL     1       2.518   4.749  19.987  0.00  0.00    +0.000 C 
ATOM      3  C   UNL     1       3.845   4.785  19.241  0.00  0.00    +0.000 C 
ATOM      4  C   UNL     1       4.487   3.392  19.158  0.00  0.00    +0.000 C 
ATOM      5  C   UNL     1       3.518   2.386  18.518  0.00  0.00    +0.000 C 
ATOM      6  C   UNL     1       2.191   2.327  19.301  0.00  0.00    +0.000 C 
ENDROOT
BRANCH   1   7
ATOM      7  O   UNL     1       0.393   3.673  20.238  0.00  0.00    +0.000 OA
ATOM      8  H   UNL     1      -0.271   4.284  19.876  0.00  0.00    +0.000 HD
ENDBRANCH   1   7
BRANCH   3   9
ATOM      9  O   UNL     1       4.687   5.712  19.930  0.00  0.00    +0.000 OA
ATOM     10  H   UNL     1       5.191   5.221  20.604  0.00  0.00    +0.000 HD
ENDBRANCH   3   9
BRANCH   4  11
ATOM     11  O   UNL     1       5.712   3.495  18.420  0.00  0.00    +0.000 OA
ATOM     12  H   UNL     1       6.063   2.599  18.269  0.00  0.00    +0.000 HD
ENDBRANCH   4  11
BRANCH   5  13
ATOM     13  O   UNL     1       4.134   1.096  18.433  0.00  0.00    +0.000 OA
ATOM     14  H   UNL     1       4.913   1.088  19.018  0.00  0.00    +0.000 HD
ENDBRANCH   5  13
BRANCH   6  15
ATOM     15  O   UNL     1       1.297   1.396  18.681  0.00  0.00    +0.000 OA
ATOM     16  H   UNL     1       1.227   0.607  19.241  0.00  0.00    +0.000 HD
ENDBRANCH   6  15
TORSDOF 5
ENDMDL
MODEL 4
REMARK VINA RESULT:      -5.1      1.901      2.062
REMARK  Name = 
REMARK  5 active torsions:
REMARK  status: ('A' for Active; 'I' for Inactive)
REMARK    1  A    between atoms: O_1  and  C_2
REMARK    2  A    between atoms: C_4  and  O_5
REMARK    3  A    between atoms: C_6  and  O_7
REMARK    4  A    between atoms: C_8  and  O_9
REMARK    5  A    between atoms: C_10  and  O_11
REMARK                            x       y       z     vdW  Elec       q    Type
REMARK                         _______ _______ _______ _____ _____    ______ ____
ROOT
ATOM      1  C   UNL     1       4.132   2.784  19.207  0.00  0.00    +0.000 C 
ATOM      2  C   UNL     1       3.528   2.803  20.614  0.00  0.00    +0.000 C 
ATOM      3  C   UNL     1       2.047   2.448  20.618  0.00  0.00    +0.000 C 
ATOM      4  C   UNL     1       1.247   3.343  19.659  0.00  0.00    +0.000 C 
ATOM      5  C   UNL     1       1.830   3.272  18.239  0.00  0.00    +0.000 C 
ATOM      6  C   UNL     1       3.320   3.669  18.238  0.00  0.00    +0.000 C 
ENDROOT
BRANCH   1   7
ATOM      7  O   UNL     1       5.474   3.251  19.292  0.00  0.00    +0.000 OA
ATOM      8  H   UNL     1       5.571   3.736  20.129  0.00  0.00    +0.000 HD
ENDBRANCH   1   7
BRANCH   3   9
ATOM      9  O   UNL     1       1.588   2.580  21.965  0.00  0.00    +0.000 OA
ATOM     10  H   UNL     1       1.842   1.775  22.453  0.00  0.00    +0.000 HD
ENDBRANCH   3   9
BRANCH   4  11
ATOM     11  O   UNL     1      -0.127   2.935  19.690  0.00  0.00    +0.000 OA
ATOM     12  H   UNL     1      -0.217   2.181  20.300  0.00  0.00    +0.000 HD
ENDBRANCH   4  11
BRANCH   5  13
ATOM     13  O   UNL     1       1.067   4.099  17.353  0.00  0.00    +0.000 OA
ATOM     14  H   UNL     1       0.134   4.067  17.630  0.00  0.00    +0.000 HD
ENDBRANCH   5  13
BRANCH   6  15
ATOM     15  O   UNL     1       3.849   3.584  16.910  0.00  0.00    +0.000 OA
ATOM     16  H   UNL     1       3.502   2.784  16.485  0.00  0.00    +0.000 HD
ENDBRANCH   6  15
TORSDOF 5
ENDMDL
MODEL 5
REMARK VINA RESULT:      -5.1      1.863      3.508
REMARK  Name = 
REMARK  5 active torsions:
REMARK  status: ('A' for Active; 'I' for Inactive)
REMARK    1  A    between atoms: O_1  and  C_2
REMARK    2  A    between atoms: C_4  and  O_5
REMARK    3  A    between atoms: C_6  and  O_7
REMARK    4  A    between atoms: C_8  and  O_9
REMARK    5  A    between atoms: C_10  and  O_11
REMARK                            x       y       z     vdW  Elec       q    Type
REMARK                         _______ _______ _______ _____ _____    ______ ____
ROOT
ATOM      1  C   UNL     1       1.851   3.276  18.116  0.00  0.00    +0.000 C 
ATOM      2  C   UNL     1       3.321   3.679  17.964  0.00  0.00    +0.000 C 
ATOM      3  C   UNL     1       4.248   2.847  18.840  0.00  0.00    +0.000 C 
ATOM      4  C   UNL     1       3.813   2.877  20.314  0.00  0.00    +0.000 C 
ATOM      5  C   UNL     1       2.353   2.418  20.457  0.00  0.00    +0.000 C 
ATOM      6  C   UNL     1       1.417   3.289  19.596  0.00  0.00    +0.000 C 
ENDROOT
BRANCH   1   7
ATOM      7  O   UNL     1       1.060   4.189  17.363  0.00  0.00    +0.000 OA
ATOM      8  H   UNL     1       1.171   5.073  17.749  0.00  0.00    +0.000 HD
ENDBRANCH   1   7
BRANCH   3   9
ATOM      9  O   UNL     1       5.567   3.371  18.671  0.00  0.00    +0.000 OA
ATOM     10  H   UNL     1       6.140   2.652  18.348  0.00  0.00    +0.000 HD
ENDBRANCH   3   9
BRANCH   4  11
ATOM     11  O   UNL     1       4.707   2.051  21.072  0.00  0.00    +0.000 OA
ATOM     12  H   UNL     1       5.282   1.563  20.457  0.00  0.00    +0.000 HD
ENDBRANCH   4  11
BRANCH   5  13
ATOM     13  O   UNL     1       1.966   2.436  21.836  0.00  0.00    +0.000 OA
ATOM     14  H   UNL     1       1.221   3.056  21.937  0.00  0.00    +0.000 HD
ENDBRANCH   5  13
BRANCH   6  15
ATOM     15  O   UNL     1       0.065   2.838  19.732  0.00  0.00    +0.000 OA
ATOM     16  H   UNL     1      -0.133   2.718  20.674  0.00  0.00    +0.000 HD
ENDBRANCH   6  15
TORSDOF 5
ENDMDL
MODEL 6
REMARK VINA RESULT:      -5.1      3.666      5.157
REMARK  Name = 
REMARK  5 active torsions:
REMARK  status: ('A' for Active; 'I' for Inactive)
REMARK    1  A    between atoms: O_1  and  C_2
REMARK    2  A    between atoms: C_4  and  O_5
REMARK    3  A    between atoms: C_6  and  O_7
REMARK    4  A    between atoms: C_8  and  O_9
REMARK    5  A    between atoms: C_10  and  O_11
REMARK                            x       y       z     vdW  Elec       q    Type
REMARK                         _______ _______ _______ _____ _____    ______ ____
ROOT
ATOM      1  C   UNL     1       7.421   7.044  17.277  0.00  0.00    +0.000 C 
ATOM      2  C   UNL     1       7.876   6.740  18.707  0.00  0.00    +0.000 C 
ATOM      3  C   UNL     1       7.503   5.331  19.151  0.00  0.00    +0.000 C 
ATOM      4  C   UNL     1       6.001   5.062  18.977  0.00  0.00    +0.000 C 
ATOM      5  C   UNL     1       5.569   5.318  17.524  0.00  0.00    +0.000 C 
ATOM      6  C   UNL     1       5.916   6.758  17.095  0.00  0.00    +0.000 C 
ENDROOT
BRANCH   1   7
ATOM      7  O   UNL     1       7.698   8.414  17.004  0.00  0.00    +0.000 OA
ATOM      8  H   UNL     1       8.556   8.463  16.550  0.00  0.00    +0.000 HD
ENDBRANCH   1   7
BRANCH   3   9
ATOM      9  O   UNL     1       7.906   5.202  20.516  0.00  0.00    +0.000 OA
ATOM     10  H   UNL     1       7.321   5.760  21.059  0.00  0.00    +0.000 HD
ENDBRANCH   3   9
BRANCH   4  11
ATOM     11  O   UNL     1       5.727   3.714  19.383  0.00  0.00    +0.000 OA
ATOM     12  H   UNL     1       5.128   3.733  20.150  0.00  0.00    +0.000 HD
ENDBRANCH   4  11
BRANCH   5  13
ATOM     13  O   UNL     1       4.170   5.049  17.373  0.00  0.00    +0.000 OA
ATOM     14  H   UNL     1       3.832   4.696  18.216  0.00  0.00    +0.000 HD
ENDBRANCH   5  13
BRANCH   6  15
ATOM     15  O   UNL     1       5.519   6.973  15.737  0.00  0.00    +0.000 OA
ATOM     16  H   UNL     1       6.112   7.628  15.336  0.00  0.00    +0.000 HD
ENDBRANCH   6  15
TORSDOF 5
ENDMDL
MODEL 7
REMARK VINA RESULT:      -5.1      0.521      3.322
REMARK  Name = 
REMARK  5 active torsions:
REMARK  status: ('A' for Active; 'I' for Inactive)
REMARK    1  A    between atoms: O_1  and  C_2
REMARK    2  A    between atoms: C_4  and  O_5
REMARK    3  A    between atoms: C_6  and  O_7
REMARK    4  A    between atoms: C_8  and  O_9
REMARK    5  A    between atoms: C_10  and  O_11
REMARK                            x       y       z     vdW  Elec       q    Type
REMARK                         _______ _______ _______ _____ _____    ______ ____
ROOT
ATOM      1  C   UNL     1       2.552   5.007  19.869  0.00  0.00    +0.000 C 
ATOM      2  C   UNL     1       4.069   4.862  19.709  0.00  0.00    +0.000 C 
ATOM      3  C   UNL     1       4.448   3.878  18.610  0.00  0.00    +0.000 C 
ATOM      4  C   UNL     1       3.778   2.511  18.817  0.00  0.00    +0.000 C 
ATOM      5  C   UNL     1       2.253   2.666  18.920  0.00  0.00    +0.000 C 
ATOM      6  C   UNL     1       1.876   3.633  20.060  0.00  0.00    +0.000 C 
ENDROOT
BRANCH   1   7
ATOM      7  O   UNL     1       2.301   5.840  20.995  0.00  0.00    +0.000 OA
ATOM      8  H   UNL     1       2.954   5.623  21.682  0.00  0.00    +0.000 HD
ENDBRANCH   1   7
BRANCH   3   9
ATOM      9  O   UNL     1       5.873   3.771  18.617  0.00  0.00    +0.000 OA
ATOM     10  H   UNL     1       6.174   3.777  19.544  0.00  0.00    +0.000 HD
ENDBRANCH   3   9
BRANCH   4  11
ATOM     11  O   UNL     1       4.153   1.648  17.735  0.00  0.00    +0.000 OA
ATOM     12  H   UNL     1       3.725   0.783  17.861  0.00  0.00    +0.000 HD
ENDBRANCH   4  11
BRANCH   5  13
ATOM     13  O   UNL     1       1.640   1.383  19.098  0.00  0.00    +0.000 OA
ATOM     14  H   UNL     1       1.730   1.126  20.034  0.00  0.00    +0.000 HD
ENDBRANCH   5  13
BRANCH   6  15
ATOM     15  O   UNL     1       0.453   3.775  20.131  0.00  0.00    +0.000 OA
ATOM     16  H   UNL     1       0.056   3.362  19.349  0.00  0.00    +0.000 HD
ENDBRANCH   6  15
TORSDOF 5
ENDMDL
MODEL 8
REMARK VINA RESULT:      -5.1      1.846      2.822
REMARK  Name = 
REMARK  5 active torsions:
REMARK  status: ('A' for Active; 'I' for Inactive)
REMARK    1  A    between atoms: O_1  and  C_2
REMARK    2  A    between atoms: C_4  and  O_5
REMARK    3  A    between atoms: C_6  and  O_7
REMARK    4  A    between atoms: C_8  and  O_9
REMARK    5  A    between atoms: C_10  and  O_11
REMARK                            x       y       z     vdW  Elec       q    Type
REMARK                         _______ _______ _______ _____ _____    ______ ____
ROOT
ATOM      1  C   UNL     1       2.585   3.617  17.801  0.00  0.00    +0.000 C 
ATOM      2  C   UNL     1       1.339   3.345  18.649  0.00  0.00    +0.000 C 
ATOM      3  C   UNL     1       1.632   3.377  20.144  0.00  0.00    +0.000 C 
ATOM      4  C   UNL     1       2.777   2.422  20.517  0.00  0.00    +0.000 C 
ATOM      5  C   UNL     1       4.037   2.742  19.698  0.00  0.00    +0.000 C 
ATOM      6  C   UNL     1       3.741   2.671  18.186  0.00  0.00    +0.000 C 
ENDROOT
BRANCH   1   7
ATOM      7  O   UNL     1       2.238   3.439  16.432  0.00  0.00    +0.000 OA
ATOM      8  H   UNL     1       1.674   4.183  16.165  0.00  0.00    +0.000 HD
ENDBRANCH   1   7
BRANCH   3   9
ATOM      9  O   UNL     1       0.419   3.031  20.816  0.00  0.00    +0.000 OA
ATOM     10  H   UNL     1       0.466   3.376  21.726  0.00  0.00    +0.000 HD
ENDBRANCH   3   9
BRANCH   4  11
ATOM     11  O   UNL     1       3.018   2.526  21.926  0.00  0.00    +0.000 OA
ATOM     12  H   UNL     1       3.058   3.468  22.170  0.00  0.00    +0.000 HD
ENDBRANCH   4  11
BRANCH   5  13
ATOM     13  O   UNL     1       5.100   1.856  20.065  0.00  0.00    +0.000 OA
ATOM     14  H   UNL     1       5.722   1.795  19.318  0.00  0.00    +0.000 HD
ENDBRANCH   5  13
BRANCH   6  15
ATOM     15  O   UNL     1       4.922   2.985  17.440  0.00  0.00    +0.000 OA
ATOM     16  H   UNL     1       5.700   2.776  17.981  0.00  0.00    +0.000 HD
ENDBRANCH   6  15
TORSDOF 5
ENDMDL
MODEL 9
REMARK VINA RESULT:      -5.0      1.943      3.524
REMARK  Name = 
REMARK  5 active torsions:
REMARK  status: ('A' for Active; 'I' for Inactive)
REMARK    1  A    between atoms: O_1  and  C_2
REMARK    2  A    between atoms: C_4  and  O_5
REMARK    3  A    between atoms: C_6  and  O_7
REMARK    4  A    between atoms: C_8  and  O_9
REMARK    5  A    between atoms: C_10  and  O_11
REMARK                            x       y       z     vdW  Elec       q    Type
REMARK                         _______ _______ _______ _____ _____    ______ ____
ROOT
ATOM      1  C   UNL     1       2.377   3.613  17.607  0.00  0.00    +0.000 C 
ATOM      2  C   UNL     1       2.991   5.015  17.659  0.00  0.00    +0.000 C 
ATOM      3  C   UNL     1       4.514   4.983  17.708  0.00  0.00    +0.000 C 
ATOM      4  C   UNL     1       5.026   4.109  18.863  0.00  0.00    +0.000 C 
ATOM      5  C   UNL     1       4.444   2.690  18.767  0.00  0.00    +0.000 C 
ATOM      6  C   UNL     1       2.903   2.729  18.757  0.00  0.00    +0.000 C 
ENDROOT
BRANCH   1   7
ATOM      7  O   UNL     1       0.962   3.744  17.695  0.00  0.00    +0.000 OA
ATOM      8  H   UNL     1       0.562   2.928  17.352  0.00  0.00    +0.000 HD
ENDBRANCH   1   7
BRANCH   3   9
ATOM      9  O   UNL     1       4.957   6.336  17.836  0.00  0.00    +0.000 OA
ATOM     10  H   UNL     1       4.346   6.801  18.436  0.00  0.00    +0.000 HD
ENDBRANCH   3   9
BRANCH   4  11
ATOM     11  O   UNL     1       6.459   4.100  18.830  0.00  0.00    +0.000 OA
ATOM     12  H   UNL     1       6.790   4.828  19.384  0.00  0.00    +0.000 HD
ENDBRANCH   4  11
BRANCH   5  13
ATOM     13  O   UNL     1       4.940   1.882  19.841  0.00  0.00    +0.000 OA
ATOM     14  H   UNL     1       5.898   1.754  19.712  0.00  0.00    +0.000 HD
ENDBRANCH   5  13
BRANCH   6  15
ATOM     15  O   UNL     1       2.380   1.400  18.653  0.00  0.00    +0.000 OA
ATOM     16  H   UNL     1       1.422   1.426  18.801  0.00  0.00    +0.000 HD
ENDBRANCH   6  15
TORSDOF 5
ENDMDL
