MODEL 1
REMARK VINA RESULT:      -6.8      0.000      0.000
REMARK  Name = 
REMARK  5 active torsions:
REMARK  status: ('A' for Active; 'I' for Inactive)
REMARK    1  A    between atoms: C_1  and  C_2
REMARK    2  A    between atoms: C_5  and  C_6
REMARK    3  A    between atoms: C_6  and  N_7
REMARK    4  A    between atoms: N_16  and  C_17
REMARK    5  A    between atoms: C_17  and  C_18
REMARK                            x       y       z     vdW  Elec       q    Type
REMARK                         _______ _______ _______ _____ _____    ______ ____
ROOT
ATOM      1  N   UNL     1       4.092   3.455  17.684  0.00  0.00    +0.000 N 
ATOM      2  C   UNL     1       3.238   4.599  17.410  0.00  0.00    +0.000 C 
ATOM      3  C   UNL     1       2.102   4.699  18.436  0.00  0.00    +0.000 C 
ATOM      4  C   UNL     1       1.306   3.383  18.317  0.00  0.00    +0.000 C 
ATOM      5  C   UNL     1       2.177   2.143  18.501  0.00  0.00    +0.000 C 
ATOM      6  C   UNL     1       3.566   2.196  17.883  0.00  0.00    +0.000 C 
ATOM      7  O   UNL     1       4.228   1.171  17.732  0.00  0.00    +0.000 OA
ATOM      8  C   UNL     1       2.666   4.889  19.864  0.00  0.00    +0.000 C 
ATOM      9  C   UNL     1       3.286   6.275  20.059  0.00  0.00    +0.000 C 
ATOM     10  N   UNL     1       2.354   7.369  19.760  0.00  0.00    +0.000 NA
ATOM     11  C   UNL     1       1.848   7.252  18.386  0.00  0.00    +0.000 C 
ATOM     12  C   UNL     1       1.186   5.899  18.087  0.00  0.00    +0.000 C 
ENDROOT
BRANCH   1  13
ATOM     13  C   UNL     1       5.542   3.654  17.712  0.00  0.00    +0.000 C 
BRANCH  13  18
ATOM     14  C   UNL     1       7.941   5.408  12.867  0.00  0.00    +0.000 C 
ATOM     15  C   UNL     1       7.274   4.974  14.131  0.00  0.00    +0.000 A 
ATOM     16  C   UNL     1       6.380   3.911  14.149  0.00  0.00    +0.000 A 
ATOM     17  N   UNL     1       5.792   3.469  15.282  0.00  0.00    +0.000 NA
ATOM     18  C   UNL     1       6.115   4.144  16.417  0.00  0.00    +0.000 A 
ATOM     19  C   UNL     1       6.989   5.219  16.396  0.00  0.00    +0.000 A 
ATOM     20  N   UNL     1       7.588   5.653  15.262  0.00  0.00    +0.000 NA
ENDBRANCH  13  18
ENDBRANCH   1  13
BRANCH  10  21
ATOM     21  C   UNL     1       1.252   7.483  20.732  0.00  0.00    +0.000 C 
BRANCH  21  22
ATOM     22  C   UNL     1       0.829   8.913  20.994  0.00  0.00    +0.000 A 
ATOM     23  C   UNL     1       0.194   9.256  22.199  0.00  0.00    +0.000 A 
ATOM     24  C   UNL     1      -0.255  10.560  22.412  0.00  0.00    +0.000 A 
ATOM     25  C   UNL     1      -0.062  11.519  21.425  0.00  0.00    +0.000 A 
ATOM     26  F   UNL     1      -0.507  12.767  21.623  0.00  0.00    +0.000 F 
ATOM     27  C   UNL     1       0.578  11.204  20.232  0.00  0.00    +0.000 A 
ATOM     28  C   UNL     1       1.026   9.901  20.016  0.00  0.00    +0.000 A 
ENDBRANCH  21  22
ENDBRANCH  10  21
TORSDOF 4
ENDMDL
MODEL 2
REMARK VINA RESULT:      -6.7      5.761     11.735
REMARK  Name = 
REMARK  5 active torsions:
REMARK  status: ('A' for Active; 'I' for Inactive)
REMARK    1  A    between atoms: C_1  and  C_2
REMARK    2  A    between atoms: C_5  and  C_6
REMARK    3  A    between atoms: C_6  and  N_7
REMARK    4  A    between atoms: N_16  and  C_17
REMARK    5  A    between atoms: C_17  and  C_18
REMARK                            x       y       z     vdW  Elec       q    Type
REMARK                         _______ _______ _______ _____ _____    ______ ____
ROOT
ATOM      1  N   UNL     1      -1.628  14.098  21.167  0.00  0.00    +0.000 N 
ATOM      2  C   UNL     1      -1.885  13.029  20.215  0.00  0.00    +0.000 C 
ATOM      3  C   UNL     1      -0.692  12.827  19.274  0.00  0.00    +0.000 C 
ATOM      4  C   UNL     1      -0.495  14.173  18.544  0.00  0.00    +0.000 C 
ATOM      5  C   UNL     1      -0.316  15.347  19.501  0.00  0.00    +0.000 C 
ATOM      6  C   UNL     1      -1.177  15.335  20.755  0.00  0.00    +0.000 C 
ATOM      7  O   UNL     1      -1.314  16.350  21.436  0.00  0.00    +0.000 OA
ATOM      8  C   UNL     1       0.574  12.428  20.069  0.00  0.00    +0.000 C 
ATOM      9  C   UNL     1       0.475  11.010  20.635  0.00  0.00    +0.000 C 
ATOM     10  N   UNL     1       0.213   9.996  19.606  0.00  0.00    +0.000 NA
ATOM     11  C   UNL     1      -1.020  10.314  18.874  0.00  0.00    +0.000 C 
ATOM     12  C   UNL     1      -1.019  11.716  18.246  0.00  0.00    +0.000 C 
ENDROOT
BRANCH   1  13
ATOM     13  C   UNL     1      -1.889  13.852  22.586  0.00  0.00    +0.000 C 
BRANCH  13  18
ATOM     14  C   UNL     1      -7.344  13.658  24.168  0.00  0.00    +0.000 C 
ATOM     15  C   UNL     1      -5.925  13.716  23.709  0.00  0.00    +0.000 A 
ATOM     16  C   UNL     1      -5.248  14.925  23.602  0.00  0.00    +0.000 A 
ATOM     17  N   UNL     1      -3.952  15.006  23.229  0.00  0.00    +0.000 NA
ATOM     18  C   UNL     1      -3.345  13.824  22.942  0.00  0.00    +0.000 A 
ATOM     19  C   UNL     1      -4.025  12.621  23.026  0.00  0.00    +0.000 A 
ATOM     20  N   UNL     1      -5.320  12.538  23.413  0.00  0.00    +0.000 NA
ENDBRANCH  13  18
ENDBRANCH   1  13
BRANCH  10  21
ATOM     21  C   UNL     1       1.346   9.787  18.688  0.00  0.00    +0.000 C 
BRANCH  21  22
ATOM     22  C   UNL     1       1.997   8.428  18.839  0.00  0.00    +0.000 A 
ATOM     23  C   UNL     1       2.826   7.921  17.825  0.00  0.00    +0.000 A 
ATOM     24  C   UNL     1       3.372   6.642  17.936  0.00  0.00    +0.000 A 
ATOM     25  C   UNL     1       3.096   5.876  19.062  0.00  0.00    +0.000 A 
ATOM     26  F   UNL     1       3.606   4.641  19.160  0.00  0.00    +0.000 F 
ATOM     27  C   UNL     1       2.290   6.364  20.084  0.00  0.00    +0.000 A 
ATOM     28  C   UNL     1       1.742   7.642  19.975  0.00  0.00    +0.000 A 
ENDBRANCH  21  22
ENDBRANCH  10  21
TORSDOF 4
ENDMDL
MODEL 3
REMARK VINA RESULT:      -6.7      1.688      2.129
REMARK  Name = 
REMARK  5 active torsions:
REMARK  status: ('A' for Active; 'I' for Inactive)
REMARK    1  A    between atoms: C_1  and  C_2
REMARK    2  A    between atoms: C_5  and  C_6
REMARK    3  A    between atoms: C_6  and  N_7
REMARK    4  A    between atoms: N_16  and  C_17
REMARK    5  A    between atoms: C_17  and  C_18
REMARK                            x       y       z     vdW  Elec       q    Type
REMARK                         _______ _______ _______ _____ _____    ______ ____
ROOT
ATOM      1  N   UNL     1       4.104   3.709  18.141  0.00  0.00    +0.000 N 
ATOM      2  C   UNL     1       3.506   4.985  17.785  0.00  0.00    +0.000 C 
ATOM      3  C   UNL     1       2.086   5.108  18.353  0.00  0.00    +0.000 C 
ATOM      4  C   UNL     1       1.283   3.940  17.744  0.00  0.00    +0.000 C 
ATOM      5  C   UNL     1       1.922   2.579  18.006  0.00  0.00    +0.000 C 
ATOM      6  C   UNL     1       3.439   2.519  17.928  0.00  0.00    +0.000 C 
ATOM      7  O   UNL     1       4.024   1.440  17.845  0.00  0.00    +0.000 OA
ATOM      8  C   UNL     1       2.104   5.033  19.898  0.00  0.00    +0.000 C 
ATOM      9  C   UNL     1       2.722   6.284  20.529  0.00  0.00    +0.000 C 
ATOM     10  N   UNL     1       2.056   7.526  20.114  0.00  0.00    +0.000 NA
ATOM     11  C   UNL     1       2.079   7.657  18.652  0.00  0.00    +0.000 C 
ATOM     12  C   UNL     1       1.463   6.458  17.917  0.00  0.00    +0.000 C 
ENDROOT
BRANCH   1  13
ATOM     13  C   UNL     1       5.455   3.700  18.705  0.00  0.00    +0.000 C 
BRANCH  13  18
ATOM     14  C   UNL     1       8.253   8.534  17.652  0.00  0.00    +0.000 C 
ATOM     15  C   UNL     1       7.551   7.241  17.907  0.00  0.00    +0.000 A 
ATOM     16  C   UNL     1       7.858   6.456  19.012  0.00  0.00    +0.000 A 
ATOM     17  N   UNL     1       7.213   5.302  19.291  0.00  0.00    +0.000 NA
ATOM     18  C   UNL     1       6.247   4.938  18.407  0.00  0.00    +0.000 A 
ATOM     19  C   UNL     1       5.955   5.707  17.293  0.00  0.00    +0.000 A 
ATOM     20  N   UNL     1       6.593   6.871  17.021  0.00  0.00    +0.000 NA
ENDBRANCH  13  18
ENDBRANCH   1  13
BRANCH  10  21
ATOM     21  C   UNL     1       0.690   7.664  20.647  0.00  0.00    +0.000 C 
BRANCH  21  22
ATOM     22  C   UNL     1       0.397   9.045  21.195  0.00  0.00    +0.000 A 
ATOM     23  C   UNL     1      -0.239   9.195  22.438  0.00  0.00    +0.000 A 
ATOM     24  C   UNL     1      -0.568  10.465  22.911  0.00  0.00    +0.000 A 
ATOM     25  C   UNL     1      -0.254  11.583  22.147  0.00  0.00    +0.000 A 
ATOM     26  F   UNL     1      -0.584  12.801  22.595  0.00  0.00    +0.000 F 
ATOM     27  C   UNL     1       0.389  11.457  20.921  0.00  0.00    +0.000 A 
ATOM     28  C   UNL     1       0.718  10.188  20.445  0.00  0.00    +0.000 A 
ENDBRANCH  21  22
ENDBRANCH  10  21
TORSDOF 4
ENDMDL
MODEL 4
REMARK VINA RESULT:      -6.7      4.788      9.278
REMARK  Name = 
REMARK  5 active torsions:
REMARK  status: ('A' for Active; 'I' for Inactive)
REMARK    1  A    between atoms: C_1  and  C_2
REMARK    2  A    between atoms: C_5  and  C_6
REMARK    3  A    between atoms: C_6  and  N_7
REMARK    4  A    between atoms: N_16  and  C_17
REMARK    5  A    between atoms: C_17  and  C_18
REMARK                            x       y       z     vdW  Elec       q    Type
REMARK                         _______ _______ _______ _____ _____    ______ ____
ROOT
ATOM      1  N   UNL     1       1.011  12.268  19.015  0.00  0.00    +0.000 N 
ATOM      2  C   UNL     1       1.129  11.092  19.863  0.00  0.00    +0.000 C 
ATOM      3  C   UNL     1       0.398   9.892  19.249  0.00  0.00    +0.000 C 
ATOM      4  C   UNL     1      -1.078  10.319  19.112  0.00  0.00    +0.000 C 
ATOM      5  C   UNL     1      -1.252  11.605  18.309  0.00  0.00    +0.000 C 
ATOM      6  C   UNL     1      -0.214  12.692  18.541  0.00  0.00    +0.000 C 
ATOM      7  O   UNL     1      -0.414  13.846  18.168  0.00  0.00    +0.000 OA
ATOM      8  C   UNL     1       1.007   9.522  17.876  0.00  0.00    +0.000 C 
ATOM      9  C   UNL     1       2.402   8.907  18.011  0.00  0.00    +0.000 C 
ATOM     10  N   UNL     1       2.429   7.726  18.884  0.00  0.00    +0.000 NA
ATOM     11  C   UNL     1       1.915   8.062  20.218  0.00  0.00    +0.000 C 
ATOM     12  C   UNL     1       0.506   8.672  20.198  0.00  0.00    +0.000 C 
ENDROOT
BRANCH   1  13
ATOM     13  C   UNL     1       2.221  13.026  18.694  0.00  0.00    +0.000 C 
BRANCH  13  18
ATOM     14  C   UNL     1       4.207  16.035  23.088  0.00  0.00    +0.000 C 
ATOM     15  C   UNL     1       3.664  15.283  21.918  0.00  0.00    +0.000 A 
ATOM     16  C   UNL     1       4.320  15.276  20.694  0.00  0.00    +0.000 A 
ATOM     17  N   UNL     1       3.874  14.573  19.629  0.00  0.00    +0.000 NA
ATOM     18  C   UNL     1       2.723  13.877  19.822  0.00  0.00    +0.000 A 
ATOM     19  C   UNL     1       2.056  13.900  21.035  0.00  0.00    +0.000 A 
ATOM     20  N   UNL     1       2.510  14.595  22.106  0.00  0.00    +0.000 NA
ENDBRANCH  13  18
ENDBRANCH   1  13
BRANCH  10  21
ATOM     21  C   UNL     1       1.730   6.561  18.315  0.00  0.00    +0.000 C 
BRANCH  21  22
ATOM     22  C   UNL     1       2.436   5.248  18.584  0.00  0.00    +0.000 A 
ATOM     23  C   UNL     1       1.712   4.046  18.618  0.00  0.00    +0.000 A 
ATOM     24  C   UNL     1       2.351   2.847  18.931  0.00  0.00    +0.000 A 
ATOM     25  C   UNL     1       3.714   2.849  19.202  0.00  0.00    +0.000 A 
ATOM     26  F   UNL     1       4.325   1.700  19.519  0.00  0.00    +0.000 F 
ATOM     27  C   UNL     1       4.453   4.026  19.160  0.00  0.00    +0.000 A 
ATOM     28  C   UNL     1       3.816   5.227  18.848  0.00  0.00    +0.000 A 
ENDBRANCH  21  22
ENDBRANCH  10  21
TORSDOF 4
ENDMDL
MODEL 5
REMARK VINA RESULT:      -6.7      5.259     11.163
REMARK  Name = 
REMARK  5 active torsions:
REMARK  status: ('A' for Active; 'I' for Inactive)
REMARK    1  A    between atoms: C_1  and  C_2
REMARK    2  A    between atoms: C_5  and  C_6
REMARK    3  A    between atoms: C_6  and  N_7
REMARK    4  A    between atoms: N_16  and  C_17
REMARK    5  A    between atoms: C_17  and  C_18
REMARK                            x       y       z     vdW  Elec       q    Type
REMARK                         _______ _______ _______ _____ _____    ______ ____
ROOT
ATOM      1  N   UNL     1      -1.053  12.589  21.979  0.00  0.00    +0.000 N 
ATOM      2  C   UNL     1      -1.116  12.150  20.594  0.00  0.00    +0.000 C 
ATOM      3  C   UNL     1       0.280  12.122  19.959  0.00  0.00    +0.000 C 
ATOM      4  C   UNL     1       0.817  13.566  20.050  0.00  0.00    +0.000 C 
ATOM      5  C   UNL     1       0.814  14.111  21.475  0.00  0.00    +0.000 C 
ATOM      6  C   UNL     1      -0.380  13.739  22.339  0.00  0.00    +0.000 C 
ATOM      7  O   UNL     1      -0.616  14.342  23.384  0.00  0.00    +0.000 OA
ATOM      8  C   UNL     1       1.203  11.130  20.704  0.00  0.00    +0.000 C 
ATOM      9  C   UNL     1       0.800   9.673  20.460  0.00  0.00    +0.000 C 
ATOM     10  N   UNL     1       0.762   9.318  19.035  0.00  0.00    +0.000 NA
ATOM     11  C   UNL     1      -0.157  10.204  18.310  0.00  0.00    +0.000 C 
ATOM     12  C   UNL     1       0.169  11.696  18.473  0.00  0.00    +0.000 C 
ENDROOT
BRANCH   1  13
ATOM     13  C   UNL     1      -1.750  11.801  22.997  0.00  0.00    +0.000 C 
BRANCH  13  18
ATOM     14  C   UNL     1      -7.155  13.386  23.759  0.00  0.00    +0.000 C 
ATOM     15  C   UNL     1      -5.750  12.929  23.543  0.00  0.00    +0.000 A 
ATOM     16  C   UNL     1      -5.125  13.070  22.310  0.00  0.00    +0.000 A 
ATOM     17  N   UNL     1      -3.842  12.703  22.095  0.00  0.00    +0.000 NA
ATOM     18  C   UNL     1      -3.195  12.164  23.162  0.00  0.00    +0.000 A 
ATOM     19  C   UNL     1      -3.825  12.002  24.385  0.00  0.00    +0.000 A 
ATOM     20  N   UNL     1      -5.106  12.382  24.604  0.00  0.00    +0.000 NA
ENDBRANCH  13  18
ENDBRANCH   1  13
BRANCH  10  21
ATOM     21  C   UNL     1       2.093   9.287  18.403  0.00  0.00    +0.000 C 
BRANCH  21  22
ATOM     22  C   UNL     1       2.580   7.885  18.100  0.00  0.00    +0.000 A 
ATOM     23  C   UNL     1       1.832   6.770  18.509  0.00  0.00    +0.000 A 
ATOM     24  C   UNL     1       2.314   5.480  18.288  0.00  0.00    +0.000 A 
ATOM     25  C   UNL     1       3.537   5.306  17.652  0.00  0.00    +0.000 A 
ATOM     26  F   UNL     1       4.007   4.067  17.455  0.00  0.00    +0.000 F 
ATOM     27  C   UNL     1       4.287   6.396  17.226  0.00  0.00    +0.000 A 
ATOM     28  C   UNL     1       3.808   7.687  17.448  0.00  0.00    +0.000 A 
ENDBRANCH  21  22
ENDBRANCH  10  21
TORSDOF 4
ENDMDL
MODEL 6
REMARK VINA RESULT:      -6.6      8.092     10.670
REMARK  Name = 
REMARK  5 active torsions:
REMARK  status: ('A' for Active; 'I' for Inactive)
REMARK    1  A    between atoms: C_1  and  C_2
REMARK    2  A    between atoms: C_5  and  C_6
REMARK    3  A    between atoms: C_6  and  N_7
REMARK    4  A    between atoms: N_16  and  C_17
REMARK    5  A    between atoms: C_17  and  C_18
REMARK                            x       y       z     vdW  Elec       q    Type
REMARK                         _______ _______ _______ _____ _____    ______ ____
ROOT
ATOM      1  N   UNL     1       2.013  16.520  18.365  0.00  0.00    +0.000 N 
ATOM      2  C   UNL     1       1.749  15.814  19.609  0.00  0.00    +0.000 C 
ATOM      3  C   UNL     1       0.273  15.411  19.714  0.00  0.00    +0.000 C 
ATOM      4  C   UNL     1      -0.531  16.726  19.652  0.00  0.00    +0.000 C 
ATOM      5  C   UNL     1      -0.220  17.555  18.409  0.00  0.00    +0.000 C 
ATOM      6  C   UNL     1       1.234  17.586  17.965  0.00  0.00    +0.000 C 
ATOM      7  O   UNL     1       1.630  18.430  17.162  0.00  0.00    +0.000 OA
ATOM      8  C   UNL     1      -0.119  14.456  18.562  0.00  0.00    +0.000 C 
ATOM      9  C   UNL     1       0.517  13.073  18.718  0.00  0.00    +0.000 C 
ATOM     10  N   UNL     1       0.200  12.435  20.002  0.00  0.00    +0.000 NA
ATOM     11  C   UNL     1       0.619  13.291  21.119  0.00  0.00    +0.000 C 
ATOM     12  C   UNL     1       0.020  14.704  21.069  0.00  0.00    +0.000 C 
ENDROOT
BRANCH   1  13
ATOM     13  C   UNL     1       3.151  16.099  17.547  0.00  0.00    +0.000 C 
BRANCH  13  18
ATOM     14  C   UNL     1       8.232  16.094  20.095  0.00  0.00    +0.000 C 
ATOM     15  C   UNL     1       6.877  16.087  19.467  0.00  0.00    +0.000 A 
ATOM     16  C   UNL     1       6.088  17.230  19.435  0.00  0.00    +0.000 A 
ATOM     17  N   UNL     1       4.876  17.265  18.838  0.00  0.00    +0.000 NA
ATOM     18  C   UNL     1       4.459  16.098  18.280  0.00  0.00    +0.000 A 
ATOM     19  C   UNL     1       5.235  14.952  18.331  0.00  0.00    +0.000 A 
ATOM     20  N   UNL     1       6.456  14.921  18.917  0.00  0.00    +0.000 NA
ENDBRANCH  13  18
ENDBRANCH   1  13
BRANCH  10  21
ATOM     21  C   UNL     1      -1.215  12.041  20.127  0.00  0.00    +0.000 C 
BRANCH  21  22
ATOM     22  C   UNL     1      -1.765  11.382  18.879  0.00  0.00    +0.000 A 
ATOM     23  C   UNL     1      -3.002  11.784  18.351  0.00  0.00    +0.000 A 
ATOM     24  C   UNL     1      -3.540  11.132  17.241  0.00  0.00    +0.000 A 
ATOM     25  C   UNL     1      -2.837  10.085  16.656  0.00  0.00    +0.000 A 
ATOM     26  F   UNL     1      -3.360   9.448  15.601  0.00  0.00    +0.000 F 
ATOM     27  C   UNL     1      -1.604   9.681  17.154  0.00  0.00    +0.000 A 
ATOM     28  C   UNL     1      -1.065  10.330  18.265  0.00  0.00    +0.000 A 
ENDBRANCH  21  22
ENDBRANCH  10  21
TORSDOF 4
ENDMDL
MODEL 7
REMARK VINA RESULT:      -6.6      4.848      9.412
REMARK  Name = 
REMARK  5 active torsions:
REMARK  status: ('A' for Active; 'I' for Inactive)
REMARK    1  A    between atoms: C_1  and  C_2
REMARK    2  A    between atoms: C_5  and  C_6
REMARK    3  A    between atoms: C_6  and  N_7
REMARK    4  A    between atoms: N_16  and  C_17
REMARK    5  A    between atoms: C_17  and  C_18
REMARK                            x       y       z     vdW  Elec       q    Type
REMARK                         _______ _______ _______ _____ _____    ______ ____
ROOT
ATOM      1  N   UNL     1       1.040  12.207  19.066  0.00  0.00    +0.000 N 
ATOM      2  C   UNL     1       1.151  11.013  19.889  0.00  0.00    +0.000 C 
ATOM      3  C   UNL     1       0.414   9.830  19.249  0.00  0.00    +0.000 C 
ATOM      4  C   UNL     1      -1.059  10.269  19.118  0.00  0.00    +0.000 C 
ATOM      5  C   UNL     1      -1.225  11.572  18.342  0.00  0.00    +0.000 C 
ATOM      6  C   UNL     1      -0.181  12.648  18.599  0.00  0.00    +0.000 C 
ATOM      7  O   UNL     1      -0.374  13.811  18.249  0.00  0.00    +0.000 OA
ATOM      8  C   UNL     1       1.023   9.485  17.869  0.00  0.00    +0.000 C 
ATOM      9  C   UNL     1       2.415   8.860  17.994  0.00  0.00    +0.000 C 
ATOM     10  N   UNL     1       2.434   7.661  18.842  0.00  0.00    +0.000 NA
ATOM     11  C   UNL     1       1.919   7.972  20.182  0.00  0.00    +0.000 C 
ATOM     12  C   UNL     1       0.513   8.591  20.173  0.00  0.00    +0.000 C 
ENDROOT
BRANCH   1  13
ATOM     13  C   UNL     1       2.255  12.965  18.763  0.00  0.00    +0.000 C 
BRANCH  13  18
ATOM     14  C   UNL     1       3.745  16.905  22.579  0.00  0.00    +0.000 C 
ATOM     15  C   UNL     1       3.309  15.876  21.588  0.00  0.00    +0.000 A 
ATOM     16  C   UNL     1       2.922  16.229  20.302  0.00  0.00    +0.000 A 
ATOM     17  N   UNL     1       2.562  15.318  19.371  0.00  0.00    +0.000 NA
ATOM     18  C   UNL     1       2.582  14.021  19.776  0.00  0.00    +0.000 A 
ATOM     19  C   UNL     1       2.946  13.670  21.065  0.00  0.00    +0.000 A 
ATOM     20  N   UNL     1       3.320  14.582  21.994  0.00  0.00    +0.000 NA
ENDBRANCH  13  18
ENDBRANCH   1  13
BRANCH  10  21
ATOM     21  C   UNL     1       1.729   6.512  18.248  0.00  0.00    +0.000 C 
BRANCH  21  22
ATOM     22  C   UNL     1       2.392   5.183  18.547  0.00  0.00    +0.000 A 
ATOM     23  C   UNL     1       3.692   4.918  18.088  0.00  0.00    +0.000 A 
ATOM     24  C   UNL     1       4.275   3.670  18.307  0.00  0.00    +0.000 A 
ATOM     25  C   UNL     1       3.563   2.692  18.990  0.00  0.00    +0.000 A 
ATOM     26  F   UNL     1       4.117   1.489  19.186  0.00  0.00    +0.000 F 
ATOM     27  C   UNL     1       2.280   2.939  19.466  0.00  0.00    +0.000 A 
ATOM     28  C   UNL     1       1.694   4.185  19.248  0.00  0.00    +0.000 A 
ENDBRANCH  21  22
ENDBRANCH  10  21
TORSDOF 4
ENDMDL
MODEL 8
REMARK VINA RESULT:      -6.6      5.467     11.440
REMARK  Name = 
REMARK  5 active torsions:
REMARK  status: ('A' for Active; 'I' for Inactive)
REMARK    1  A    between atoms: C_1  and  C_2
REMARK    2  A    between atoms: C_5  and  C_6
REMARK    3  A    between atoms: C_6  and  N_7
REMARK    4  A    between atoms: N_16  and  C_17
REMARK    5  A    between atoms: C_17  and  C_18
REMARK                            x       y       z     vdW  Elec       q    Type
REMARK                         _______ _______ _______ _____ _____    ______ ____
ROOT
ATOM      1  N   UNL     1      -0.840  13.401  22.135  0.00  0.00    +0.000 N 
ATOM      2  C   UNL     1      -1.063  12.903  20.787  0.00  0.00    +0.000 C 
ATOM      3  C   UNL     1       0.265  12.686  20.051  0.00  0.00    +0.000 C 
ATOM      4  C   UNL     1       0.961  14.063  20.017  0.00  0.00    +0.000 C 
ATOM      5  C   UNL     1       1.134  14.676  21.403  0.00  0.00    +0.000 C 
ATOM      6  C   UNL     1      -0.020  14.484  22.375  0.00  0.00    +0.000 C 
ATOM      7  O   UNL     1      -0.102  15.162  23.398  0.00  0.00    +0.000 OA
ATOM      8  C   UNL     1       1.133  11.635  20.782  0.00  0.00    +0.000 C 
ATOM      9  C   UNL     1       0.557  10.222  20.654  0.00  0.00    +0.000 C 
ATOM     10  N   UNL     1       0.364   9.803  19.260  0.00  0.00    +0.000 NA
ATOM     11  C   UNL     1      -0.509  10.750  18.555  0.00  0.00    +0.000 C 
ATOM     12  C   UNL     1      -0.011  12.201  18.606  0.00  0.00    +0.000 C 
ENDROOT
BRANCH   1  13
ATOM     13  C   UNL     1      -1.533  12.749  23.247  0.00  0.00    +0.000 C 
BRANCH  13  18
ATOM     14  C   UNL     1      -6.899  14.571  23.691  0.00  0.00    +0.000 C 
ATOM     15  C   UNL     1      -5.495  14.067  23.614  0.00  0.00    +0.000 A 
ATOM     16  C   UNL     1      -5.194  12.851  23.014  0.00  0.00    +0.000 A 
ATOM     17  N   UNL     1      -3.930  12.389  22.892  0.00  0.00    +0.000 NA
ATOM     18  C   UNL     1      -2.959  13.183  23.414  0.00  0.00    +0.000 A 
ATOM     19  C   UNL     1      -3.259  14.385  24.032  0.00  0.00    +0.000 A 
ATOM     20  N   UNL     1      -4.525  14.855  24.142  0.00  0.00    +0.000 NA
ENDBRANCH  13  18
ENDBRANCH   1  13
BRANCH  10  21
ATOM     21  C   UNL     1       1.628   9.591  18.533  0.00  0.00    +0.000 C 
BRANCH  21  22
ATOM     22  C   UNL     1       2.194   8.197  18.709  0.00  0.00    +0.000 A 
ATOM     23  C   UNL     1       2.990   7.622  17.706  0.00  0.00    +0.000 A 
ATOM     24  C   UNL     1       3.457   6.314  17.841  0.00  0.00    +0.000 A 
ATOM     25  C   UNL     1       3.134   5.587  18.980  0.00  0.00    +0.000 A 
ATOM     26  F   UNL     1       3.568   4.326  19.102  0.00  0.00    +0.000 F 
ATOM     27  C   UNL     1       2.360   6.143  19.992  0.00  0.00    +0.000 A 
ATOM     28  C   UNL     1       1.891   7.449  19.859  0.00  0.00    +0.000 A 
ENDBRANCH  21  22
ENDBRANCH  10  21
TORSDOF 4
ENDMDL
MODEL 9
REMARK VINA RESULT:      -6.5      8.218     10.608
REMARK  Name = 
REMARK  5 active torsions:
REMARK  status: ('A' for Active; 'I' for Inactive)
REMARK    1  A    between atoms: C_1  and  C_2
REMARK    2  A    between atoms: C_5  and  C_6
REMARK    3  A    between atoms: C_6  and  N_7
REMARK    4  A    between atoms: N_16  and  C_17
REMARK    5  A    between atoms: C_17  and  C_18
REMARK                            x       y       z     vdW  Elec       q    Type
REMARK                         _______ _______ _______ _____ _____    ______ ____
ROOT
ATOM      1  N   UNL     1       1.374  16.344  19.705  0.00  0.00    +0.000 N 
ATOM      2  C   UNL     1       1.521  15.001  20.243  0.00  0.00    +0.000 C 
ATOM      3  C   UNL     1       0.156  14.388  20.579  0.00  0.00    +0.000 C 
ATOM      4  C   UNL     1      -0.485  15.327  21.623  0.00  0.00    +0.000 C 
ATOM      5  C   UNL     1      -0.575  16.773  21.145  0.00  0.00    +0.000 C 
ATOM      6  C   UNL     1       0.609  17.296  20.347  0.00  0.00    +0.000 C 
ATOM      7  O   UNL     1       0.761  18.502  20.162  0.00  0.00    +0.000 OA
ATOM      8  C   UNL     1      -0.722  14.273  19.311  0.00  0.00    +0.000 C 
ATOM      9  C   UNL     1      -0.209  13.198  18.350  0.00  0.00    +0.000 C 
ATOM     10  N   UNL     1      -0.092  11.875  18.976  0.00  0.00    +0.000 NA
ATOM     11  C   UNL     1       0.789  11.939  20.149  0.00  0.00    +0.000 C 
ATOM     12  C   UNL     1       0.352  12.979  21.191  0.00  0.00    +0.000 C 
ENDROOT
BRANCH   1  13
ATOM     13  C   UNL     1       2.086  16.689  18.474  0.00  0.00    +0.000 C 
BRANCH  13  18
ATOM     14  C   UNL     1       7.662  15.593  18.370  0.00  0.00    +0.000 C 
ATOM     15  C   UNL     1       6.194  15.858  18.438  0.00  0.00    +0.000 A 
ATOM     16  C   UNL     1       5.686  16.943  19.140  0.00  0.00    +0.000 A 
ATOM     17  N   UNL     1       4.367  17.231  19.186  0.00  0.00    +0.000 NA
ATOM     18  C   UNL     1       3.552  16.378  18.511  0.00  0.00    +0.000 A 
ATOM     19  C   UNL     1       4.056  15.282  17.829  0.00  0.00    +0.000 A 
ATOM     20  N   UNL     1       5.379  15.001  17.772  0.00  0.00    +0.000 NA
ENDBRANCH  13  18
ENDBRANCH   1  13
BRANCH  10  21
ATOM     21  C   UNL     1      -1.392  11.268  19.310  0.00  0.00    +0.000 C 
BRANCH  21  22
ATOM     22  C   UNL     1      -2.222  10.920  18.092  0.00  0.00    +0.000 A 
ATOM     23  C   UNL     1      -1.734  10.016  17.135  0.00  0.00    +0.000 A 
ATOM     24  C   UNL     1      -2.470   9.747  15.981  0.00  0.00    +0.000 A 
ATOM     25  C   UNL     1      -3.695  10.375  15.789  0.00  0.00    +0.000 A 
ATOM     26  F   UNL     1      -4.394  10.128  14.674  0.00  0.00    +0.000 F 
ATOM     27  C   UNL     1      -4.203  11.261  16.731  0.00  0.00    +0.000 A 
ATOM     28  C   UNL     1      -3.469  11.533  17.885  0.00  0.00    +0.000 A 
ENDBRANCH  21  22
ENDBRANCH  10  21
TORSDOF 4
ENDMDL
