MODEL 1
REMARK VINA RESULT:      -8.9      0.000      0.000
REMARK  Name = 
REMARK  9 active torsions:
REMARK  status: ('A' for Active; 'I' for Inactive)
REMARK    1  A    between atoms: C_1  and  C_2
REMARK    2  A    between atoms: C_5  and  N_6
REMARK    3  A    between atoms: N_11  and  C_12
REMARK    4  A    between atoms: C_12  and  C_13
REMARK    5  A    between atoms: C_12  and  C_14
REMARK    6  A    between atoms: N_16  and  C_17
REMARK    7  A    between atoms: C_17  and  C_18
REMARK    8  A    between atoms: C_28  and  C_29
REMARK    9  A    between atoms: C_31  and  C_32
REMARK                            x       y       z     vdW  Elec       q    Type
REMARK                         _______ _______ _______ _____ _____    ______ ____
ROOT
ATOM      1  N   UNL     1       1.388   8.437  20.066  0.00  0.00    +0.000 N 
ATOM      2  N   UNL     1       1.020   8.578  21.381  0.00  0.00    +0.000 NA
ATOM      3  C   UNL     1       0.353   9.750  21.430  0.00  0.00    +0.000 A 
ATOM      4  C   UNL     1      -0.207  10.445  22.616  0.00  0.00    +0.000 A 
ATOM      5  O   UNL     1      -0.071  10.041  23.768  0.00  0.00    +0.000 OA
ATOM      6  N   UNL     1      -0.921  11.629  22.281  0.00  0.00    +0.000 N 
ATOM      7  N   UNL     1      -1.078  12.111  20.986  0.00  0.00    +0.000 NA
ATOM      8  C   UNL     1      -0.561  11.515  19.957  0.00  0.00    +0.000 A 
ATOM      9  C   UNL     1      -0.815  12.115  18.604  0.00  0.00    +0.000 C 
ATOM     10  C   UNL     1       0.188  10.301  20.150  0.00  0.00    +0.000 A 
ATOM     11  C   UNL     1       0.802   9.432  19.273  0.00  0.00    +0.000 A 
ATOM     12  C   UNL     1       0.782   9.401  17.787  0.00  0.00    +0.000 C 
ENDROOT
BRANCH   1  17
ATOM     13  C   UNL     1       3.787   3.929  17.458  0.00  0.00    +0.000 C 
ATOM     14  C   UNL     1       3.288   5.092  18.267  0.00  0.00    +0.000 A 
ATOM     15  C   UNL     1       2.562   4.932  19.458  0.00  0.00    +0.000 A 
ATOM     16  C   UNL     1       2.011   6.045  20.131  0.00  0.00    +0.000 A 
ATOM     17  C   UNL     1       2.160   7.324  19.589  0.00  0.00    +0.000 A 
ATOM     18  C   UNL     1       2.999   7.483  18.472  0.00  0.00    +0.000 A 
ATOM     19  C   UNL     1       3.529   6.383  17.801  0.00  0.00    +0.000 A 
ENDBRANCH   1  17
BRANCH   6  20
ATOM     20  C   UNL     1      -1.452  12.545  23.320  0.00  0.00    +0.000 C 
ATOM     21  C   UNL     1      -0.977  13.986  23.068  0.00  0.00    +0.000 C 
BRANCH  20  22
ATOM     22  C   UNL     1      -3.009  12.519  23.418  0.00  0.00    +0.000 C 
ATOM     23  O   UNL     1      -3.612  11.682  24.093  0.00  0.00    +0.000 OA
ATOM     24  N   UNL     1      -3.679  13.370  22.560  0.00  0.00    +0.000 N 
ATOM     25  H   UNL     1      -3.131  14.115  22.150  0.00  0.00    +0.000 HD
BRANCH  24  26
ATOM     26  C   UNL     1      -5.132  13.514  22.560  0.00  0.00    +0.000 C 
BRANCH  26  27
ATOM     27  C   UNL     1      -5.696  13.067  21.229  0.00  0.00    +0.000 A 
ATOM     28  C   UNL     1      -6.936  12.378  21.177  0.00  0.00    +0.000 A 
ATOM     29  C   UNL     1      -7.260  11.573  20.082  0.00  0.00    +0.000 A 
ATOM     30  C   UNL     1      -6.309  11.472  19.093  0.00  0.00    +0.000 A 
ATOM     31  C   UNL     1      -5.187  12.276  19.067  0.00  0.00    +0.000 A 
ATOM     32  C   UNL     1      -4.876  13.129  20.094  0.00  0.00    +0.000 A 
ATOM     33  O   UNL     1      -4.327  11.918  18.069  0.00  0.00    +0.000 OA
ATOM     34  C   UNL     1      -4.806  10.575  17.882  0.00  0.00    +0.000 C 
ATOM     35  O   UNL     1      -6.220  10.472  18.165  0.00  0.00    +0.000 OA
ENDBRANCH  26  27
ENDBRANCH  24  26
ENDBRANCH  20  22
ENDBRANCH   6  20
TORSDOF 5
ENDMDL
MODEL 2
REMARK VINA RESULT:      -8.7      1.103      1.437
REMARK  Name = 
REMARK  9 active torsions:
REMARK  status: ('A' for Active; 'I' for Inactive)
REMARK    1  A    between atoms: C_1  and  C_2
REMARK    2  A    between atoms: C_5  and  N_6
REMARK    3  A    between atoms: N_11  and  C_12
REMARK    4  A    between atoms: C_12  and  C_13
REMARK    5  A    between atoms: C_12  and  C_14
REMARK    6  A    between atoms: N_16  and  C_17
REMARK    7  A    between atoms: C_17  and  C_18
REMARK    8  A    between atoms: C_28  and  C_29
REMARK    9  A    between atoms: C_31  and  C_32
REMARK                            x       y       z     vdW  Elec       q    Type
REMARK                         _______ _______ _______ _____ _____    ______ ____
ROOT
ATOM      1  N   UNL     1       1.512   8.380  19.935  0.00  0.00    +0.000 N 
ATOM      2  N   UNL     1       1.151   8.506  21.254  0.00  0.00    +0.000 NA
ATOM      3  C   UNL     1       0.442   9.653  21.311  0.00  0.00    +0.000 A 
ATOM      4  C   UNL     1      -0.132  10.325  22.502  0.00  0.00    +0.000 A 
ATOM      5  O   UNL     1       0.029   9.925  23.652  0.00  0.00    +0.000 OA
ATOM      6  N   UNL     1      -0.891  11.483  22.175  0.00  0.00    +0.000 N 
ATOM      7  N   UNL     1      -1.077  11.961  20.882  0.00  0.00    +0.000 NA
ATOM      8  C   UNL     1      -0.548  11.385  19.848  0.00  0.00    +0.000 A 
ATOM      9  C   UNL     1      -0.836  11.978  18.499  0.00  0.00    +0.000 C 
ATOM     10  C   UNL     1       0.246  10.199  20.033  0.00  0.00    +0.000 A 
ATOM     11  C   UNL     1       0.884   9.354  19.149  0.00  0.00    +0.000 A 
ATOM     12  C   UNL     1       0.852   9.325  17.664  0.00  0.00    +0.000 C 
ENDROOT
BRANCH   1  17
ATOM     13  C   UNL     1       4.046   3.960  17.305  0.00  0.00    +0.000 C 
ATOM     14  C   UNL     1       3.514   5.106  18.117  0.00  0.00    +0.000 A 
ATOM     15  C   UNL     1       2.814   4.923  19.320  0.00  0.00    +0.000 A 
ATOM     16  C   UNL     1       2.231   6.015  19.999  0.00  0.00    +0.000 A 
ATOM     17  C   UNL     1       2.320   7.297  19.450  0.00  0.00    +0.000 A 
ATOM     18  C   UNL     1       3.134   7.485  18.319  0.00  0.00    +0.000 A 
ATOM     19  C   UNL     1       3.696   6.404  17.643  0.00  0.00    +0.000 A 
ENDBRANCH   1  17
BRANCH   6  20
ATOM     20  C   UNL     1      -1.446  12.378  23.220  0.00  0.00    +0.000 C 
ATOM     21  C   UNL     1      -0.851  13.791  23.098  0.00  0.00    +0.000 C 
BRANCH  20  22
ATOM     22  C   UNL     1      -3.003  12.464  23.187  0.00  0.00    +0.000 C 
ATOM     23  O   UNL     1      -3.715  11.834  23.971  0.00  0.00    +0.000 OA
ATOM     24  N   UNL     1      -3.544  13.140  22.109  0.00  0.00    +0.000 N 
ATOM     25  H   UNL     1      -2.914  13.742  21.597  0.00  0.00    +0.000 HD
BRANCH  24  26
ATOM     26  C   UNL     1      -4.979  13.363  21.952  0.00  0.00    +0.000 C 
BRANCH  26  27
ATOM     27  C   UNL     1      -5.450  12.787  20.635  0.00  0.00    +0.000 A 
ATOM     28  C   UNL     1      -4.541  12.090  19.797  0.00  0.00    +0.000 A 
ATOM     29  C   UNL     1      -4.794  11.949  18.430  0.00  0.00    +0.000 A 
ATOM     30  C   UNL     1      -5.942  12.541  17.956  0.00  0.00    +0.000 A 
ATOM     31  C   UNL     1      -6.903  13.062  18.798  0.00  0.00    +0.000 A 
ATOM     32  C   UNL     1      -6.715  13.151  20.154  0.00  0.00    +0.000 A 
ATOM     33  O   UNL     1      -7.891  13.704  18.108  0.00  0.00    +0.000 OA
ATOM     34  C   UNL     1      -7.154  13.932  16.895  0.00  0.00    +0.000 C 
ATOM     35  O   UNL     1      -6.190  12.882  16.655  0.00  0.00    +0.000 OA
ENDBRANCH  26  27
ENDBRANCH  24  26
ENDBRANCH  20  22
ENDBRANCH   6  20
TORSDOF 5
ENDMDL
MODEL 3
REMARK VINA RESULT:      -8.2      2.942      4.526
REMARK  Name = 
REMARK  9 active torsions:
REMARK  status: ('A' for Active; 'I' for Inactive)
REMARK    1  A    between atoms: C_1  and  C_2
REMARK    2  A    between atoms: C_5  and  N_6
REMARK    3  A    between atoms: N_11  and  C_12
REMARK    4  A    between atoms: C_12  and  C_13
REMARK    5  A    between atoms: C_12  and  C_14
REMARK    6  A    between atoms: N_16  and  C_17
REMARK    7  A    between atoms: C_17  and  C_18
REMARK    8  A    between atoms: C_28  and  C_29
REMARK    9  A    between atoms: C_31  and  C_32
REMARK                            x       y       z     vdW  Elec       q    Type
REMARK                         _______ _______ _______ _____ _____    ______ ____
ROOT
ATOM      1  N   UNL     1       2.412   6.956  18.769  0.00  0.00    +0.000 N 
ATOM      2  N   UNL     1       2.709   8.077  18.035  0.00  0.00    +0.000 NA
ATOM      3  C   UNL     1       2.064   9.083  18.664  0.00  0.00    +0.000 A 
ATOM      4  C   UNL     1       1.967  10.508  18.265  0.00  0.00    +0.000 A 
ATOM      5  O   UNL     1       2.441  10.958  17.225  0.00  0.00    +0.000 OA
ATOM      6  N   UNL     1       1.269  11.305  19.215  0.00  0.00    +0.000 N 
ATOM      7  N   UNL     1       0.714  10.816  20.393  0.00  0.00    +0.000 NA
ATOM      8  C   UNL     1       0.777   9.564  20.721  0.00  0.00    +0.000 A 
ATOM      9  C   UNL     1       0.162   9.155  22.028  0.00  0.00    +0.000 C 
ATOM     10  C   UNL     1       1.458   8.642  19.850  0.00  0.00    +0.000 A 
ATOM     11  C   UNL     1       1.729   7.293  19.944  0.00  0.00    +0.000 A 
ATOM     12  C   UNL     1       1.505   6.350  21.072  0.00  0.00    +0.000 C 
ENDROOT
BRANCH   1  17
ATOM     13  C   UNL     1       3.801   1.428  18.148  0.00  0.00    +0.000 C 
ATOM     14  C   UNL     1       3.542   2.907  18.167  0.00  0.00    +0.000 A 
ATOM     15  C   UNL     1       4.479   3.835  18.648  0.00  0.00    +0.000 A 
ATOM     16  C   UNL     1       4.159   5.206  18.756  0.00  0.00    +0.000 A 
ATOM     17  C   UNL     1       2.878   5.646  18.411  0.00  0.00    +0.000 A 
ATOM     18  C   UNL     1       1.997   4.731  17.808  0.00  0.00    +0.000 A 
ATOM     19  C   UNL     1       2.310   3.376  17.716  0.00  0.00    +0.000 A 
ENDBRANCH   1  17
BRANCH   6  20
ATOM     20  C   UNL     1       0.945  12.730  18.957  0.00  0.00    +0.000 C 
ATOM     21  C   UNL     1      -0.441  12.862  18.303  0.00  0.00    +0.000 C 
BRANCH  20  22
ATOM     22  C   UNL     1       1.000  13.611  20.243  0.00  0.00    +0.000 C 
ATOM     23  O   UNL     1       2.017  14.219  20.581  0.00  0.00    +0.000 OA
ATOM     24  N   UNL     1      -0.097  13.522  21.080  0.00  0.00    +0.000 N 
ATOM     25  H   UNL     1      -0.935  13.127  20.676  0.00  0.00    +0.000 HD
BRANCH  24  26
ATOM     26  C   UNL     1      -0.234  14.320  22.295  0.00  0.00    +0.000 C 
BRANCH  26  27
ATOM     27  C   UNL     1      -1.359  13.774  23.147  0.00  0.00    +0.000 A 
ATOM     28  C   UNL     1      -1.594  12.376  23.205  0.00  0.00    +0.000 A 
ATOM     29  C   UNL     1      -2.843  11.877  23.584  0.00  0.00    +0.000 A 
ATOM     30  C   UNL     1      -3.815  12.809  23.866  0.00  0.00    +0.000 A 
ATOM     31  C   UNL     1      -3.533  14.156  23.978  0.00  0.00    +0.000 A 
ATOM     32  C   UNL     1      -2.297  14.669  23.679  0.00  0.00    +0.000 A 
ATOM     33  O   UNL     1      -4.665  14.902  24.139  0.00  0.00    +0.000 OA
ATOM     34  C   UNL     1      -5.598  13.944  23.609  0.00  0.00    +0.000 C 
ATOM     35  O   UNL     1      -5.165  12.588  23.859  0.00  0.00    +0.000 OA
ENDBRANCH  26  27
ENDBRANCH  24  26
ENDBRANCH  20  22
ENDBRANCH   6  20
TORSDOF 5
ENDMDL
MODEL 4
REMARK VINA RESULT:      -8.2      1.425      1.956
REMARK  Name = 
REMARK  9 active torsions:
REMARK  status: ('A' for Active; 'I' for Inactive)
REMARK    1  A    between atoms: C_1  and  C_2
REMARK    2  A    between atoms: C_5  and  N_6
REMARK    3  A    between atoms: N_11  and  C_12
REMARK    4  A    between atoms: C_12  and  C_13
REMARK    5  A    between atoms: C_12  and  C_14
REMARK    6  A    between atoms: N_16  and  C_17
REMARK    7  A    between atoms: C_17  and  C_18
REMARK    8  A    between atoms: C_28  and  C_29
REMARK    9  A    between atoms: C_31  and  C_32
REMARK                            x       y       z     vdW  Elec       q    Type
REMARK                         _______ _______ _______ _____ _____    ______ ____
ROOT
ATOM      1  N   UNL     1       1.710   7.671  20.195  0.00  0.00    +0.000 N 
ATOM      2  N   UNL     1       1.112   7.910  21.407  0.00  0.00    +0.000 NA
ATOM      3  C   UNL     1       0.669   9.182  21.330  0.00  0.00    +0.000 A 
ATOM      4  C   UNL     1       0.011   9.996  22.382  0.00  0.00    +0.000 A 
ATOM      5  O   UNL     1      -0.166   9.606  23.533  0.00  0.00    +0.000 OA
ATOM      6  N   UNL     1      -0.397  11.278  21.918  0.00  0.00    +0.000 N 
ATOM      7  N   UNL     1      -0.198  11.745  20.624  0.00  0.00    +0.000 NA
ATOM      8  C   UNL     1       0.404  11.040  19.718  0.00  0.00    +0.000 A 
ATOM      9  C   UNL     1       0.543  11.639  18.348  0.00  0.00    +0.000 C 
ATOM     10  C   UNL     1       0.869   9.719  20.049  0.00  0.00    +0.000 A 
ATOM     11  C   UNL     1       1.485   8.732  19.309  0.00  0.00    +0.000 A 
ATOM     12  C   UNL     1       1.765   8.666  17.850  0.00  0.00    +0.000 C 
ENDROOT
BRANCH   1  17
ATOM     13  C   UNL     1       4.430   2.633  19.893  0.00  0.00    +0.000 C 
ATOM     14  C   UNL     1       3.714   3.949  19.791  0.00  0.00    +0.000 A 
ATOM     15  C   UNL     1       4.366   5.141  19.437  0.00  0.00    +0.000 A 
ATOM     16  C   UNL     1       3.686   6.379  19.462  0.00  0.00    +0.000 A 
ATOM     17  C   UNL     1       2.353   6.428  19.877  0.00  0.00    +0.000 A 
ATOM     18  C   UNL     1       1.678   5.215  20.100  0.00  0.00    +0.000 A 
ATOM     19  C   UNL     1       2.354   3.996  20.090  0.00  0.00    +0.000 A 
ENDBRANCH   1  17
BRANCH   6  20
ATOM     20  C   UNL     1      -0.958  12.301  22.835  0.00  0.00    +0.000 C 
ATOM     21  C   UNL     1      -0.508  13.711  22.417  0.00  0.00    +0.000 C 
BRANCH  20  22
ATOM     22  C   UNL     1      -2.515  12.256  22.920  0.00  0.00    +0.000 C 
ATOM     23  O   UNL     1      -3.108  11.744  23.872  0.00  0.00    +0.000 OA
ATOM     24  N   UNL     1      -3.191  12.655  21.782  0.00  0.00    +0.000 N 
ATOM     25  H   UNL     1      -2.657  13.189  21.110  0.00  0.00    +0.000 HD
BRANCH  24  26
ATOM     26  C   UNL     1      -4.648  12.729  21.709  0.00  0.00    +0.000 C 
BRANCH  26  27
ATOM     27  C   UNL     1      -5.119  12.292  20.340  0.00  0.00    +0.000 A 
ATOM     28  C   UNL     1      -4.175  11.933  19.343  0.00  0.00    +0.000 A 
ATOM     29  C   UNL     1      -4.518  11.969  17.989  0.00  0.00    +0.000 A 
ATOM     30  C   UNL     1      -5.792  12.392  17.690  0.00  0.00    +0.000 A 
ATOM     31  C   UNL     1      -6.754  12.571  18.664  0.00  0.00    +0.000 A 
ATOM     32  C   UNL     1      -6.466  12.474  20.001  0.00  0.00    +0.000 A 
ATOM     33  O   UNL     1      -7.900  13.109  18.154  0.00  0.00    +0.000 OA
ATOM     34  C   UNL     1      -7.329  13.671  16.960  0.00  0.00    +0.000 C 
ATOM     35  O   UNL     1      -6.212  12.884  16.486  0.00  0.00    +0.000 OA
ENDBRANCH  26  27
ENDBRANCH  24  26
ENDBRANCH  20  22
ENDBRANCH   6  20
TORSDOF 5
ENDMDL
MODEL 5
REMARK VINA RESULT:      -8.1      0.933      1.002
REMARK  Name = 
REMARK  9 active torsions:
REMARK  status: ('A' for Active; 'I' for Inactive)
REMARK    1  A    between atoms: C_1  and  C_2
REMARK    2  A    between atoms: C_5  and  N_6
REMARK    3  A    between atoms: N_11  and  C_12
REMARK    4  A    between atoms: C_12  and  C_13
REMARK    5  A    between atoms: C_12  and  C_14
REMARK    6  A    between atoms: N_16  and  C_17
REMARK    7  A    between atoms: C_17  and  C_18
REMARK    8  A    between atoms: C_28  and  C_29
REMARK    9  A    between atoms: C_31  and  C_32
REMARK                            x       y       z     vdW  Elec       q    Type
REMARK                         _______ _______ _______ _____ _____    ______ ____
ROOT
ATOM      1  N   UNL     1       1.190   8.602  20.229  0.00  0.00    +0.000 N 
ATOM      2  N   UNL     1       0.595   8.757  21.456  0.00  0.00    +0.000 NA
ATOM      3  C   UNL     1       0.102  10.013  21.447  0.00  0.00    +0.000 A 
ATOM      4  C   UNL     1      -0.576  10.747  22.543  0.00  0.00    +0.000 A 
ATOM      5  O   UNL     1      -0.727  10.293  23.674  0.00  0.00    +0.000 OA
ATOM      6  N   UNL     1      -1.038  12.033  22.148  0.00  0.00    +0.000 N 
ATOM      7  N   UNL     1      -0.869  12.572  20.878  0.00  0.00    +0.000 NA
ATOM      8  C   UNL     1      -0.250  11.937  19.933  0.00  0.00    +0.000 A 
ATOM      9  C   UNL     1      -0.147  12.610  18.594  0.00  0.00    +0.000 C 
ATOM     10  C   UNL     1       0.269  10.621  20.193  0.00  0.00    +0.000 A 
ATOM     11  C   UNL     1       0.916   9.697  19.399  0.00  0.00    +0.000 A 
ATOM     12  C   UNL     1       1.184   9.715  17.937  0.00  0.00    +0.000 C 
ENDROOT
BRANCH   1  17
ATOM     13  C   UNL     1       3.185   3.683  18.064  0.00  0.00    +0.000 C 
ATOM     14  C   UNL     1       2.803   4.965  18.745  0.00  0.00    +0.000 A 
ATOM     15  C   UNL     1       2.188   4.999  20.007  0.00  0.00    +0.000 A 
ATOM     16  C   UNL     1       1.740   6.216  20.567  0.00  0.00    +0.000 A 
ATOM     17  C   UNL     1       1.878   7.402  19.843  0.00  0.00    +0.000 A 
ATOM     18  C   UNL     1       2.611   7.372  18.644  0.00  0.00    +0.000 A 
ATOM     19  C   UNL     1       3.040   6.169  18.086  0.00  0.00    +0.000 A 
ENDBRANCH   1  17
BRANCH   6  20
ATOM     20  C   UNL     1      -1.629  12.986  23.120  0.00  0.00    +0.000 C 
ATOM     21  C   UNL     1      -0.742  14.234  23.266  0.00  0.00    +0.000 C 
BRANCH  20  22
ATOM     22  C   UNL     1      -3.080  13.420  22.744  0.00  0.00    +0.000 C 
ATOM     23  O   UNL     1      -3.458  14.591  22.823  0.00  0.00    +0.000 OA
ATOM     24  N   UNL     1      -3.969  12.392  22.496  0.00  0.00    +0.000 N 
ATOM     25  H   UNL     1      -3.563  11.485  22.310  0.00  0.00    +0.000 HD
BRANCH  24  26
ATOM     26  C   UNL     1      -5.349  12.620  22.076  0.00  0.00    +0.000 C 
BRANCH  26  27
ATOM     27  C   UNL     1      -5.488  12.360  20.593  0.00  0.00    +0.000 A 
ATOM     28  C   UNL     1      -6.620  11.662  20.095  0.00  0.00    +0.000 A 
ATOM     29  C   UNL     1      -6.575  11.018  18.856  0.00  0.00    +0.000 A 
ATOM     30  C   UNL     1      -5.380  11.080  18.178  0.00  0.00    +0.000 A 
ATOM     31  C   UNL     1      -4.346  11.900  18.582  0.00  0.00    +0.000 A 
ATOM     32  C   UNL     1      -4.388  12.601  19.759  0.00  0.00    +0.000 A 
ATOM     33  O   UNL     1      -3.220  11.706  17.834  0.00  0.00    +0.000 OA
ATOM     34  C   UNL     1      -3.546  10.395  17.340  0.00  0.00    +0.000 C 
ATOM     35  O   UNL     1      -4.974  10.226  17.189  0.00  0.00    +0.000 OA
ENDBRANCH  26  27
ENDBRANCH  24  26
ENDBRANCH  20  22
ENDBRANCH   6  20
TORSDOF 5
ENDMDL
MODEL 6
REMARK VINA RESULT:      -7.9      1.208      1.675
REMARK  Name = 
REMARK  9 active torsions:
REMARK  status: ('A' for Active; 'I' for Inactive)
REMARK    1  A    between atoms: C_1  and  C_2
REMARK    2  A    between atoms: C_5  and  N_6
REMARK    3  A    between atoms: N_11  and  C_12
REMARK    4  A    between atoms: C_12  and  C_13
REMARK    5  A    between atoms: C_12  and  C_14
REMARK    6  A    between atoms: N_16  and  C_17
REMARK    7  A    between atoms: C_17  and  C_18
REMARK    8  A    between atoms: C_28  and  C_29
REMARK    9  A    between atoms: C_31  and  C_32
REMARK                            x       y       z     vdW  Elec       q    Type
REMARK                         _______ _______ _______ _____ _____    ______ ____
ROOT
ATOM      1  N   UNL     1       1.379   8.328  20.154  0.00  0.00    +0.000 N 
ATOM      2  N   UNL     1       0.649   8.434  21.311  0.00  0.00    +0.000 NA
ATOM      3  C   UNL     1       0.213   9.711  21.329  0.00  0.00    +0.000 A 
ATOM      4  C   UNL     1      -0.560  10.408  22.386  0.00  0.00    +0.000 A 
ATOM      5  O   UNL     1      -0.863   9.893  23.459  0.00  0.00    +0.000 OA
ATOM      6  N   UNL     1      -0.919  11.738  22.028  0.00  0.00    +0.000 N 
ATOM      7  N   UNL     1      -0.578  12.345  20.824  0.00  0.00    +0.000 NA
ATOM      8  C   UNL     1       0.123  11.741  19.917  0.00  0.00    +0.000 A 
ATOM      9  C   UNL     1       0.411  12.488  18.647  0.00  0.00    +0.000 C 
ATOM     10  C   UNL     1       0.553  10.387  20.146  0.00  0.00    +0.000 A 
ATOM     11  C   UNL     1       1.251   9.483  19.373  0.00  0.00    +0.000 A 
ATOM     12  C   UNL     1       1.691   9.578  17.956  0.00  0.00    +0.000 C 
ENDROOT
BRANCH   1  17
ATOM     13  C   UNL     1       4.705   3.725  19.361  0.00  0.00    +0.000 C 
ATOM     14  C   UNL     1       3.744   4.878  19.421  0.00  0.00    +0.000 A 
ATOM     15  C   UNL     1       3.840   5.990  18.570  0.00  0.00    +0.000 A 
ATOM     16  C   UNL     1       2.989   7.106  18.730  0.00  0.00    +0.000 A 
ATOM     17  C   UNL     1       2.058   7.122  19.771  0.00  0.00    +0.000 A 
ATOM     18  C   UNL     1       1.883   5.951  20.529  0.00  0.00    +0.000 A 
ATOM     19  C   UNL     1       2.734   4.857  20.380  0.00  0.00    +0.000 A 
ENDBRANCH   1  17
BRANCH   6  20
ATOM     20  C   UNL     1      -1.582  12.657  22.986  0.00  0.00    +0.000 C 
ATOM     21  C   UNL     1      -0.698  13.885  23.260  0.00  0.00    +0.000 C 
BRANCH  20  22
ATOM     22  C   UNL     1      -2.991  13.125  22.507  0.00  0.00    +0.000 C 
ATOM     23  O   UNL     1      -3.495  14.184  22.884  0.00  0.00    +0.000 OA
ATOM     24  N   UNL     1      -3.719  12.198  21.785  0.00  0.00    +0.000 N 
ATOM     25  H   UNL     1      -3.197  11.423  21.398  0.00  0.00    +0.000 HD
BRANCH  24  26
ATOM     26  C   UNL     1      -5.030  12.490  21.213  0.00  0.00    +0.000 C 
BRANCH  26  27
ATOM     27  C   UNL     1      -4.948  12.489  19.703  0.00  0.00    +0.000 A 
ATOM     28  C   UNL     1      -6.132  12.402  18.926  0.00  0.00    +0.000 A 
ATOM     29  C   UNL     1      -6.087  11.949  17.604  0.00  0.00    +0.000 A 
ATOM     30  C   UNL     1      -4.852  11.577  17.126  0.00  0.00    +0.000 A 
ATOM     31  C   UNL     1      -3.688  11.827  17.823  0.00  0.00    +0.000 A 
ATOM     32  C   UNL     1      -3.694  12.336  19.096  0.00  0.00    +0.000 A 
ATOM     33  O   UNL     1      -2.601  11.262  17.218  0.00  0.00    +0.000 OA
ATOM     34  C   UNL     1      -3.309  10.282  16.440  0.00  0.00    +0.000 C 
ATOM     35  O   UNL     1      -4.621  10.754  16.058  0.00  0.00    +0.000 OA
ENDBRANCH  26  27
ENDBRANCH  24  26
ENDBRANCH  20  22
ENDBRANCH   6  20
TORSDOF 5
ENDMDL
MODEL 7
REMARK VINA RESULT:      -7.9      3.378     10.020
REMARK  Name = 
REMARK  9 active torsions:
REMARK  status: ('A' for Active; 'I' for Inactive)
REMARK    1  A    between atoms: C_1  and  C_2
REMARK    2  A    between atoms: C_5  and  N_6
REMARK    3  A    between atoms: N_11  and  C_12
REMARK    4  A    between atoms: C_12  and  C_13
REMARK    5  A    between atoms: C_12  and  C_14
REMARK    6  A    between atoms: N_16  and  C_17
REMARK    7  A    between atoms: C_17  and  C_18
REMARK    8  A    between atoms: C_28  and  C_29
REMARK    9  A    between atoms: C_31  and  C_32
REMARK                            x       y       z     vdW  Elec       q    Type
REMARK                         _______ _______ _______ _____ _____    ______ ____
ROOT
ATOM      1  N   UNL     1      -1.513  12.454  22.309  0.00  0.00    +0.000 N 
ATOM      2  N   UNL     1      -0.504  11.711  22.868  0.00  0.00    +0.000 NA
ATOM      3  C   UNL     1      -0.155  10.824  21.912  0.00  0.00    +0.000 A 
ATOM      4  C   UNL     1       0.834   9.721  21.992  0.00  0.00    +0.000 A 
ATOM      5  O   UNL     1       1.446   9.430  23.015  0.00  0.00    +0.000 OA
ATOM      6  N   UNL     1       1.002   9.035  20.757  0.00  0.00    +0.000 N 
ATOM      7  N   UNL     1       0.312   9.340  19.589  0.00  0.00    +0.000 NA
ATOM      8  C   UNL     1      -0.572  10.286  19.533  0.00  0.00    +0.000 A 
ATOM      9  C   UNL     1      -1.239  10.540  18.212  0.00  0.00    +0.000 C 
ATOM     10  C   UNL     1      -0.843  11.066  20.713  0.00  0.00    +0.000 A 
ATOM     11  C   UNL     1      -1.670  12.143  20.952  0.00  0.00    +0.000 A 
ATOM     12  C   UNL     1      -2.483  12.951  20.006  0.00  0.00    +0.000 C 
ENDROOT
BRANCH   1  17
ATOM     13  C   UNL     1      -4.884  16.594  24.399  0.00  0.00    +0.000 C 
ATOM     14  C   UNL     1      -3.892  15.542  23.992  0.00  0.00    +0.000 A 
ATOM     15  C   UNL     1      -2.665  15.852  23.383  0.00  0.00    +0.000 A 
ATOM     16  C   UNL     1      -1.808  14.833  22.911  0.00  0.00    +0.000 A 
ATOM     17  C   UNL     1      -2.198  13.496  23.020  0.00  0.00    +0.000 A 
ATOM     18  C   UNL     1      -3.362  13.197  23.749  0.00  0.00    +0.000 A 
ATOM     19  C   UNL     1      -4.214  14.203  24.200  0.00  0.00    +0.000 A 
ENDBRANCH   1  17
BRANCH   6  20
ATOM     20  C   UNL     1       1.845   7.819  20.644  0.00  0.00    +0.000 C 
ATOM     21  C   UNL     1       1.069   6.575  21.109  0.00  0.00    +0.000 C 
BRANCH  20  22
ATOM     22  C   UNL     1       2.388   7.584  19.200  0.00  0.00    +0.000 C 
ATOM     23  O   UNL     1       2.503   8.500  18.384  0.00  0.00    +0.000 OA
ATOM     24  N   UNL     1       2.557   6.264  18.829  0.00  0.00    +0.000 N 
ATOM     25  H   UNL     1       2.582   5.588  19.581  0.00  0.00    +0.000 HD
BRANCH  24  26
ATOM     26  C   UNL     1       3.108   5.867  17.537  0.00  0.00    +0.000 C 
BRANCH  26  27
ATOM     27  C   UNL     1       4.614   5.760  17.629  0.00  0.00    +0.000 A 
ATOM     28  C   UNL     1       5.212   4.998  18.667  0.00  0.00    +0.000 A 
ATOM     29  C   UNL     1       6.533   5.235  19.056  0.00  0.00    +0.000 A 
ATOM     30  C   UNL     1       7.193   6.249  18.401  0.00  0.00    +0.000 A 
ATOM     31  C   UNL     1       6.669   6.864  17.282  0.00  0.00    +0.000 A 
ATOM     32  C   UNL     1       5.400   6.603  16.832  0.00  0.00    +0.000 A 
ATOM     33  O   UNL     1       7.435   7.918  16.875  0.00  0.00    +0.000 OA
ATOM     34  C   UNL     1       8.119   8.145  18.120  0.00  0.00    +0.000 C 
ATOM     35  O   UNL     1       8.296   6.914  18.858  0.00  0.00    +0.000 OA
ENDBRANCH  26  27
ENDBRANCH  24  26
ENDBRANCH  20  22
ENDBRANCH   6  20
TORSDOF 5
ENDMDL
MODEL 8
REMARK VINA RESULT:      -7.9      4.379      6.709
REMARK  Name = 
REMARK  9 active torsions:
REMARK  status: ('A' for Active; 'I' for Inactive)
REMARK    1  A    between atoms: C_1  and  C_2
REMARK    2  A    between atoms: C_5  and  N_6
REMARK    3  A    between atoms: N_11  and  C_12
REMARK    4  A    between atoms: C_12  and  C_13
REMARK    5  A    between atoms: C_12  and  C_14
REMARK    6  A    between atoms: N_16  and  C_17
REMARK    7  A    between atoms: C_17  and  C_18
REMARK    8  A    between atoms: C_28  and  C_29
REMARK    9  A    between atoms: C_31  and  C_32
REMARK                            x       y       z     vdW  Elec       q    Type
REMARK                         _______ _______ _______ _____ _____    ______ ____
ROOT
ATOM      1  N   UNL     1       4.276   5.791  17.302  0.00  0.00    +0.000 N 
ATOM      2  N   UNL     1       3.809   7.082  17.289  0.00  0.00    +0.000 NA
ATOM      3  C   UNL     1       2.965   7.155  18.340  0.00  0.00    +0.000 A 
ATOM      4  C   UNL     1       2.114   8.294  18.763  0.00  0.00    +0.000 A 
ATOM      5  O   UNL     1       2.028   9.348  18.137  0.00  0.00    +0.000 OA
ATOM      6  N   UNL     1       1.408   8.042  19.972  0.00  0.00    +0.000 N 
ATOM      7  N   UNL     1       1.482   6.854  20.691  0.00  0.00    +0.000 NA
ATOM      8  C   UNL     1       2.205   5.852  20.300  0.00  0.00    +0.000 A 
ATOM      9  C   UNL     1       2.224   4.627  21.169  0.00  0.00    +0.000 C 
ATOM     10  C   UNL     1       2.976   5.969  19.091  0.00  0.00    +0.000 A 
ATOM     11  C   UNL     1       3.856   5.119  18.456  0.00  0.00    +0.000 A 
ATOM     12  C   UNL     1       4.407   3.810  18.899  0.00  0.00    +0.000 C 
ENDROOT
BRANCH   1  17
ATOM     13  C   UNL     1       7.718   4.602  12.873  0.00  0.00    +0.000 C 
ATOM     14  C   UNL     1       6.855   4.747  14.094  0.00  0.00    +0.000 A 
ATOM     15  C   UNL     1       5.591   4.146  14.205  0.00  0.00    +0.000 A 
ATOM     16  C   UNL     1       4.760   4.397  15.318  0.00  0.00    +0.000 A 
ATOM     17  C   UNL     1       5.183   5.282  16.312  0.00  0.00    +0.000 A 
ATOM     18  C   UNL     1       6.500   5.771  16.254  0.00  0.00    +0.000 A 
ATOM     19  C   UNL     1       7.313   5.535  15.147  0.00  0.00    +0.000 A 
ENDBRANCH   1  17
BRANCH   6  20
ATOM     20  C   UNL     1       0.403   8.994  20.507  0.00  0.00    +0.000 C 
ATOM     21  C   UNL     1      -0.510   8.301  21.531  0.00  0.00    +0.000 C 
BRANCH  20  22
ATOM     22  C   UNL     1       1.046  10.260  21.154  0.00  0.00    +0.000 C 
ATOM     23  O   UNL     1       1.474  10.262  22.310  0.00  0.00    +0.000 OA
ATOM     24  N   UNL     1       0.938  11.428  20.424  0.00  0.00    +0.000 N 
ATOM     25  H   UNL     1       0.710  11.324  19.445  0.00  0.00    +0.000 HD
BRANCH  24  26
ATOM     26  C   UNL     1       1.532  12.691  20.855  0.00  0.00    +0.000 C 
BRANCH  26  27
ATOM     27  C   UNL     1       1.645  13.637  19.681  0.00  0.00    +0.000 A 
ATOM     28  C   UNL     1       2.819  13.644  18.883  0.00  0.00    +0.000 A 
ATOM     29  C   UNL     1       3.152  14.761  18.112  0.00  0.00    +0.000 A 
ATOM     30  C   UNL     1       2.301  15.839  18.196  0.00  0.00    +0.000 A 
ATOM     31  C   UNL     1       1.078  15.762  18.831  0.00  0.00    +0.000 A 
ATOM     32  C   UNL     1       0.691  14.653  19.539  0.00  0.00    +0.000 A 
ATOM     33  O   UNL     1       0.461  16.979  18.897  0.00  0.00    +0.000 OA
ATOM     34  C   UNL     1       1.633  17.793  18.713  0.00  0.00    +0.000 C 
ATOM     35  O   UNL     1       2.611  17.132  17.878  0.00  0.00    +0.000 OA
ENDBRANCH  26  27
ENDBRANCH  24  26
ENDBRANCH  20  22
ENDBRANCH   6  20
TORSDOF 5
ENDMDL
MODEL 9
REMARK VINA RESULT:      -7.9      1.377      1.836
REMARK  Name = 
REMARK  9 active torsions:
REMARK  status: ('A' for Active; 'I' for Inactive)
REMARK    1  A    between atoms: C_1  and  C_2
REMARK    2  A    between atoms: C_5  and  N_6
REMARK    3  A    between atoms: N_11  and  C_12
REMARK    4  A    between atoms: C_12  and  C_13
REMARK    5  A    between atoms: C_12  and  C_14
REMARK    6  A    between atoms: N_16  and  C_17
REMARK    7  A    between atoms: C_17  and  C_18
REMARK    8  A    between atoms: C_28  and  C_29
REMARK    9  A    between atoms: C_31  and  C_32
REMARK                            x       y       z     vdW  Elec       q    Type
REMARK                         _______ _______ _______ _____ _____    ______ ____
ROOT
ATOM      1  N   UNL     1       0.904   8.957  20.053  0.00  0.00    +0.000 N 
ATOM      2  N   UNL     1       0.388   9.149  21.311  0.00  0.00    +0.000 NA
ATOM      3  C   UNL     1      -0.184  10.370  21.269  0.00  0.00    +0.000 A 
ATOM      4  C   UNL     1      -0.829  11.126  22.370  0.00  0.00    +0.000 A 
ATOM      5  O   UNL     1      -0.870  10.732  23.533  0.00  0.00    +0.000 OA
ATOM      6  N   UNL     1      -1.399  12.357  21.941  0.00  0.00    +0.000 N 
ATOM      7  N   UNL     1      -1.356  12.828  20.633  0.00  0.00    +0.000 NA
ATOM      8  C   UNL     1      -0.765  12.177  19.681  0.00  0.00    +0.000 A 
ATOM      9  C   UNL     1      -0.800  12.773  18.304  0.00  0.00    +0.000 C 
ATOM     10  C   UNL     1      -0.145  10.911  19.974  0.00  0.00    +0.000 A 
ATOM     11  C   UNL     1       0.502   9.982  19.187  0.00  0.00    +0.000 A 
ATOM     12  C   UNL     1       0.664   9.929  17.710  0.00  0.00    +0.000 C 
ENDROOT
BRANCH   1  17
ATOM     13  C   UNL     1       4.501   4.569  19.234  0.00  0.00    +0.000 C 
ATOM     14  C   UNL     1       3.460   5.648  19.315  0.00  0.00    +0.000 A 
ATOM     15  C   UNL     1       3.382   6.698  18.386  0.00  0.00    +0.000 A 
ATOM     16  C   UNL     1       2.462   7.756  18.557  0.00  0.00    +0.000 A 
ATOM     17  C   UNL     1       1.638   7.780  19.684  0.00  0.00    +0.000 A 
ATOM     18  C   UNL     1       1.634   6.659  20.533  0.00  0.00    +0.000 A 
ATOM     19  C   UNL     1       2.552   5.623  20.371  0.00  0.00    +0.000 A 
ENDBRANCH   1  17
BRANCH   6  20
ATOM     20  C   UNL     1      -1.981  13.329  22.899  0.00  0.00    +0.000 C 
ATOM     21  C   UNL     1      -0.900  14.290  23.422  0.00  0.00    +0.000 C 
BRANCH  20  22
ATOM     22  C   UNL     1      -3.161  14.151  22.295  0.00  0.00    +0.000 C 
ATOM     23  O   UNL     1      -3.187  15.383  22.324  0.00  0.00    +0.000 OA
ATOM     24  N   UNL     1      -4.261  13.417  21.893  0.00  0.00    +0.000 N 
ATOM     25  H   UNL     1      -4.113  12.425  21.766  0.00  0.00    +0.000 HD
BRANCH  24  26
ATOM     26  C   UNL     1      -5.427  14.021  21.255  0.00  0.00    +0.000 C 
BRANCH  26  27
ATOM     27  C   UNL     1      -6.474  12.963  20.985  0.00  0.00    +0.000 A 
ATOM     28  C   UNL     1      -7.287  12.479  22.043  0.00  0.00    +0.000 A 
ATOM     29  C   UNL     1      -7.915  11.235  21.949  0.00  0.00    +0.000 A 
ATOM     30  C   UNL     1      -7.679  10.514  20.802  0.00  0.00    +0.000 A 
ATOM     31  C   UNL     1      -7.035  11.060  19.710  0.00  0.00    +0.000 A 
ATOM     32  C   UNL     1      -6.467  12.307  19.747  0.00  0.00    +0.000 A 
ATOM     33  O   UNL     1      -6.803  10.129  18.738  0.00  0.00    +0.000 OA
ATOM     34  C   UNL     1      -6.905   8.960  19.569  0.00  0.00    +0.000 C 
ATOM     35  O   UNL     1      -7.836   9.163  20.657  0.00  0.00    +0.000 OA
ENDBRANCH  26  27
ENDBRANCH  24  26
ENDBRANCH  20  22
ENDBRANCH   6  20
TORSDOF 5
ENDMDL
