MODEL 1
REMARK VINA RESULT:      -8.1      0.000      0.000
REMARK  Name = 
REMARK  11 active torsions:
REMARK  status: ('A' for Active; 'I' for Inactive)
REMARK    1  A    between atoms: C_1  and  O_2
REMARK    2  A    between atoms: O_2  and  C_3
REMARK    3  A    between atoms: C_8  and  C_9
REMARK    4  A    between atoms: C_9  and  N_10
REMARK    5  A    between atoms: C_11  and  C_13
REMARK    6  A    between atoms: N_16  and  C_17
REMARK    7  A    between atoms: C_17  and  C_18
REMARK    8  A    between atoms: N_20  and  C_21
REMARK    9  A    between atoms: C_22  and  C_23
REMARK   10  A    between atoms: C_27  and  C_28
REMARK   11  A    between atoms: C_29  and  N_30
REMARK                            x       y       z     vdW  Elec       q    Type
REMARK                         _______ _______ _______ _____ _____    ______ ____
ROOT
ATOM      1  C   UNL     1       7.830   8.140  17.986  0.00  0.00    +0.000 A 
ATOM      2  N   UNL     1       7.014   8.245  16.875  0.00  0.00    +0.000 NA
ATOM      3  N   UNL     1       6.515   7.044  16.603  0.00  0.00    +0.000 NA
ATOM      4  N   UNL     1       7.014   6.177  17.510  0.00  0.00    +0.000 N 
ATOM      5  C   UNL     1       7.807   6.826  18.428  0.00  0.00    +0.000 A 
ENDROOT
BRANCH   1   7
ATOM      6  N   UNL     1       8.764  10.310  17.636  0.00  0.00    +0.000 N 
ATOM      7  C   UNL     1       8.625   9.250  18.507  0.00  0.00    +0.000 C 
ATOM      8  O   UNL     1       9.158   9.221  19.619  0.00  0.00    +0.000 OA
ATOM      9  H   UNL     1       8.204  10.308  16.791  0.00  0.00    +0.000 HD
BRANCH   6  10
ATOM     10  C   UNL     1       9.565  11.478  17.947  0.00  0.00    +0.000 C 
BRANCH  10  16
ATOM     11  C   UNL     1       8.879  13.480  19.401  0.00  0.00    +0.000 A 
ATOM     12  C   UNL     1       8.101  14.636  19.575  0.00  0.00    +0.000 A 
ATOM     13  C   UNL     1       7.110  14.975  18.652  0.00  0.00    +0.000 A 
ATOM     14  C   UNL     1       6.905  14.173  17.539  0.00  0.00    +0.000 A 
ATOM     15  C   UNL     1       7.701  13.048  17.334  0.00  0.00    +0.000 A 
ATOM     16  C   UNL     1       8.705  12.686  18.255  0.00  0.00    +0.000 A 
BRANCH  11  18
ATOM     17  C   UNL     1      10.983  13.977  20.344  0.00  0.00    +0.000 C 
ATOM     18  O   UNL     1       9.850  13.109  20.297  0.00  0.00    +0.000 OA
ENDBRANCH  11  18
ENDBRANCH  10  16
ENDBRANCH   6  10
ENDBRANCH   1   7
BRANCH   5  19
ATOM     19  N   UNL     1       8.399   6.198  19.474  0.00  0.00    +0.000 N 
ATOM     20  H   UNL     1       9.356   6.465  19.743  0.00  0.00    +0.000 HD
ATOM     21  H   UNL     1       7.826   6.032  20.307  0.00  0.00    +0.000 HD
ENDBRANCH   5  19
BRANCH   4  22
ATOM     22  C   UNL     1       6.595   4.790  17.473  0.00  0.00    +0.000 C 
BRANCH  22  23
ATOM     23  C   UNL     1       5.555   4.462  18.528  0.00  0.00    +0.000 C 
ATOM     24  O   UNL     1       5.883   4.254  19.698  0.00  0.00    +0.000 OA
ATOM     25  N   UNL     1       4.243   4.425  18.056  0.00  0.00    +0.000 N 
ATOM     26  H   UNL     1       4.142   4.158  17.084  0.00  0.00    +0.000 HD
BRANCH  25  27
ATOM     27  C   UNL     1       3.150   4.102  18.907  0.00  0.00    +0.000 A 
ATOM     28  C   UNL     1       2.442   5.093  19.624  0.00  0.00    +0.000 A 
ATOM     29  C   UNL     1       2.608   6.576  19.409  0.00  0.00    +0.000 C 
ATOM     30  C   UNL     1       1.456   4.704  20.549  0.00  0.00    +0.000 A 
ATOM     31  C   UNL     1       1.117   3.367  20.712  0.00  0.00    +0.000 A 
ATOM     32  C   UNL     1       1.742   2.399  19.933  0.00  0.00    +0.000 A 
ATOM     33  C   UNL     1       2.759   2.748  19.025  0.00  0.00    +0.000 A 
ATOM     34  C   UNL     1       3.381   1.640  18.219  0.00  0.00    +0.000 C 
ENDBRANCH  25  27
ENDBRANCH  22  23
ENDBRANCH   4  22
TORSDOF 8
ENDMDL
MODEL 2
REMARK VINA RESULT:      -8.0      0.287      1.619
REMARK  Name = 
REMARK  11 active torsions:
REMARK  status: ('A' for Active; 'I' for Inactive)
REMARK    1  A    between atoms: C_1  and  O_2
REMARK    2  A    between atoms: O_2  and  C_3
REMARK    3  A    between atoms: C_8  and  C_9
REMARK    4  A    between atoms: C_9  and  N_10
REMARK    5  A    between atoms: C_11  and  C_13
REMARK    6  A    between atoms: N_16  and  C_17
REMARK    7  A    between atoms: C_17  and  C_18
REMARK    8  A    between atoms: N_20  and  C_21
REMARK    9  A    between atoms: C_22  and  C_23
REMARK   10  A    between atoms: C_27  and  C_28
REMARK   11  A    between atoms: C_29  and  N_30
REMARK                            x       y       z     vdW  Elec       q    Type
REMARK                         _______ _______ _______ _____ _____    ______ ____
ROOT
ATOM      1  C   UNL     1       7.824   8.088  17.984  0.00  0.00    +0.000 A 
ATOM      2  N   UNL     1       7.000   8.200  16.880  0.00  0.00    +0.000 NA
ATOM      3  N   UNL     1       6.521   6.997  16.588  0.00  0.00    +0.000 NA
ATOM      4  N   UNL     1       7.040   6.120  17.475  0.00  0.00    +0.000 N 
ATOM      5  C   UNL     1       7.827   6.765  18.401  0.00  0.00    +0.000 A 
ENDROOT
BRANCH   1   7
ATOM      6  N   UNL     1       8.825  10.227  17.628  0.00  0.00    +0.000 N 
ATOM      7  C   UNL     1       8.602   9.201  18.523  0.00  0.00    +0.000 C 
ATOM      8  O   UNL     1       9.054   9.203  19.671  0.00  0.00    +0.000 OA
ATOM      9  H   UNL     1       8.327  10.205  16.745  0.00  0.00    +0.000 HD
BRANCH   6  10
ATOM     10  C   UNL     1       9.626  11.391  17.955  0.00  0.00    +0.000 C 
BRANCH  10  16
ATOM     11  C   UNL     1       8.901  13.343  19.457  0.00  0.00    +0.000 A 
ATOM     12  C   UNL     1       8.127  14.500  19.645  0.00  0.00    +0.000 A 
ATOM     13  C   UNL     1       7.178  14.885  18.696  0.00  0.00    +0.000 A 
ATOM     14  C   UNL     1       7.011  14.129  17.545  0.00  0.00    +0.000 A 
ATOM     15  C   UNL     1       7.804  13.004  17.329  0.00  0.00    +0.000 A 
ATOM     16  C   UNL     1       8.766  12.595  18.274  0.00  0.00    +0.000 A 
BRANCH  11  18
ATOM     17  C   UNL     1      10.264  13.938  21.287  0.00  0.00    +0.000 C 
ATOM     18  O   UNL     1       9.831  12.926  20.377  0.00  0.00    +0.000 OA
ENDBRANCH  11  18
ENDBRANCH  10  16
ENDBRANCH   6  10
ENDBRANCH   1   7
BRANCH   5  19
ATOM     19  N   UNL     1       8.435   6.128  19.431  0.00  0.00    +0.000 N 
ATOM     20  H   UNL     1       9.211   5.481  19.233  0.00  0.00    +0.000 HD
ATOM     21  H   UNL     1       8.633   6.678  20.272  0.00  0.00    +0.000 HD
ENDBRANCH   5  19
BRANCH   4  22
ATOM     22  C   UNL     1       6.644   4.727  17.413  0.00  0.00    +0.000 C 
BRANCH  22  23
ATOM     23  C   UNL     1       5.594   4.368  18.447  0.00  0.00    +0.000 C 
ATOM     24  O   UNL     1       5.907   4.142  19.617  0.00  0.00    +0.000 OA
ATOM     25  N   UNL     1       4.289   4.326  17.955  0.00  0.00    +0.000 N 
ATOM     26  H   UNL     1       4.205   4.076  16.977  0.00  0.00    +0.000 HD
BRANCH  25  27
ATOM     27  C   UNL     1       3.187   3.976  18.783  0.00  0.00    +0.000 A 
ATOM     28  C   UNL     1       2.781   2.634  18.960  0.00  0.00    +0.000 A 
ATOM     29  C   UNL     1       3.573   1.440  18.490  0.00  0.00    +0.000 C 
ATOM     30  C   UNL     1       1.607   2.357  19.685  0.00  0.00    +0.000 A 
ATOM     31  C   UNL     1       0.885   3.378  20.291  0.00  0.00    +0.000 A 
ATOM     32  C   UNL     1       1.340   4.689  20.203  0.00  0.00    +0.000 A 
ATOM     33  C   UNL     1       2.489   5.007  19.455  0.00  0.00    +0.000 A 
ATOM     34  C   UNL     1       2.914   6.449  19.415  0.00  0.00    +0.000 C 
ENDBRANCH  25  27
ENDBRANCH  22  23
ENDBRANCH   4  22
TORSDOF 8
ENDMDL
MODEL 3
REMARK VINA RESULT:      -7.8      5.805      8.994
REMARK  Name = 
REMARK  11 active torsions:
REMARK  status: ('A' for Active; 'I' for Inactive)
REMARK    1  A    between atoms: C_1  and  O_2
REMARK    2  A    between atoms: O_2  and  C_3
REMARK    3  A    between atoms: C_8  and  C_9
REMARK    4  A    between atoms: C_9  and  N_10
REMARK    5  A    between atoms: C_11  and  C_13
REMARK    6  A    between atoms: N_16  and  C_17
REMARK    7  A    between atoms: C_17  and  C_18
REMARK    8  A    between atoms: N_20  and  C_21
REMARK    9  A    between atoms: C_22  and  C_23
REMARK   10  A    between atoms: C_27  and  C_28
REMARK   11  A    between atoms: C_29  and  N_30
REMARK                            x       y       z     vdW  Elec       q    Type
REMARK                         _______ _______ _______ _____ _____    ______ ____
ROOT
ATOM      1  C   UNL     1       1.950   7.921  19.256  0.00  0.00    +0.000 A 
ATOM      2  N   UNL     1       1.815   8.563  18.039  0.00  0.00    +0.000 NA
ATOM      3  N   UNL     1       1.292   9.765  18.253  0.00  0.00    +0.000 NA
ATOM      4  N   UNL     1       1.077   9.890  19.581  0.00  0.00    +0.000 N 
ATOM      5  C   UNL     1       1.518   8.777  20.258  0.00  0.00    +0.000 A 
ENDROOT
BRANCH   1   7
ATOM      6  N   UNL     1       3.171   6.084  18.337  0.00  0.00    +0.000 N 
ATOM      7  C   UNL     1       2.401   6.537  19.389  0.00  0.00    +0.000 C 
ATOM      8  O   UNL     1       2.085   5.823  20.344  0.00  0.00    +0.000 OA
ATOM      9  H   UNL     1       3.482   6.761  17.649  0.00  0.00    +0.000 HD
BRANCH   6  10
ATOM     10  C   UNL     1       3.662   4.723  18.256  0.00  0.00    +0.000 C 
BRANCH  10  16
ATOM     11  C   UNL     1       6.185   4.959  17.839  0.00  0.00    +0.000 A 
ATOM     12  C   UNL     1       7.295   4.755  17.005  0.00  0.00    +0.000 A 
ATOM     13  C   UNL     1       7.132   4.275  15.704  0.00  0.00    +0.000 A 
ATOM     14  C   UNL     1       5.860   3.977  15.237  0.00  0.00    +0.000 A 
ATOM     15  C   UNL     1       4.756   4.135  16.071  0.00  0.00    +0.000 A 
ATOM     16  C   UNL     1       4.898   4.620  17.387  0.00  0.00    +0.000 A 
BRANCH  11  18
ATOM     17  C   UNL     1       7.647   5.745  19.514  0.00  0.00    +0.000 C 
ATOM     18  O   UNL     1       6.308   5.445  19.117  0.00  0.00    +0.000 OA
ENDBRANCH  11  18
ENDBRANCH  10  16
ENDBRANCH   6  10
ENDBRANCH   1   7
BRANCH   5  19
ATOM     19  N   UNL     1       1.462   8.657  21.607  0.00  0.00    +0.000 N 
ATOM     20  H   UNL     1       2.101   9.219  22.187  0.00  0.00    +0.000 HD
ATOM     21  H   UNL     1       0.534   8.613  22.037  0.00  0.00    +0.000 HD
ENDBRANCH   5  19
BRANCH   4  22
ATOM     22  C   UNL     1       0.548  11.135  20.101  0.00  0.00    +0.000 C 
BRANCH  22  23
ATOM     23  C   UNL     1      -0.602  11.676  19.274  0.00  0.00    +0.000 C 
ATOM     24  O   UNL     1      -0.491  12.731  18.647  0.00  0.00    +0.000 OA
ATOM     25  N   UNL     1      -1.751  10.884  19.292  0.00  0.00    +0.000 N 
ATOM     26  H   UNL     1      -1.889  10.346  20.139  0.00  0.00    +0.000 HD
BRANCH  25  27
ATOM     27  C   UNL     1      -2.932  11.261  18.595  0.00  0.00    +0.000 A 
ATOM     28  C   UNL     1      -3.908  12.100  19.177  0.00  0.00    +0.000 A 
ATOM     29  C   UNL     1      -3.719  12.850  20.471  0.00  0.00    +0.000 C 
ATOM     30  C   UNL     1      -5.115  12.333  18.492  0.00  0.00    +0.000 A 
ATOM     31  C   UNL     1      -5.327  11.813  17.221  0.00  0.00    +0.000 A 
ATOM     32  C   UNL     1      -4.325  11.071  16.606  0.00  0.00    +0.000 A 
ATOM     33  C   UNL     1      -3.121  10.786  17.276  0.00  0.00    +0.000 A 
ATOM     34  C   UNL     1      -2.088   9.980  16.536  0.00  0.00    +0.000 C 
ENDBRANCH  25  27
ENDBRANCH  22  23
ENDBRANCH   4  22
TORSDOF 8
ENDMDL
MODEL 4
REMARK VINA RESULT:      -7.7      6.317     10.165
REMARK  Name = 
REMARK  11 active torsions:
REMARK  status: ('A' for Active; 'I' for Inactive)
REMARK    1  A    between atoms: C_1  and  O_2
REMARK    2  A    between atoms: O_2  and  C_3
REMARK    3  A    between atoms: C_8  and  C_9
REMARK    4  A    between atoms: C_9  and  N_10
REMARK    5  A    between atoms: C_11  and  C_13
REMARK    6  A    between atoms: N_16  and  C_17
REMARK    7  A    between atoms: C_17  and  C_18
REMARK    8  A    between atoms: N_20  and  C_21
REMARK    9  A    between atoms: C_22  and  C_23
REMARK   10  A    between atoms: C_27  and  C_28
REMARK   11  A    between atoms: C_29  and  N_30
REMARK                            x       y       z     vdW  Elec       q    Type
REMARK                         _______ _______ _______ _____ _____    ______ ____
ROOT
ATOM      1  C   UNL     1       1.471   8.942  19.704  0.00  0.00    +0.000 A 
ATOM      2  N   UNL     1       0.840   8.914  20.934  0.00  0.00    +0.000 NA
ATOM      3  N   UNL     1       0.378  10.131  21.198  0.00  0.00    +0.000 NA
ATOM      4  N   UNL     1       0.720  10.934  20.166  0.00  0.00    +0.000 N 
ATOM      5  C   UNL     1       1.366  10.222  19.183  0.00  0.00    +0.000 A 
ENDROOT
BRANCH   1   7
ATOM      6  N   UNL     1       2.625   6.884  20.077  0.00  0.00    +0.000 N 
ATOM      7  C   UNL     1       2.186   7.798  19.142  0.00  0.00    +0.000 C 
ATOM      8  O   UNL     1       2.411   7.682  17.934  0.00  0.00    +0.000 OA
ATOM      9  H   UNL     1       2.304   6.989  21.033  0.00  0.00    +0.000 HD
BRANCH   6  10
ATOM     10  C   UNL     1       3.405   5.714  19.722  0.00  0.00    +0.000 C 
BRANCH  10  16
ATOM     11  C   UNL     1       2.575   3.892  18.114  0.00  0.00    +0.000 A 
ATOM     12  C   UNL     1       1.789   2.752  17.883  0.00  0.00    +0.000 A 
ATOM     13  C   UNL     1       0.907   2.283  18.859  0.00  0.00    +0.000 A 
ATOM     14  C   UNL     1       0.821   2.939  20.078  0.00  0.00    +0.000 A 
ATOM     15  C   UNL     1       1.628   4.046  20.333  0.00  0.00    +0.000 A 
ATOM     16  C   UNL     1       2.523   4.537  19.362  0.00  0.00    +0.000 A 
BRANCH  11  18
ATOM     17  C   UNL     1       4.635   3.628  16.998  0.00  0.00    +0.000 C 
ATOM     18  O   UNL     1       3.440   4.389  17.171  0.00  0.00    +0.000 OA
ENDBRANCH  11  18
ENDBRANCH  10  16
ENDBRANCH   6  10
ENDBRANCH   1   7
BRANCH   5  19
ATOM     19  N   UNL     1       1.780  10.776  18.016  0.00  0.00    +0.000 N 
ATOM     20  H   UNL     1       2.172  10.168  17.284  0.00  0.00    +0.000 HD
ATOM     21  H   UNL     1       1.185  11.498  17.601  0.00  0.00    +0.000 HD
ENDBRANCH   5  19
BRANCH   4  22
ATOM     22  C   UNL     1       0.297  12.320  20.175  0.00  0.00    +0.000 C 
BRANCH  22  23
ATOM     23  C   UNL     1      -0.938  12.563  19.327  0.00  0.00    +0.000 C 
ATOM     24  O   UNL     1      -0.989  13.507  18.538  0.00  0.00    +0.000 OA
ATOM     25  N   UNL     1      -1.965  11.639  19.525  0.00  0.00    +0.000 N 
ATOM     26  H   UNL     1      -2.006  11.232  20.451  0.00  0.00    +0.000 HD
BRANCH  25  27
ATOM     27  C   UNL     1      -3.204  11.739  18.833  0.00  0.00    +0.000 A 
ATOM     28  C   UNL     1      -4.301  12.452  19.364  0.00  0.00    +0.000 A 
ATOM     29  C   UNL     1      -4.225  13.349  20.574  0.00  0.00    +0.000 C 
ATOM     30  C   UNL     1      -5.541  12.408  18.699  0.00  0.00    +0.000 A 
ATOM     31  C   UNL     1      -5.680  11.735  17.492  0.00  0.00    +0.000 A 
ATOM     32  C   UNL     1      -4.575  11.117  16.918  0.00  0.00    +0.000 A 
ATOM     33  C   UNL     1      -3.330  11.109  17.572  0.00  0.00    +0.000 A 
ATOM     34  C   UNL     1      -2.184  10.421  16.880  0.00  0.00    +0.000 C 
ENDBRANCH  25  27
ENDBRANCH  22  23
ENDBRANCH   4  22
TORSDOF 8
ENDMDL
MODEL 5
REMARK VINA RESULT:      -7.6      6.040      9.306
REMARK  Name = 
REMARK  11 active torsions:
REMARK  status: ('A' for Active; 'I' for Inactive)
REMARK    1  A    between atoms: C_1  and  O_2
REMARK    2  A    between atoms: O_2  and  C_3
REMARK    3  A    between atoms: C_8  and  C_9
REMARK    4  A    between atoms: C_9  and  N_10
REMARK    5  A    between atoms: C_11  and  C_13
REMARK    6  A    between atoms: N_16  and  C_17
REMARK    7  A    between atoms: C_17  and  C_18
REMARK    8  A    between atoms: N_20  and  C_21
REMARK    9  A    between atoms: C_22  and  C_23
REMARK   10  A    between atoms: C_27  and  C_28
REMARK   11  A    between atoms: C_29  and  N_30
REMARK                            x       y       z     vdW  Elec       q    Type
REMARK                         _______ _______ _______ _____ _____    ______ ____
ROOT
ATOM      1  C   UNL     1       2.031   8.499  18.878  0.00  0.00    +0.000 A 
ATOM      2  N   UNL     1       2.252   9.267  17.750  0.00  0.00    +0.000 NA
ATOM      3  N   UNL     1       1.709  10.463  17.942  0.00  0.00    +0.000 NA
ATOM      4  N   UNL     1       1.132  10.463  19.163  0.00  0.00    +0.000 N 
ATOM      5  C   UNL     1       1.349   9.268  19.808  0.00  0.00    +0.000 A 
ENDROOT
BRANCH   1   7
ATOM      6  N   UNL     1       3.094   6.604  17.885  0.00  0.00    +0.000 N 
ATOM      7  C   UNL     1       2.405   7.090  18.977  0.00  0.00    +0.000 C 
ATOM      8  O   UNL     1       2.094   6.385  19.940  0.00  0.00    +0.000 OA
ATOM      9  H   UNL     1       3.411   7.269  17.188  0.00  0.00    +0.000 HD
BRANCH   6  10
ATOM     10  C   UNL     1       3.500   5.217  17.768  0.00  0.00    +0.000 C 
BRANCH  10  16
ATOM     11  C   UNL     1       5.798   4.658  16.769  0.00  0.00    +0.000 A 
ATOM     12  C   UNL     1       7.195   4.619  16.901  0.00  0.00    +0.000 A 
ATOM     13  C   UNL     1       7.806   4.918  18.120  0.00  0.00    +0.000 A 
ATOM     14  C   UNL     1       7.024   5.277  19.209  0.00  0.00    +0.000 A 
ATOM     15  C   UNL     1       5.640   5.360  19.077  0.00  0.00    +0.000 A 
ATOM     16  C   UNL     1       5.003   5.060  17.856  0.00  0.00    +0.000 A 
BRANCH  11  18
ATOM     17  C   UNL     1       6.036   3.949  14.533  0.00  0.00    +0.000 C 
ATOM     18  O   UNL     1       5.165   4.354  15.590  0.00  0.00    +0.000 OA
ENDBRANCH  11  18
ENDBRANCH  10  16
ENDBRANCH   6  10
ENDBRANCH   1   7
BRANCH   5  19
ATOM     19  N   UNL     1       0.916   9.014  21.068  0.00  0.00    +0.000 N 
ATOM     20  H   UNL     1       1.186   8.132  21.523  0.00  0.00    +0.000 HD
ATOM     21  H   UNL     1       0.946   9.788  21.740  0.00  0.00    +0.000 HD
ENDBRANCH   5  19
BRANCH   4  22
ATOM     22  C   UNL     1       0.499  11.672  19.651  0.00  0.00    +0.000 C 
BRANCH  22  23
ATOM     23  C   UNL     1      -0.748  12.038  18.868  0.00  0.00    +0.000 C 
ATOM     24  O   UNL     1      -0.754  13.001  18.099  0.00  0.00    +0.000 OA
ATOM     25  N   UNL     1      -1.841  11.202  19.097  0.00  0.00    +0.000 N 
ATOM     26  H   UNL     1      -1.875  10.779  20.017  0.00  0.00    +0.000 HD
BRANCH  25  27
ATOM     27  C   UNL     1      -3.098  11.422  18.468  0.00  0.00    +0.000 A 
ATOM     28  C   UNL     1      -3.387  10.919  17.180  0.00  0.00    +0.000 A 
ATOM     29  C   UNL     1      -2.518   9.935  16.439  0.00  0.00    +0.000 C 
ATOM     30  C   UNL     1      -4.596  11.277  16.554  0.00  0.00    +0.000 A 
ATOM     31  C   UNL     1      -5.538  12.056  17.213  0.00  0.00    +0.000 A 
ATOM     32  C   UNL     1      -5.297  12.468  18.520  0.00  0.00    +0.000 A 
ATOM     33  C   UNL     1      -4.084  12.160  19.163  0.00  0.00    +0.000 A 
ATOM     34  C   UNL     1      -3.907  12.641  20.578  0.00  0.00    +0.000 C 
ENDBRANCH  25  27
ENDBRANCH  22  23
ENDBRANCH   4  22
TORSDOF 8
ENDMDL
MODEL 6
REMARK VINA RESULT:      -7.6      6.007      9.209
REMARK  Name = 
REMARK  11 active torsions:
REMARK  status: ('A' for Active; 'I' for Inactive)
REMARK    1  A    between atoms: C_1  and  O_2
REMARK    2  A    between atoms: O_2  and  C_3
REMARK    3  A    between atoms: C_8  and  C_9
REMARK    4  A    between atoms: C_9  and  N_10
REMARK    5  A    between atoms: C_11  and  C_13
REMARK    6  A    between atoms: N_16  and  C_17
REMARK    7  A    between atoms: C_17  and  C_18
REMARK    8  A    between atoms: N_20  and  C_21
REMARK    9  A    between atoms: C_22  and  C_23
REMARK   10  A    between atoms: C_27  and  C_28
REMARK   11  A    between atoms: C_29  and  N_30
REMARK                            x       y       z     vdW  Elec       q    Type
REMARK                         _______ _______ _______ _____ _____    ______ ____
ROOT
ATOM      1  C   UNL     1       1.883   8.241  19.040  0.00  0.00    +0.000 A 
ATOM      2  N   UNL     1       1.810   8.961  17.862  0.00  0.00    +0.000 NA
ATOM      3  N   UNL     1       1.268  10.145  18.125  0.00  0.00    +0.000 NA
ATOM      4  N   UNL     1       0.979  10.181  19.444  0.00  0.00    +0.000 N 
ATOM      5  C   UNL     1       1.390   9.027  20.070  0.00  0.00    +0.000 A 
ENDROOT
BRANCH   1   7
ATOM      6  N   UNL     1       3.001   6.415  17.980  0.00  0.00    +0.000 N 
ATOM      7  C   UNL     1       2.335   6.853  19.106  0.00  0.00    +0.000 C 
ATOM      8  O   UNL     1       2.104   6.123  20.074  0.00  0.00    +0.000 OA
ATOM      9  H   UNL     1       3.251   7.103  17.278  0.00  0.00    +0.000 HD
BRANCH   6  10
ATOM     10  C   UNL     1       3.474   5.053  17.830  0.00  0.00    +0.000 C 
BRANCH  10  16
ATOM     11  C   UNL     1       5.780   4.489  16.852  0.00  0.00    +0.000 A 
ATOM     12  C   UNL     1       7.179   4.523  16.961  0.00  0.00    +0.000 A 
ATOM     13  C   UNL     1       7.793   4.973  18.131  0.00  0.00    +0.000 A 
ATOM     14  C   UNL     1       7.012   5.411  19.191  0.00  0.00    +0.000 A 
ATOM     15  C   UNL     1       5.624   5.421  19.077  0.00  0.00    +0.000 A 
ATOM     16  C   UNL     1       4.984   4.969  17.906  0.00  0.00    +0.000 A 
BRANCH  11  18
ATOM     17  C   UNL     1       5.741   4.456  14.494  0.00  0.00    +0.000 C 
ATOM     18  O   UNL     1       5.144   4.037  15.722  0.00  0.00    +0.000 OA
ENDBRANCH  11  18
ENDBRANCH  10  16
ENDBRANCH   6  10
ENDBRANCH   1   7
BRANCH   5  19
ATOM     19  N   UNL     1       1.261   8.819  21.403  0.00  0.00    +0.000 N 
ATOM     20  H   UNL     1       0.330   8.615  21.791  0.00  0.00    +0.000 HD
ATOM     21  H   UNL     1       1.973   8.241  21.859  0.00  0.00    +0.000 HD
ENDBRANCH   5  19
BRANCH   4  22
ATOM     22  C   UNL     1       0.414  11.388  20.015  0.00  0.00    +0.000 C 
BRANCH  22  23
ATOM     23  C   UNL     1      -0.778  11.905  19.233  0.00  0.00    +0.000 C 
ATOM     24  O   UNL     1      -0.740  13.000  18.668  0.00  0.00    +0.000 OA
ATOM     25  N   UNL     1      -1.877  11.045  19.216  0.00  0.00    +0.000 N 
ATOM     26  H   UNL     1      -1.971  10.450  20.031  0.00  0.00    +0.000 HD
BRANCH  25  27
ATOM     27  C   UNL     1      -3.088  11.389  18.554  0.00  0.00    +0.000 A 
ATOM     28  C   UNL     1      -4.091  12.158  19.184  0.00  0.00    +0.000 A 
ATOM     29  C   UNL     1      -3.913  12.870  20.501  0.00  0.00    +0.000 C 
ATOM     30  C   UNL     1      -5.321  12.358  18.530  0.00  0.00    +0.000 A 
ATOM     31  C   UNL     1      -5.534  11.873  17.246  0.00  0.00    +0.000 A 
ATOM     32  C   UNL     1      -4.510  11.203  16.585  0.00  0.00    +0.000 A 
ATOM     33  C   UNL     1      -3.281  10.953  17.223  0.00  0.00    +0.000 A 
ATOM     34  C   UNL     1      -2.225  10.224  16.435  0.00  0.00    +0.000 C 
ENDBRANCH  25  27
ENDBRANCH  22  23
ENDBRANCH   4  22
TORSDOF 8
ENDMDL
MODEL 7
REMARK VINA RESULT:      -7.6      5.835      9.107
REMARK  Name = 
REMARK  11 active torsions:
REMARK  status: ('A' for Active; 'I' for Inactive)
REMARK    1  A    between atoms: C_1  and  O_2
REMARK    2  A    between atoms: O_2  and  C_3
REMARK    3  A    between atoms: C_8  and  C_9
REMARK    4  A    between atoms: C_9  and  N_10
REMARK    5  A    between atoms: C_11  and  C_13
REMARK    6  A    between atoms: N_16  and  C_17
REMARK    7  A    between atoms: C_17  and  C_18
REMARK    8  A    between atoms: N_20  and  C_21
REMARK    9  A    between atoms: C_22  and  C_23
REMARK   10  A    between atoms: C_27  and  C_28
REMARK   11  A    between atoms: C_29  and  N_30
REMARK                            x       y       z     vdW  Elec       q    Type
REMARK                         _______ _______ _______ _____ _____    ______ ____
ROOT
ATOM      1  C   UNL     1       2.076   7.954  19.119  0.00  0.00    +0.000 A 
ATOM      2  N   UNL     1       1.994   8.615  17.908  0.00  0.00    +0.000 NA
ATOM      3  N   UNL     1       1.402   9.787  18.108  0.00  0.00    +0.000 NA
ATOM      4  N   UNL     1       1.091   9.874  19.420  0.00  0.00    +0.000 N 
ATOM      5  C   UNL     1       1.537   8.767  20.104  0.00  0.00    +0.000 A 
ENDROOT
BRANCH   1   7
ATOM      6  N   UNL     1       3.241   6.110  18.145  0.00  0.00    +0.000 N 
ATOM      7  C   UNL     1       2.580   6.589  19.257  0.00  0.00    +0.000 C 
ATOM      8  O   UNL     1       2.395   5.911  20.271  0.00  0.00    +0.000 OA
ATOM      9  H   UNL     1       3.452   6.764  17.399  0.00  0.00    +0.000 HD
BRANCH   6  10
ATOM     10  C   UNL     1       3.762   4.760  18.065  0.00  0.00    +0.000 C 
BRANCH  10  16
ATOM     11  C   UNL     1       6.286   4.613  17.616  0.00  0.00    +0.000 A 
ATOM     12  C   UNL     1       7.344   4.444  16.708  0.00  0.00    +0.000 A 
ATOM     13  C   UNL     1       7.103   4.394  15.334  0.00  0.00    +0.000 A 
ATOM     14  C   UNL     1       5.802   4.492  14.861  0.00  0.00    +0.000 A 
ATOM     15  C   UNL     1       4.742   4.617  15.756  0.00  0.00    +0.000 A 
ATOM     16  C   UNL     1       4.963   4.672  17.147  0.00  0.00    +0.000 A 
BRANCH  11  18
ATOM     17  C   UNL     1       7.381   5.717  19.389  0.00  0.00    +0.000 C 
ATOM     18  O   UNL     1       6.489   4.683  18.972  0.00  0.00    +0.000 OA
ENDBRANCH  11  18
ENDBRANCH  10  16
ENDBRANCH   6  10
ENDBRANCH   1   7
BRANCH   5  19
ATOM     19  N   UNL     1       1.395   8.616  21.444  0.00  0.00    +0.000 N 
ATOM     20  H   UNL     1       0.590   9.051  21.916  0.00  0.00    +0.000 HD
ATOM     21  H   UNL     1       1.580   7.688  21.834  0.00  0.00    +0.000 HD
ENDBRANCH   5  19
BRANCH   4  22
ATOM     22  C   UNL     1       0.470  11.082  19.925  0.00  0.00    +0.000 C 
BRANCH  22  23
ATOM     23  C   UNL     1      -0.674  11.563  19.054  0.00  0.00    +0.000 C 
ATOM     24  O   UNL     1      -0.518  12.487  18.254  0.00  0.00    +0.000 OA
ATOM     25  N   UNL     1      -1.873  10.875  19.242  0.00  0.00    +0.000 N 
ATOM     26  H   UNL     1      -2.012  10.497  20.172  0.00  0.00    +0.000 HD
BRANCH  25  27
ATOM     27  C   UNL     1      -3.055  11.219  18.527  0.00  0.00    +0.000 A 
ATOM     28  C   UNL     1      -3.300  10.748  17.218  0.00  0.00    +0.000 A 
ATOM     29  C   UNL     1      -2.481   9.685  16.532  0.00  0.00    +0.000 C 
ATOM     30  C   UNL     1      -4.420  11.225  16.512  0.00  0.00    +0.000 A 
ATOM     31  C   UNL     1      -5.326  12.092  17.110  0.00  0.00    +0.000 A 
ATOM     32  C   UNL     1      -5.139  12.475  18.434  0.00  0.00    +0.000 A 
ATOM     33  C   UNL     1      -4.011  12.049  19.158  0.00  0.00    +0.000 A 
ATOM     34  C   UNL     1      -3.887  12.508  20.586  0.00  0.00    +0.000 C 
ENDBRANCH  25  27
ENDBRANCH  22  23
ENDBRANCH   4  22
TORSDOF 8
ENDMDL
MODEL 8
REMARK VINA RESULT:      -7.5      5.591     10.887
REMARK  Name = 
REMARK  11 active torsions:
REMARK  status: ('A' for Active; 'I' for Inactive)
REMARK    1  A    between atoms: C_1  and  O_2
REMARK    2  A    between atoms: O_2  and  C_3
REMARK    3  A    between atoms: C_8  and  C_9
REMARK    4  A    between atoms: C_9  and  N_10
REMARK    5  A    between atoms: C_11  and  C_13
REMARK    6  A    between atoms: N_16  and  C_17
REMARK    7  A    between atoms: C_17  and  C_18
REMARK    8  A    between atoms: N_20  and  C_21
REMARK    9  A    between atoms: C_22  and  C_23
REMARK   10  A    between atoms: C_27  and  C_28
REMARK   11  A    between atoms: C_29  and  N_30
REMARK                            x       y       z     vdW  Elec       q    Type
REMARK                         _______ _______ _______ _____ _____    ______ ____
ROOT
ATOM      1  C   UNL     1       1.104   9.216  19.799  0.00  0.00    +0.000 A 
ATOM      2  N   UNL     1       1.098   9.578  21.133  0.00  0.00    +0.000 NA
ATOM      3  N   UNL     1       0.330  10.652  21.275  0.00  0.00    +0.000 NA
ATOM      4  N   UNL     1      -0.137  10.989  20.053  0.00  0.00    +0.000 N 
ATOM      5  C   UNL     1       0.283  10.089  19.102  0.00  0.00    +0.000 A 
ENDROOT
BRANCH   1   7
ATOM      6  N   UNL     1       2.286   7.178  20.190  0.00  0.00    +0.000 N 
ATOM      7  C   UNL     1       1.927   8.134  19.264  0.00  0.00    +0.000 C 
ATOM      8  O   UNL     1       2.301   8.102  18.088  0.00  0.00    +0.000 OA
ATOM      9  H   UNL     1       1.848   7.212  21.104  0.00  0.00    +0.000 HD
BRANCH   6  10
ATOM     10  C   UNL     1       3.150   6.059  19.867  0.00  0.00    +0.000 C 
BRANCH  10  16
ATOM     11  C   UNL     1       2.487   4.212  18.211  0.00  0.00    +0.000 A 
ATOM     12  C   UNL     1       1.783   3.027  17.941  0.00  0.00    +0.000 A 
ATOM     13  C   UNL     1       0.906   2.488  18.884  0.00  0.00    +0.000 A 
ATOM     14  C   UNL     1       0.743   3.118  20.108  0.00  0.00    +0.000 A 
ATOM     15  C   UNL     1       1.468   4.270  20.403  0.00  0.00    +0.000 A 
ATOM     16  C   UNL     1       2.357   4.833  19.465  0.00  0.00    +0.000 A 
BRANCH  11  18
ATOM     17  C   UNL     1       4.453   3.957  16.935  0.00  0.00    +0.000 C 
ATOM     18  O   UNL     1       3.344   4.779  17.300  0.00  0.00    +0.000 OA
ENDBRANCH  11  18
ENDBRANCH  10  16
ENDBRANCH   6  10
ENDBRANCH   1   7
BRANCH   5  19
ATOM     19  N   UNL     1      -0.079  10.165  17.797  0.00  0.00    +0.000 N 
ATOM     20  H   UNL     1      -1.020  10.505  17.556  0.00  0.00    +0.000 HD
ATOM     21  H   UNL     1       0.615  10.532  17.138  0.00  0.00    +0.000 HD
ENDBRANCH   5  19
BRANCH   4  22
ATOM     22  C   UNL     1      -1.046  12.110  19.923  0.00  0.00    +0.000 C 
BRANCH  22  23
ATOM     23  C   UNL     1      -0.494  13.215  19.042  0.00  0.00    +0.000 C 
ATOM     24  O   UNL     1      -0.684  13.209  17.825  0.00  0.00    +0.000 OA
ATOM     25  N   UNL     1       0.218  14.200  19.727  0.00  0.00    +0.000 N 
ATOM     26  H   UNL     1       0.682  13.887  20.572  0.00  0.00    +0.000 HD
BRANCH  25  27
ATOM     27  C   UNL     1       0.829  15.291  19.049  0.00  0.00    +0.000 A 
ATOM     28  C   UNL     1       0.134  16.493  18.789  0.00  0.00    +0.000 A 
ATOM     29  C   UNL     1      -1.213  16.837  19.372  0.00  0.00    +0.000 C 
ATOM     30  C   UNL     1       0.744  17.487  18.001  0.00  0.00    +0.000 A 
ATOM     31  C   UNL     1       2.046  17.334  17.541  0.00  0.00    +0.000 A 
ATOM     32  C   UNL     1       2.766  16.195  17.882  0.00  0.00    +0.000 A 
ATOM     33  C   UNL     1       2.176  15.164  18.636  0.00  0.00    +0.000 A 
ATOM     34  C   UNL     1       3.027  13.968  18.964  0.00  0.00    +0.000 C 
ENDBRANCH  25  27
ENDBRANCH  22  23
ENDBRANCH   4  22
TORSDOF 8
ENDMDL
MODEL 9
REMARK VINA RESULT:      -7.5      6.211     10.154
REMARK  Name = 
REMARK  11 active torsions:
REMARK  status: ('A' for Active; 'I' for Inactive)
REMARK    1  A    between atoms: C_1  and  O_2
REMARK    2  A    between atoms: O_2  and  C_3
REMARK    3  A    between atoms: C_8  and  C_9
REMARK    4  A    between atoms: C_9  and  N_10
REMARK    5  A    between atoms: C_11  and  C_13
REMARK    6  A    between atoms: N_16  and  C_17
REMARK    7  A    between atoms: C_17  and  C_18
REMARK    8  A    between atoms: N_20  and  C_21
REMARK    9  A    between atoms: C_22  and  C_23
REMARK   10  A    between atoms: C_27  and  C_28
REMARK   11  A    between atoms: C_29  and  N_30
REMARK                            x       y       z     vdW  Elec       q    Type
REMARK                         _______ _______ _______ _____ _____    ______ ____
ROOT
ATOM      1  C   UNL     1       1.644   8.742  19.459  0.00  0.00    +0.000 A 
ATOM      2  N   UNL     1       0.930   8.587  20.632  0.00  0.00    +0.000 NA
ATOM      3  N   UNL     1       0.379   9.754  20.947  0.00  0.00    +0.000 NA
ATOM      4  N   UNL     1       0.745  10.649  20.004  0.00  0.00    +0.000 N 
ATOM      5  C   UNL     1       1.501  10.050  19.024  0.00  0.00    +0.000 A 
ENDROOT
BRANCH   1   7
ATOM      6  N   UNL     1       2.960   6.774  19.782  0.00  0.00    +0.000 N 
ATOM      7  C   UNL     1       2.464   7.684  18.871  0.00  0.00    +0.000 C 
ATOM      8  O   UNL     1       2.722   7.634  17.666  0.00  0.00    +0.000 OA
ATOM      9  H   UNL     1       2.611   6.815  20.734  0.00  0.00    +0.000 HD
BRANCH   6  10
ATOM     10  C   UNL     1       3.842   5.688  19.403  0.00  0.00    +0.000 C 
BRANCH  10  16
ATOM     11  C   UNL     1       2.312   3.683  19.884  0.00  0.00    +0.000 A 
ATOM     12  C   UNL     1       1.551   2.602  19.409  0.00  0.00    +0.000 A 
ATOM     13  C   UNL     1       1.583   2.245  18.060  0.00  0.00    +0.000 A 
ATOM     14  C   UNL     1       2.361   2.978  17.175  0.00  0.00    +0.000 A 
ATOM     15  C   UNL     1       3.086   4.078  17.628  0.00  0.00    +0.000 A 
ATOM     16  C   UNL     1       3.069   4.454  18.986  0.00  0.00    +0.000 A 
BRANCH  11  18
ATOM     17  C   UNL     1       1.961   3.007  22.116  0.00  0.00    +0.000 C 
ATOM     18  O   UNL     1       2.316   4.050  21.207  0.00  0.00    +0.000 OA
ENDBRANCH  11  18
ENDBRANCH  10  16
ENDBRANCH   6  10
ENDBRANCH   1   7
BRANCH   5  19
ATOM     19  N   UNL     1       1.964  10.712  17.934  0.00  0.00    +0.000 N 
ATOM     20  H   UNL     1       2.537  10.205  17.246  0.00  0.00    +0.000 HD
ATOM     21  H   UNL     1       1.315  11.349  17.461  0.00  0.00    +0.000 HD
ENDBRANCH   5  19
BRANCH   4  22
ATOM     22  C   UNL     1       0.241  12.006  20.079  0.00  0.00    +0.000 C 
BRANCH  22  23
ATOM     23  C   UNL     1      -0.932  12.250  19.149  0.00  0.00    +0.000 C 
ATOM     24  O   UNL     1      -0.890  13.136  18.294  0.00  0.00    +0.000 OA
ATOM     25  N   UNL     1      -2.017  11.397  19.351  0.00  0.00    +0.000 N 
ATOM     26  H   UNL     1      -2.129  11.060  20.300  0.00  0.00    +0.000 HD
BRANCH  25  27
ATOM     27  C   UNL     1      -3.211  11.509  18.586  0.00  0.00    +0.000 A 
ATOM     28  C   UNL     1      -3.332  10.934  17.301  0.00  0.00    +0.000 A 
ATOM     29  C   UNL     1      -2.331   9.979  16.702  0.00  0.00    +0.000 C 
ATOM     30  C   UNL     1      -4.486  11.187  16.537  0.00  0.00    +0.000 A 
ATOM     31  C   UNL     1      -5.538  11.931  17.058  0.00  0.00    +0.000 A 
ATOM     32  C   UNL     1      -5.462  12.412  18.360  0.00  0.00    +0.000 A 
ATOM     33  C   UNL     1      -4.308  12.210  19.139  0.00  0.00    +0.000 A 
ATOM     34  C   UNL     1      -4.310  12.760  20.540  0.00  0.00    +0.000 C 
ENDBRANCH  25  27
ENDBRANCH  22  23
ENDBRANCH   4  22
TORSDOF 8
ENDMDL
