MODEL 1
REMARK VINA RESULT:      -8.8      0.000      0.000
REMARK  Name = 
REMARK  9 active torsions:
REMARK  status: ('A' for Active; 'I' for Inactive)
REMARK    1  A    between atoms: C_1  and  C_2
REMARK    2  A    between atoms: C_8  and  N_9
REMARK    3  A    between atoms: C_10  and  C_12
REMARK    4  A    between atoms: C_12  and  N_13
REMARK    5  A    between atoms: C_14  and  S_15
REMARK    6  A    between atoms: S_15  and  C_16
REMARK    7  A    between atoms: C_16  and  C_17
REMARK    8  A    between atoms: N_19  and  C_20
REMARK    9  A    between atoms: C_20  and  C_21
REMARK                            x       y       z     vdW  Elec       q    Type
REMARK                         _______ _______ _______ _____ _____    ______ ____
ROOT
ATOM      1  N   UNL     1       4.757   5.156  18.013  0.00  0.00    +0.000 N 
ATOM      2  C   UNL     1       5.862   4.542  18.549  0.00  0.00    +0.000 A 
ATOM      3  N   UNL     1       5.531   3.597  19.394  0.00  0.00    +0.000 NA
ATOM      4  C   UNL     1       4.167   3.471  19.271  0.00  0.00    +0.000 A 
ATOM      5  C   UNL     1       3.297   2.564  19.893  0.00  0.00    +0.000 A 
ATOM      6  C   UNL     1       1.963   2.518  19.471  0.00  0.00    +0.000 A 
ATOM      7  C   UNL     1       1.501   3.376  18.471  0.00  0.00    +0.000 A 
ATOM      8  C   UNL     1       2.337   4.341  17.897  0.00  0.00    +0.000 A 
ATOM      9  C   UNL     1       3.669   4.366  18.328  0.00  0.00    +0.000 A 
ENDROOT
BRANCH   1  10
ATOM     10  C   UNL     1       4.708   6.371  17.228  0.00  0.00    +0.000 C 
BRANCH  10  12
ATOM     11  N   UNL     1       5.259   4.808  15.385  0.00  0.00    +0.000 N 
ATOM     12  C   UNL     1       5.052   6.135  15.767  0.00  0.00    +0.000 C 
ATOM     13  O   UNL     1       5.052   7.098  14.999  0.00  0.00    +0.000 OA
ATOM     14  H   UNL     1       4.997   4.082  16.039  0.00  0.00    +0.000 HD
BRANCH  11  22
ATOM     15  C   UNL     1       8.025   5.212  14.310  0.00  0.00    +0.000 C 
ATOM     16  C   UNL     1       6.913   4.527  13.564  0.00  0.00    +0.000 A 
ATOM     17  C   UNL     1       7.240   3.956  12.314  0.00  0.00    +0.000 A 
ATOM     18  C   UNL     1       6.270   3.355  11.518  0.00  0.00    +0.000 A 
ATOM     19  C   UNL     1       4.956   3.332  11.957  0.00  0.00    +0.000 A 
ATOM     20 CL   UNL     1       3.727   2.684  10.940  0.00  0.00    +0.000 Cl
ATOM     21  C   UNL     1       4.623   3.836  13.214  0.00  0.00    +0.000 A 
ATOM     22  C   UNL     1       5.595   4.391  14.061  0.00  0.00    +0.000 A 
ENDBRANCH  11  22
ENDBRANCH  10  12
ENDBRANCH   1  10
BRANCH   2  23
ATOM     23  S   UNL     1       7.480   4.911  18.057  0.00  0.00    +0.000 S 
BRANCH  23  24
ATOM     24  C   UNL     1       7.844   6.428  18.989  0.00  0.00    +0.000 C 
BRANCH  24  25
ATOM     25  C   UNL     1       8.086   7.644  18.099  0.00  0.00    +0.000 C 
ATOM     26  O   UNL     1       7.759   7.654  16.915  0.00  0.00    +0.000 OA
ATOM     27  N   UNL     1       8.604   8.744  18.742  0.00  0.00    +0.000 N 
ATOM     28  H   UNL     1       9.077   8.575  19.631  0.00  0.00    +0.000 HD
BRANCH  27  29
ATOM     29  C   UNL     1       8.873   9.987  18.055  0.00  0.00    +0.000 C 
BRANCH  29  30
ATOM     30  C   UNL     1       9.472  11.033  18.967  0.00  0.00    +0.000 A 
ATOM     31  C   UNL     1       9.944  12.243  18.432  0.00  0.00    +0.000 A 
ATOM     32  C   UNL     1      10.463  13.241  19.263  0.00  0.00    +0.000 A 
ATOM     33  C   UNL     1      10.507  13.047  20.643  0.00  0.00    +0.000 A 
ATOM     34  C   UNL     1      10.024  11.862  21.192  0.00  0.00    +0.000 A 
ATOM     35  C   UNL     1       9.501  10.867  20.361  0.00  0.00    +0.000 A 
ENDBRANCH  29  30
ENDBRANCH  27  29
ENDBRANCH  24  25
ENDBRANCH  23  24
ENDBRANCH   2  23
TORSDOF 8
ENDMDL
MODEL 2
REMARK VINA RESULT:      -8.5      2.555      5.789
REMARK  Name = 
REMARK  9 active torsions:
REMARK  status: ('A' for Active; 'I' for Inactive)
REMARK    1  A    between atoms: C_1  and  C_2
REMARK    2  A    between atoms: C_8  and  N_9
REMARK    3  A    between atoms: C_10  and  C_12
REMARK    4  A    between atoms: C_12  and  N_13
REMARK    5  A    between atoms: C_14  and  S_15
REMARK    6  A    between atoms: S_15  and  C_16
REMARK    7  A    between atoms: C_16  and  C_17
REMARK    8  A    between atoms: N_19  and  C_20
REMARK    9  A    between atoms: C_20  and  C_21
REMARK                            x       y       z     vdW  Elec       q    Type
REMARK                         _______ _______ _______ _____ _____    ______ ____
ROOT
ATOM      1  N   UNL     1       6.284   4.086  15.841  0.00  0.00    +0.000 N 
ATOM      2  C   UNL     1       6.883   5.222  16.325  0.00  0.00    +0.000 A 
ATOM      3  N   UNL     1       7.640   5.796  15.422  0.00  0.00    +0.000 NA
ATOM      4  C   UNL     1       7.385   5.111  14.257  0.00  0.00    +0.000 A 
ATOM      5  C   UNL     1       7.874   5.342  12.963  0.00  0.00    +0.000 A 
ATOM      6  C   UNL     1       7.330   4.611  11.901  0.00  0.00    +0.000 A 
ATOM      7  C   UNL     1       6.342   3.651  12.127  0.00  0.00    +0.000 A 
ATOM      8  C   UNL     1       5.902   3.351  13.422  0.00  0.00    +0.000 A 
ATOM      9  C   UNL     1       6.453   4.099  14.470  0.00  0.00    +0.000 A 
ENDROOT
BRANCH   1  10
ATOM     10  C   UNL     1       5.566   3.071  16.584  0.00  0.00    +0.000 C 
BRANCH  10  12
ATOM     11  N   UNL     1       4.180   3.762  18.520  0.00  0.00    +0.000 N 
ATOM     12  C   UNL     1       4.245   3.579  17.137  0.00  0.00    +0.000 C 
ATOM     13  O   UNL     1       3.349   3.872  16.344  0.00  0.00    +0.000 OA
ATOM     14  H   UNL     1       5.046   3.722  19.043  0.00  0.00    +0.000 HD
BRANCH  11  22
ATOM     15  C   UNL     1       1.907   1.905  19.119  0.00  0.00    +0.000 C 
ATOM     16  C   UNL     1       1.971   3.344  19.557  0.00  0.00    +0.000 A 
ATOM     17  C   UNL     1       0.926   3.805  20.388  0.00  0.00    +0.000 A 
ATOM     18  C   UNL     1       0.860   5.134  20.796  0.00  0.00    +0.000 A 
ATOM     19  C   UNL     1       1.831   6.021  20.363  0.00  0.00    +0.000 A 
ATOM     20 CL   UNL     1       1.708   7.689  20.774  0.00  0.00    +0.000 Cl
ATOM     21  C   UNL     1       2.904   5.573  19.592  0.00  0.00    +0.000 A 
ATOM     22  C   UNL     1       3.025   4.225  19.221  0.00  0.00    +0.000 A 
ENDBRANCH  11  22
ENDBRANCH  10  12
ENDBRANCH   1  10
BRANCH   2  23
ATOM     23  S   UNL     1       6.561   5.861  17.902  0.00  0.00    +0.000 S 
BRANCH  23  24
ATOM     24  C   UNL     1       7.997   6.936  18.196  0.00  0.00    +0.000 C 
BRANCH  24  25
ATOM     25  C   UNL     1       7.779   8.378  17.744  0.00  0.00    +0.000 C 
ATOM     26  O   UNL     1       6.802   8.705  17.075  0.00  0.00    +0.000 OA
ATOM     27  N   UNL     1       8.698   9.284  18.219  0.00  0.00    +0.000 N 
ATOM     28  H   UNL     1       9.592   8.906  18.536  0.00  0.00    +0.000 HD
BRANCH  27  29
ATOM     29  C   UNL     1       8.628  10.693  17.909  0.00  0.00    +0.000 C 
BRANCH  29  30
ATOM     30  C   UNL     1       9.816  11.463  18.440  0.00  0.00    +0.000 A 
ATOM     31  C   UNL     1      10.341  11.156  19.706  0.00  0.00    +0.000 A 
ATOM     32  C   UNL     1      11.465  11.827  20.199  0.00  0.00    +0.000 A 
ATOM     33  C   UNL     1      12.087  12.807  19.426  0.00  0.00    +0.000 A 
ATOM     34  C   UNL     1      11.592  13.108  18.160  0.00  0.00    +0.000 A 
ATOM     35  C   UNL     1      10.472  12.434  17.667  0.00  0.00    +0.000 A 
ENDBRANCH  29  30
ENDBRANCH  27  29
ENDBRANCH  24  25
ENDBRANCH  23  24
ENDBRANCH   2  23
TORSDOF 8
ENDMDL
MODEL 3
REMARK VINA RESULT:      -8.4      2.620      5.654
REMARK  Name = 
REMARK  9 active torsions:
REMARK  status: ('A' for Active; 'I' for Inactive)
REMARK    1  A    between atoms: C_1  and  C_2
REMARK    2  A    between atoms: C_8  and  N_9
REMARK    3  A    between atoms: C_10  and  C_12
REMARK    4  A    between atoms: C_12  and  N_13
REMARK    5  A    between atoms: C_14  and  S_15
REMARK    6  A    between atoms: S_15  and  C_16
REMARK    7  A    between atoms: C_16  and  C_17
REMARK    8  A    between atoms: N_19  and  C_20
REMARK    9  A    between atoms: C_20  and  C_21
REMARK                            x       y       z     vdW  Elec       q    Type
REMARK                         _______ _______ _______ _____ _____    ______ ____
ROOT
ATOM      1  N   UNL     1       5.897   3.986  16.021  0.00  0.00    +0.000 N 
ATOM      2  C   UNL     1       6.719   4.967  16.516  0.00  0.00    +0.000 A 
ATOM      3  N   UNL     1       7.572   5.388  15.615  0.00  0.00    +0.000 NA
ATOM      4  C   UNL     1       7.176   4.788  14.442  0.00  0.00    +0.000 A 
ATOM      5  C   UNL     1       7.693   4.936  13.148  0.00  0.00    +0.000 A 
ATOM      6  C   UNL     1       7.004   4.348  12.080  0.00  0.00    +0.000 A 
ATOM      7  C   UNL     1       5.842   3.608  12.302  0.00  0.00    +0.000 A 
ATOM      8  C   UNL     1       5.357   3.384  13.596  0.00  0.00    +0.000 A 
ATOM      9  C   UNL     1       6.057   3.986  14.650  0.00  0.00    +0.000 A 
ENDROOT
BRANCH   1  10
ATOM     10  C   UNL     1       4.991   3.128  16.757  0.00  0.00    +0.000 C 
BRANCH  10  12
ATOM     11  N   UNL     1       4.064   4.663  18.469  0.00  0.00    +0.000 N 
ATOM     12  C   UNL     1       3.809   3.889  17.335  0.00  0.00    +0.000 C 
ATOM     13  O   UNL     1       2.733   3.845  16.738  0.00  0.00    +0.000 OA
ATOM     14  H   UNL     1       5.030   4.816  18.729  0.00  0.00    +0.000 HD
BRANCH  11  22
ATOM     15  C   UNL     1       2.445   3.470  20.688  0.00  0.00    +0.000 C 
ATOM     16  C   UNL     1       2.350   4.903  20.239  0.00  0.00    +0.000 A 
ATOM     17  C   UNL     1       1.508   5.753  20.990  0.00  0.00    +0.000 A 
ATOM     18  C   UNL     1       1.304   7.079  20.620  0.00  0.00    +0.000 A 
ATOM     19  C   UNL     1       1.928   7.566  19.484  0.00  0.00    +0.000 A 
ATOM     20 CL   UNL     1       1.607   9.173  18.954  0.00  0.00    +0.000 Cl
ATOM     21  C   UNL     1       2.812   6.761  18.764  0.00  0.00    +0.000 A 
ATOM     22  C   UNL     1       3.081   5.440  19.154  0.00  0.00    +0.000 A 
ENDBRANCH  11  22
ENDBRANCH  10  12
ENDBRANCH   1  10
BRANCH   2  23
ATOM     23  S   UNL     1       6.546   5.633  18.105  0.00  0.00    +0.000 S 
BRANCH  23  24
ATOM     24  C   UNL     1       8.052   6.635  18.283  0.00  0.00    +0.000 C 
BRANCH  24  25
ATOM     25  C   UNL     1       7.877   8.081  17.826  0.00  0.00    +0.000 C 
ATOM     26  O   UNL     1       7.041   8.396  16.982  0.00  0.00    +0.000 OA
ATOM     27  N   UNL     1       8.652   9.002  18.491  0.00  0.00    +0.000 N 
ATOM     28  H   UNL     1       9.478   8.643  18.972  0.00  0.00    +0.000 HD
BRANCH  27  29
ATOM     29  C   UNL     1       8.595  10.416  18.201  0.00  0.00    +0.000 C 
BRANCH  29  30
ATOM     30  C   UNL     1       9.805  11.161  18.717  0.00  0.00    +0.000 A 
ATOM     31  C   UNL     1       9.962  11.377  20.095  0.00  0.00    +0.000 A 
ATOM     32  C   UNL     1      11.095  12.026  20.596  0.00  0.00    +0.000 A 
ATOM     33  C   UNL     1      12.093  12.460  19.725  0.00  0.00    +0.000 A 
ATOM     34  C   UNL     1      11.964  12.235  18.356  0.00  0.00    +0.000 A 
ATOM     35  C   UNL     1      10.833  11.582  17.858  0.00  0.00    +0.000 A 
ENDBRANCH  29  30
ENDBRANCH  27  29
ENDBRANCH  24  25
ENDBRANCH  23  24
ENDBRANCH   2  23
TORSDOF 8
ENDMDL
MODEL 4
REMARK VINA RESULT:      -8.3      3.845      5.700
REMARK  Name = 
REMARK  9 active torsions:
REMARK  status: ('A' for Active; 'I' for Inactive)
REMARK    1  A    between atoms: C_1  and  C_2
REMARK    2  A    between atoms: C_8  and  N_9
REMARK    3  A    between atoms: C_10  and  C_12
REMARK    4  A    between atoms: C_12  and  N_13
REMARK    5  A    between atoms: C_14  and  S_15
REMARK    6  A    between atoms: S_15  and  C_16
REMARK    7  A    between atoms: C_16  and  C_17
REMARK    8  A    between atoms: N_19  and  C_20
REMARK    9  A    between atoms: C_20  and  C_21
REMARK                            x       y       z     vdW  Elec       q    Type
REMARK                         _______ _______ _______ _____ _____    ______ ____
ROOT
ATOM      1  N   UNL     1       3.835   4.852  18.531  0.00  0.00    +0.000 N 
ATOM      2  C   UNL     1       5.046   4.286  18.842  0.00  0.00    +0.000 A 
ATOM      3  N   UNL     1       4.962   3.502  19.888  0.00  0.00    +0.000 NA
ATOM      4  C   UNL     1       3.617   3.415  20.161  0.00  0.00    +0.000 A 
ATOM      5  C   UNL     1       2.953   2.655  21.135  0.00  0.00    +0.000 A 
ATOM      6  C   UNL     1       1.555   2.598  21.103  0.00  0.00    +0.000 A 
ATOM      7  C   UNL     1       0.834   3.305  20.139  0.00  0.00    +0.000 A 
ATOM      8  C   UNL     1       1.477   4.131  19.210  0.00  0.00    +0.000 A 
ATOM      9  C   UNL     1       2.877   4.169  19.254  0.00  0.00    +0.000 A 
ENDROOT
BRANCH   1  10
ATOM     10  C   UNL     1       3.568   5.929  17.600  0.00  0.00    +0.000 C 
BRANCH  10  12
ATOM     11  N   UNL     1       2.678   7.669  19.125  0.00  0.00    +0.000 N 
ATOM     12  C   UNL     1       2.419   6.816  18.049  0.00  0.00    +0.000 C 
ATOM     13  O   UNL     1       1.371   6.794  17.404  0.00  0.00    +0.000 OA
ATOM     14  H   UNL     1       3.640   7.778  19.420  0.00  0.00    +0.000 HD
BRANCH  11  22
ATOM     15  C   UNL     1       2.053  10.273  17.784  0.00  0.00    +0.000 C 
ATOM     16  C   UNL     1       1.382   9.777  19.037  0.00  0.00    +0.000 A 
ATOM     17  C   UNL     1       0.321  10.558  19.545  0.00  0.00    +0.000 A 
ATOM     18  C   UNL     1      -0.322  10.219  20.731  0.00  0.00    +0.000 A 
ATOM     19  C   UNL     1       0.099   9.100  21.431  0.00  0.00    +0.000 A 
ATOM     20 CL   UNL     1      -0.618   8.724  22.951  0.00  0.00    +0.000 Cl
ATOM     21  C   UNL     1       1.104   8.281  20.915  0.00  0.00    +0.000 A 
ATOM     22  C   UNL     1       1.725   8.569  19.690  0.00  0.00    +0.000 A 
ENDBRANCH  11  22
ENDBRANCH  10  12
ENDBRANCH   1  10
BRANCH   2  23
ATOM     23  S   UNL     1       6.467   4.504  17.877  0.00  0.00    +0.000 S 
BRANCH  23  24
ATOM     24  C   UNL     1       7.282   5.916  18.681  0.00  0.00    +0.000 C 
BRANCH  24  25
ATOM     25  C   UNL     1       7.655   7.034  17.712  0.00  0.00    +0.000 C 
ATOM     26  O   UNL     1       7.587   6.884  16.495  0.00  0.00    +0.000 OA
ATOM     27  N   UNL     1       7.980   8.233  18.302  0.00  0.00    +0.000 N 
ATOM     28  H   UNL     1       8.260   8.201  19.283  0.00  0.00    +0.000 HD
BRANCH  27  29
ATOM     29  C   UNL     1       8.336   9.403  17.533  0.00  0.00    +0.000 C 
BRANCH  29  30
ATOM     30  C   UNL     1       8.932  10.498  18.387  0.00  0.00    +0.000 A 
ATOM     31  C   UNL     1       8.966  11.819  17.913  0.00  0.00    +0.000 A 
ATOM     32  C   UNL     1       9.474  12.854  18.705  0.00  0.00    +0.000 A 
ATOM     33  C   UNL     1       9.946  12.583  19.989  0.00  0.00    +0.000 A 
ATOM     34  C   UNL     1       9.900  11.282  20.483  0.00  0.00    +0.000 A 
ATOM     35  C   UNL     1       9.387  10.250  19.692  0.00  0.00    +0.000 A 
ENDBRANCH  29  30
ENDBRANCH  27  29
ENDBRANCH  24  25
ENDBRANCH  23  24
ENDBRANCH   2  23
TORSDOF 8
ENDMDL
MODEL 5
REMARK VINA RESULT:      -8.3      4.707      8.487
REMARK  Name = 
REMARK  9 active torsions:
REMARK  status: ('A' for Active; 'I' for Inactive)
REMARK    1  A    between atoms: C_1  and  C_2
REMARK    2  A    between atoms: C_8  and  N_9
REMARK    3  A    between atoms: C_10  and  C_12
REMARK    4  A    between atoms: C_12  and  N_13
REMARK    5  A    between atoms: C_14  and  S_15
REMARK    6  A    between atoms: S_15  and  C_16
REMARK    7  A    between atoms: C_16  and  C_17
REMARK    8  A    between atoms: N_19  and  C_20
REMARK    9  A    between atoms: C_20  and  C_21
REMARK                            x       y       z     vdW  Elec       q    Type
REMARK                         _______ _______ _______ _____ _____    ______ ____
ROOT
ATOM      1  N   UNL     1       3.455   5.830  18.186  0.00  0.00    +0.000 N 
ATOM      2  C   UNL     1       4.762   5.598  18.537  0.00  0.00    +0.000 A 
ATOM      3  N   UNL     1       4.866   4.619  19.401  0.00  0.00    +0.000 NA
ATOM      4  C   UNL     1       3.604   4.078  19.481  0.00  0.00    +0.000 A 
ATOM      5  C   UNL     1       3.157   2.964  20.207  0.00  0.00    +0.000 A 
ATOM      6  C   UNL     1       1.854   2.502  19.989  0.00  0.00    +0.000 A 
ATOM      7  C   UNL     1       1.008   3.152  19.089  0.00  0.00    +0.000 A 
ATOM      8  C   UNL     1       1.412   4.312  18.417  0.00  0.00    +0.000 A 
ATOM      9  C   UNL     1       2.721   4.754  18.644  0.00  0.00    +0.000 A 
ENDROOT
BRANCH   1  10
ATOM     10  C   UNL     1       2.919   6.952  17.444  0.00  0.00    +0.000 C 
BRANCH  10  12
ATOM     11  N   UNL     1       1.719   9.105  17.711  0.00  0.00    +0.000 N 
ATOM     12  C   UNL     1       2.282   7.996  18.346  0.00  0.00    +0.000 C 
ATOM     13  O   UNL     1       2.228   7.774  19.556  0.00  0.00    +0.000 OA
ATOM     14  H   UNL     1       1.607   9.067  16.705  0.00  0.00    +0.000 HD
BRANCH  11  22
ATOM     15  C   UNL     1      -1.233   9.545  17.458  0.00  0.00    +0.000 C 
ATOM     16  C   UNL     1      -0.319  10.373  18.320  0.00  0.00    +0.000 A 
ATOM     17  C   UNL     1      -0.924  11.356  19.133  0.00  0.00    +0.000 A 
ATOM     18  C   UNL     1      -0.162  12.215  19.919  0.00  0.00    +0.000 A 
ATOM     19  C   UNL     1       1.219  12.109  19.889  0.00  0.00    +0.000 A 
ATOM     20 CL   UNL     1       2.180  13.229  20.776  0.00  0.00    +0.000 Cl
ATOM     21  C   UNL     1       1.834  11.105  19.140  0.00  0.00    +0.000 A 
ATOM     22  C   UNL     1       1.083  10.189  18.389  0.00  0.00    +0.000 A 
ENDBRANCH  11  22
ENDBRANCH  10  12
ENDBRANCH   1  10
BRANCH   2  23
ATOM     23  S   UNL     1       6.097   6.431  17.815  0.00  0.00    +0.000 S 
BRANCH  23  24
ATOM     24  C   UNL     1       6.811   5.167  16.722  0.00  0.00    +0.000 C 
BRANCH  24  25
ATOM     25  C   UNL     1       6.518   5.408  15.243  0.00  0.00    +0.000 C 
ATOM     26  O   UNL     1       5.542   6.056  14.875  0.00  0.00    +0.000 OA
ATOM     27  N   UNL     1       7.470   4.929  14.374  0.00  0.00    +0.000 N 
ATOM     28  H   UNL     1       8.090   4.200  14.730  0.00  0.00    +0.000 HD
BRANCH  27  29
ATOM     29  C   UNL     1       7.363   5.091  12.942  0.00  0.00    +0.000 C 
BRANCH  29  30
ATOM     30  C   UNL     1       6.802   3.863  12.262  0.00  0.00    +0.000 A 
ATOM     31  C   UNL     1       7.671   2.908  11.710  0.00  0.00    +0.000 A 
ATOM     32  C   UNL     1       7.174   1.744  11.114  0.00  0.00    +0.000 A 
ATOM     33  C   UNL     1       5.799   1.514  11.071  0.00  0.00    +0.000 A 
ATOM     34  C   UNL     1       4.924   2.441  11.633  0.00  0.00    +0.000 A 
ATOM     35  C   UNL     1       5.423   3.601  12.233  0.00  0.00    +0.000 A 
ENDBRANCH  29  30
ENDBRANCH  27  29
ENDBRANCH  24  25
ENDBRANCH  23  24
ENDBRANCH   2  23
TORSDOF 8
ENDMDL
MODEL 6
REMARK VINA RESULT:      -8.3      3.652      5.607
REMARK  Name = 
REMARK  9 active torsions:
REMARK  status: ('A' for Active; 'I' for Inactive)
REMARK    1  A    between atoms: C_1  and  C_2
REMARK    2  A    between atoms: C_8  and  N_9
REMARK    3  A    between atoms: C_10  and  C_12
REMARK    4  A    between atoms: C_12  and  N_13
REMARK    5  A    between atoms: C_14  and  S_15
REMARK    6  A    between atoms: S_15  and  C_16
REMARK    7  A    between atoms: C_16  and  C_17
REMARK    8  A    between atoms: N_19  and  C_20
REMARK    9  A    between atoms: C_20  and  C_21
REMARK                            x       y       z     vdW  Elec       q    Type
REMARK                         _______ _______ _______ _____ _____    ______ ____
ROOT
ATOM      1  N   UNL     1       3.989   4.931  18.402  0.00  0.00    +0.000 N 
ATOM      2  C   UNL     1       5.195   4.361  18.725  0.00  0.00    +0.000 A 
ATOM      3  N   UNL     1       5.088   3.540  19.740  0.00  0.00    +0.000 NA
ATOM      4  C   UNL     1       3.737   3.436  19.973  0.00  0.00    +0.000 A 
ATOM      5  C   UNL     1       3.053   2.639  20.902  0.00  0.00    +0.000 A 
ATOM      6  C   UNL     1       1.656   2.575  20.831  0.00  0.00    +0.000 A 
ATOM      7  C   UNL     1       0.957   3.312  19.873  0.00  0.00    +0.000 A 
ATOM      8  C   UNL     1       1.619   4.174  18.991  0.00  0.00    +0.000 A 
ATOM      9  C   UNL     1       3.017   4.217  19.074  0.00  0.00    +0.000 A 
ENDROOT
BRANCH   1  10
ATOM     10  C   UNL     1       3.740   6.038  17.502  0.00  0.00    +0.000 C 
BRANCH  10  12
ATOM     11  N   UNL     1       2.789   7.875  18.869  0.00  0.00    +0.000 N 
ATOM     12  C   UNL     1       2.544   6.875  17.925  0.00  0.00    +0.000 C 
ATOM     13  O   UNL     1       1.464   6.682  17.366  0.00  0.00    +0.000 OA
ATOM     14  H   UNL     1       3.753   8.102  19.077  0.00  0.00    +0.000 HD
BRANCH  11  22
ATOM     15  C   UNL     1       1.182   7.111  21.278  0.00  0.00    +0.000 C 
ATOM     16  C   UNL     1       1.067   8.428  20.560  0.00  0.00    +0.000 A 
ATOM     17  C   UNL     1       0.210   9.394  21.131  0.00  0.00    +0.000 A 
ATOM     18  C   UNL     1      -0.014  10.620  20.511  0.00  0.00    +0.000 A 
ATOM     19  C   UNL     1       0.607  10.887  19.301  0.00  0.00    +0.000 A 
ATOM     20 CL   UNL     1       0.262  12.355  18.470  0.00  0.00    +0.000 Cl
ATOM     21  C   UNL     1       1.504   9.971  18.751  0.00  0.00    +0.000 A 
ATOM     22  C   UNL     1       1.793   8.755  19.390  0.00  0.00    +0.000 A 
ENDBRANCH  11  22
ENDBRANCH  10  12
ENDBRANCH   1  10
BRANCH   2  23
ATOM     23  S   UNL     1       6.640   4.620  17.806  0.00  0.00    +0.000 S 
BRANCH  23  24
ATOM     24  C   UNL     1       7.436   5.991  18.696  0.00  0.00    +0.000 C 
BRANCH  24  25
ATOM     25  C   UNL     1       7.750   7.191  17.807  0.00  0.00    +0.000 C 
ATOM     26  O   UNL     1       7.586   7.155  16.590  0.00  0.00    +0.000 OA
ATOM     27  N   UNL     1       8.135   8.329  18.477  0.00  0.00    +0.000 N 
ATOM     28  H   UNL     1       8.489   8.204  19.426  0.00  0.00    +0.000 HD
BRANCH  27  29
ATOM     29  C   UNL     1       8.447   9.562  17.793  0.00  0.00    +0.000 C 
BRANCH  29  30
ATOM     30  C   UNL     1       9.365  10.454  18.597  0.00  0.00    +0.000 A 
ATOM     31  C   UNL     1      10.301  11.271  17.942  0.00  0.00    +0.000 A 
ATOM     32  C   UNL     1      11.130  12.135  18.665  0.00  0.00    +0.000 A 
ATOM     33  C   UNL     1      11.028  12.200  20.054  0.00  0.00    +0.000 A 
ATOM     34  C   UNL     1      10.091  11.412  20.717  0.00  0.00    +0.000 A 
ATOM     35  C   UNL     1       9.260  10.553  19.993  0.00  0.00    +0.000 A 
ENDBRANCH  29  30
ENDBRANCH  27  29
ENDBRANCH  24  25
ENDBRANCH  23  24
ENDBRANCH   2  23
TORSDOF 8
ENDMDL
MODEL 7
REMARK VINA RESULT:      -8.2      1.322      1.512
REMARK  Name = 
REMARK  9 active torsions:
REMARK  status: ('A' for Active; 'I' for Inactive)
REMARK    1  A    between atoms: C_1  and  C_2
REMARK    2  A    between atoms: C_8  and  N_9
REMARK    3  A    between atoms: C_10  and  C_12
REMARK    4  A    between atoms: C_12  and  N_13
REMARK    5  A    between atoms: C_14  and  S_15
REMARK    6  A    between atoms: S_15  and  C_16
REMARK    7  A    between atoms: C_16  and  C_17
REMARK    8  A    between atoms: N_19  and  C_20
REMARK    9  A    between atoms: C_20  and  C_21
REMARK                            x       y       z     vdW  Elec       q    Type
REMARK                         _______ _______ _______ _____ _____    ______ ____
ROOT
ATOM      1  N   UNL     1       4.834   4.482  17.356  0.00  0.00    +0.000 N 
ATOM      2  C   UNL     1       5.820   4.506  18.309  0.00  0.00    +0.000 A 
ATOM      3  N   UNL     1       5.362   4.178  19.492  0.00  0.00    +0.000 NA
ATOM      4  C   UNL     1       4.073   3.754  19.269  0.00  0.00    +0.000 A 
ATOM      5  C   UNL     1       3.139   3.229  20.174  0.00  0.00    +0.000 A 
ATOM      6  C   UNL     1       1.942   2.703  19.673  0.00  0.00    +0.000 A 
ATOM      7  C   UNL     1       1.672   2.726  18.304  0.00  0.00    +0.000 A 
ATOM      8  C   UNL     1       2.557   3.319  17.396  0.00  0.00    +0.000 A 
ATOM      9  C   UNL     1       3.752   3.833  17.917  0.00  0.00    +0.000 A 
ENDROOT
BRANCH   1  10
ATOM     10  C   UNL     1       4.893   4.989  16.001  0.00  0.00    +0.000 C 
BRANCH  10  12
ATOM     11  N   UNL     1       5.465   4.279  13.696  0.00  0.00    +0.000 N 
ATOM     12  C   UNL     1       5.643   4.058  15.063  0.00  0.00    +0.000 C 
ATOM     13  O   UNL     1       6.413   3.228  15.549  0.00  0.00    +0.000 OA
ATOM     14  H   UNL     1       5.006   5.135  13.411  0.00  0.00    +0.000 HD
BRANCH  11  22
ATOM     15  C   UNL     1       7.701   5.417  12.060  0.00  0.00    +0.000 C 
ATOM     16  C   UNL     1       7.174   4.015  11.923  0.00  0.00    +0.000 A 
ATOM     17  C   UNL     1       7.855   3.161  11.028  0.00  0.00    +0.000 A 
ATOM     18  C   UNL     1       7.409   1.865  10.784  0.00  0.00    +0.000 A 
ATOM     19  C   UNL     1       6.266   1.414  11.422  0.00  0.00    +0.000 A 
ATOM     20 CL   UNL     1       5.644  -0.149  11.055  0.00  0.00    +0.000 Cl
ATOM     21  C   UNL     1       5.614   2.219  12.356  0.00  0.00    +0.000 A 
ATOM     22  C   UNL     1       6.081   3.507  12.665  0.00  0.00    +0.000 A 
ENDBRANCH  11  22
ENDBRANCH  10  12
ENDBRANCH   1  10
BRANCH   2  23
ATOM     23  S   UNL     1       7.484   4.815  17.941  0.00  0.00    +0.000 S 
BRANCH  23  24
ATOM     24  C   UNL     1       7.814   6.352  18.853  0.00  0.00    +0.000 C 
BRANCH  24  25
ATOM     25  C   UNL     1       7.882   7.586  17.959  0.00  0.00    +0.000 C 
ATOM     26  O   UNL     1       7.387   7.599  16.835  0.00  0.00    +0.000 OA
ATOM     27  N   UNL     1       8.451   8.697  18.538  0.00  0.00    +0.000 N 
ATOM     28  H   UNL     1       9.052   8.534  19.347  0.00  0.00    +0.000 HD
BRANCH  27  29
ATOM     29  C   UNL     1       8.574   9.957  17.842  0.00  0.00    +0.000 C 
BRANCH  29  30
ATOM     30  C   UNL     1       9.418  10.956  18.599  0.00  0.00    +0.000 A 
ATOM     31  C   UNL     1       9.895  12.107  17.950  0.00  0.00    +0.000 A 
ATOM     32  C   UNL     1      10.642  13.065  18.644  0.00  0.00    +0.000 A 
ATOM     33  C   UNL     1      10.913  12.890  20.001  0.00  0.00    +0.000 A 
ATOM     34  C   UNL     1      10.429  11.766  20.664  0.00  0.00    +0.000 A 
ATOM     35  C   UNL     1       9.679  10.811  19.971  0.00  0.00    +0.000 A 
ENDBRANCH  29  30
ENDBRANCH  27  29
ENDBRANCH  24  25
ENDBRANCH  23  24
ENDBRANCH   2  23
TORSDOF 8
ENDMDL
MODEL 8
REMARK VINA RESULT:      -8.2      4.537      6.654
REMARK  Name = 
REMARK  9 active torsions:
REMARK  status: ('A' for Active; 'I' for Inactive)
REMARK    1  A    between atoms: C_1  and  C_2
REMARK    2  A    between atoms: C_8  and  N_9
REMARK    3  A    between atoms: C_10  and  C_12
REMARK    4  A    between atoms: C_12  and  N_13
REMARK    5  A    between atoms: C_14  and  S_15
REMARK    6  A    between atoms: S_15  and  C_16
REMARK    7  A    between atoms: C_16  and  C_17
REMARK    8  A    between atoms: N_19  and  C_20
REMARK    9  A    between atoms: C_20  and  C_21
REMARK                            x       y       z     vdW  Elec       q    Type
REMARK                         _______ _______ _______ _____ _____    ______ ____
ROOT
ATOM      1  N   UNL     1       3.724   5.382  17.952  0.00  0.00    +0.000 N 
ATOM      2  C   UNL     1       2.581   6.119  18.132  0.00  0.00    +0.000 A 
ATOM      3  N   UNL     1       1.522   5.356  18.243  0.00  0.00    +0.000 NA
ATOM      4  C   UNL     1       2.013   4.074  18.316  0.00  0.00    +0.000 A 
ATOM      5  C   UNL     1       1.326   2.866  18.506  0.00  0.00    +0.000 A 
ATOM      6  C   UNL     1       2.069   1.699  18.721  0.00  0.00    +0.000 A 
ATOM      7  C   UNL     1       3.464   1.731  18.718  0.00  0.00    +0.000 A 
ATOM      8  C   UNL     1       4.165   2.913  18.449  0.00  0.00    +0.000 A 
ATOM      9  C   UNL     1       3.403   4.071  18.244  0.00  0.00    +0.000 A 
ENDROOT
BRANCH   1  10
ATOM     10  C   UNL     1       5.039   5.856  17.572  0.00  0.00    +0.000 C 
BRANCH  10  12
ATOM     11  N   UNL     1       5.574   4.551  15.533  0.00  0.00    +0.000 N 
ATOM     12  C   UNL     1       5.265   5.802  16.071  0.00  0.00    +0.000 C 
ATOM     13  O   UNL     1       5.090   6.828  15.412  0.00  0.00    +0.000 OA
ATOM     14  H   UNL     1       5.453   3.739  16.127  0.00  0.00    +0.000 HD
BRANCH  11  22
ATOM     15  C   UNL     1       8.180   5.341  14.287  0.00  0.00    +0.000 C 
ATOM     16  C   UNL     1       7.072   4.624  13.564  0.00  0.00    +0.000 A 
ATOM     17  C   UNL     1       7.335   4.217  12.237  0.00  0.00    +0.000 A 
ATOM     18  C   UNL     1       6.356   3.602  11.462  0.00  0.00    +0.000 A 
ATOM     19  C   UNL     1       5.096   3.402  12.002  0.00  0.00    +0.000 A 
ATOM     20 CL   UNL     1       3.844   2.736  11.024  0.00  0.00    +0.000 Cl
ATOM     21  C   UNL     1       4.835   3.740  13.330  0.00  0.00    +0.000 A 
ATOM     22  C   UNL     1       5.825   4.304  14.149  0.00  0.00    +0.000 A 
ENDBRANCH  11  22
ENDBRANCH  10  12
ENDBRANCH   1  10
BRANCH   2  23
ATOM     23  S   UNL     1       2.585   7.842  18.311  0.00  0.00    +0.000 S 
BRANCH  23  24
ATOM     24  C   UNL     1       1.804   8.076  19.935  0.00  0.00    +0.000 C 
BRANCH  24  25
ATOM     25  C   UNL     1       0.988   9.361  20.036  0.00  0.00    +0.000 C 
ATOM     26  O   UNL     1       0.710   9.868  21.120  0.00  0.00    +0.000 OA
ATOM     27  N   UNL     1       0.672   9.949  18.833  0.00  0.00    +0.000 N 
ATOM     28  H   UNL     1       0.708   9.350  18.007  0.00  0.00    +0.000 HD
BRANCH  27  29
ATOM     29  C   UNL     1      -0.075  11.182  18.746  0.00  0.00    +0.000 C 
BRANCH  29  30
ATOM     30  C   UNL     1      -1.495  10.966  18.274  0.00  0.00    +0.000 A 
ATOM     31  C   UNL     1      -2.538  11.736  18.813  0.00  0.00    +0.000 A 
ATOM     32  C   UNL     1      -3.852  11.581  18.359  0.00  0.00    +0.000 A 
ATOM     33  C   UNL     1      -4.140  10.661  17.351  0.00  0.00    +0.000 A 
ATOM     34  C   UNL     1      -3.113   9.905  16.791  0.00  0.00    +0.000 A 
ATOM     35  C   UNL     1      -1.799  10.064  17.242  0.00  0.00    +0.000 A 
ENDBRANCH  29  30
ENDBRANCH  27  29
ENDBRANCH  24  25
ENDBRANCH  23  24
ENDBRANCH   2  23
TORSDOF 8
ENDMDL
MODEL 9
REMARK VINA RESULT:      -8.2      4.670      8.609
REMARK  Name = 
REMARK  9 active torsions:
REMARK  status: ('A' for Active; 'I' for Inactive)
REMARK    1  A    between atoms: C_1  and  C_2
REMARK    2  A    between atoms: C_8  and  N_9
REMARK    3  A    between atoms: C_10  and  C_12
REMARK    4  A    between atoms: C_12  and  N_13
REMARK    5  A    between atoms: C_14  and  S_15
REMARK    6  A    between atoms: S_15  and  C_16
REMARK    7  A    between atoms: C_16  and  C_17
REMARK    8  A    between atoms: N_19  and  C_20
REMARK    9  A    between atoms: C_20  and  C_21
REMARK                            x       y       z     vdW  Elec       q    Type
REMARK                         _______ _______ _______ _____ _____    ______ ____
ROOT
ATOM      1  N   UNL     1       3.650   5.411  18.560  0.00  0.00    +0.000 N 
ATOM      2  C   UNL     1       4.929   4.981  18.809  0.00  0.00    +0.000 A 
ATOM      3  N   UNL     1       4.947   3.770  19.309  0.00  0.00    +0.000 NA
ATOM      4  C   UNL     1       3.649   3.328  19.217  0.00  0.00    +0.000 A 
ATOM      5  C   UNL     1       3.109   2.076  19.545  0.00  0.00    +0.000 A 
ATOM      6  C   UNL     1       1.780   1.806  19.196  0.00  0.00    +0.000 A 
ATOM      7  C   UNL     1       1.000   2.773  18.560  0.00  0.00    +0.000 A 
ATOM      8  C   UNL     1       1.498   4.055  18.298  0.00  0.00    +0.000 A 
ATOM      9  C   UNL     1       2.832   4.302  18.648  0.00  0.00    +0.000 A 
ENDROOT
BRANCH   1  10
ATOM     10  C   UNL     1       3.209   6.749  18.224  0.00  0.00    +0.000 C 
BRANCH  10  12
ATOM     11  N   UNL     1       1.738   8.579  19.017  0.00  0.00    +0.000 N 
ATOM     12  C   UNL     1       2.397   7.391  19.337  0.00  0.00    +0.000 C 
ATOM     13  O   UNL     1       2.301   6.799  20.412  0.00  0.00    +0.000 OA
ATOM     14  H   UNL     1       1.689   8.845  18.041  0.00  0.00    +0.000 HD
BRANCH  11  22
ATOM     15  C   UNL     1      -0.012  10.805  18.040  0.00  0.00    +0.000 C 
ATOM     16  C   UNL     1       0.062  10.345  19.471  0.00  0.00    +0.000 A 
ATOM     17  C   UNL     1      -0.831  10.948  20.383  0.00  0.00    +0.000 A 
ATOM     18  C   UNL     1      -0.799  10.638  21.739  0.00  0.00    +0.000 A 
ATOM     19  C   UNL     1       0.139   9.730  22.201  0.00  0.00    +0.000 A 
ATOM     20 CL   UNL     1       0.259   9.411  23.889  0.00  0.00    +0.000 Cl
ATOM     21  C   UNL     1       0.989   9.077  21.309  0.00  0.00    +0.000 A 
ATOM     22  C   UNL     1       0.933   9.328  19.929  0.00  0.00    +0.000 A 
ENDBRANCH  11  22
ENDBRANCH  10  12
ENDBRANCH   1  10
BRANCH   2  23
ATOM     23  S   UNL     1       6.334   5.902  18.390  0.00  0.00    +0.000 S 
BRANCH  23  24
ATOM     24  C   UNL     1       6.104   6.191  16.610  0.00  0.00    +0.000 C 
BRANCH  24  25
ATOM     25  C   UNL     1       6.955   5.279  15.731  0.00  0.00    +0.000 C 
ATOM     26  O   UNL     1       7.674   4.407  16.211  0.00  0.00    +0.000 OA
ATOM     27  N   UNL     1       6.783   5.446  14.377  0.00  0.00    +0.000 N 
ATOM     28  H   UNL     1       6.384   6.335  14.072  0.00  0.00    +0.000 HD
BRANCH  27  29
ATOM     29  C   UNL     1       7.492   4.650  13.402  0.00  0.00    +0.000 C 
BRANCH  29  30
ATOM     30  C   UNL     1       6.572   3.742  12.617  0.00  0.00    +0.000 A 
ATOM     31  C   UNL     1       5.197   4.021  12.554  0.00  0.00    +0.000 A 
ATOM     32  C   UNL     1       4.336   3.219  11.799  0.00  0.00    +0.000 A 
ATOM     33  C   UNL     1       4.840   2.131  11.086  0.00  0.00    +0.000 A 
ATOM     34  C   UNL     1       6.205   1.853  11.121  0.00  0.00    +0.000 A 
ATOM     35  C   UNL     1       7.065   2.659  11.872  0.00  0.00    +0.000 A 
ENDBRANCH  29  30
ENDBRANCH  27  29
ENDBRANCH  24  25
ENDBRANCH  23  24
ENDBRANCH   2  23
TORSDOF 8
ENDMDL
