MODEL 1
REMARK VINA RESULT:      -6.6      0.000      0.000
REMARK  Name = 
REMARK  4 active torsions:
REMARK  status: ('A' for Active; 'I' for Inactive)
REMARK    1  A    between atoms: C_1  and  O_2
REMARK    2  A    between atoms: O_2  and  C_3
REMARK    3  A    between atoms: C_3  and  C_4
REMARK    4  A    between atoms: C_4  and  N_5
REMARK                            x       y       z     vdW  Elec       q    Type
REMARK                         _______ _______ _______ _____ _____    ______ ____
ROOT
ATOM      1  N   UNL     1       6.661   4.562  15.517  0.00  0.00    +0.000 NA
ATOM      2  C   UNL     1       6.781   5.962  15.942  0.00  0.00    +0.000 C 
ATOM      3  C   UNL     1       6.155   5.979  17.333  0.00  0.00    +0.000 C 
ATOM      4  C   UNL     1       5.112   4.873  17.274  0.00  0.00    +0.000 C 
ATOM      5  C   UNL     1       5.314   4.158  15.940  0.00  0.00    +0.000 C 
ATOM      6  C   UNL     1       5.143   3.953  18.505  0.00  0.00    +0.000 C 
ATOM      7  N   UNL     1       3.723   3.862  18.381  0.00  0.00    +0.000 N 
ATOM      8  C   UNL     1       2.898   3.453  19.426  0.00  0.00    +0.000 A 
ATOM      9  N   UNL     1       1.590   3.772  19.397  0.00  0.00    +0.000 NA
ATOM     10  C   UNL     1       0.855   3.418  20.474  0.00  0.00    +0.000 A 
ATOM     11  C   UNL     1       1.378   2.771  21.567  0.00  0.00    +0.000 A 
ATOM     12  F   UNL     1       0.638   2.474  22.639  0.00  0.00    +0.000 F 
ATOM     13  C   UNL     1       2.707   2.466  21.500  0.00  0.00    +0.000 A 
ATOM     14  N   UNL     1       3.477   2.780  20.443  0.00  0.00    +0.000 NA
ATOM     15  C   UNL     1       3.630   5.099  17.666  0.00  0.00    +0.000 C 
ENDROOT
BRANCH   1  16
ATOM     16  C   UNL     1       6.830   4.377  14.070  0.00  0.00    +0.000 C 
BRANCH  16  17
ATOM     17  C   UNL     1       5.609   3.745  13.394  0.00  0.00    +0.000 C 
BRANCH  17  19
ATOM     18  C   UNL     1       4.815   2.924  11.342  0.00  0.00    +0.000 C 
ATOM     19  O   UNL     1       5.957   3.367  12.060  0.00  0.00    +0.000 OA
ENDBRANCH  17  19
ENDBRANCH  16  17
ENDBRANCH   1  16
TORSDOF 3
ENDMDL
MODEL 2
REMARK VINA RESULT:      -6.3      4.412      5.403
REMARK  Name = 
REMARK  4 active torsions:
REMARK  status: ('A' for Active; 'I' for Inactive)
REMARK    1  A    between atoms: C_1  and  O_2
REMARK    2  A    between atoms: O_2  and  C_3
REMARK    3  A    between atoms: C_3  and  C_4
REMARK    4  A    between atoms: C_4  and  N_5
REMARK                            x       y       z     vdW  Elec       q    Type
REMARK                         _______ _______ _______ _____ _____    ______ ____
ROOT
ATOM      1  N   UNL     1       4.622   4.867  17.729  0.00  0.00    +0.000 NA
ATOM      2  C   UNL     1       3.517   3.914  17.565  0.00  0.00    +0.000 C 
ATOM      3  C   UNL     1       2.270   4.743  17.859  0.00  0.00    +0.000 C 
ATOM      4  C   UNL     1       2.758   5.792  18.848  0.00  0.00    +0.000 C 
ATOM      5  C   UNL     1       4.275   5.639  18.929  0.00  0.00    +0.000 C 
ATOM      6  C   UNL     1       2.275   7.210  18.505  0.00  0.00    +0.000 C 
ATOM      7  N   UNL     1       2.186   7.440  19.913  0.00  0.00    +0.000 N 
ATOM      8  C   UNL     1       1.425   8.468  20.464  0.00  0.00    +0.000 A 
ATOM      9  N   UNL     1       1.049   8.391  21.754  0.00  0.00    +0.000 NA
ATOM     10  C   UNL     1       0.246   9.377  22.212  0.00  0.00    +0.000 A 
ATOM     11  C   UNL     1      -0.194  10.418  21.432  0.00  0.00    +0.000 A 
ATOM     12  F   UNL     1      -1.025  11.354  21.898  0.00  0.00    +0.000 F 
ATOM     13  C   UNL     1       0.256  10.428  20.143  0.00  0.00    +0.000 A 
ATOM     14  N   UNL     1       1.071   9.481  19.645  0.00  0.00    +0.000 NA
ATOM     15  C   UNL     1       2.063   6.045  20.210  0.00  0.00    +0.000 C 
ENDROOT
BRANCH   1  16
ATOM     16  C   UNL     1       5.930   4.218  17.887  0.00  0.00    +0.000 C 
BRANCH  16  17
ATOM     17  C   UNL     1       7.105   5.125  17.507  0.00  0.00    +0.000 C 
BRANCH  17  19
ATOM     18  C   UNL     1       7.122   4.723  15.193  0.00  0.00    +0.000 C 
ATOM     19  O   UNL     1       7.818   4.535  16.417  0.00  0.00    +0.000 OA
ENDBRANCH  17  19
ENDBRANCH  16  17
ENDBRANCH   1  16
TORSDOF 3
ENDMDL
MODEL 3
REMARK VINA RESULT:      -6.2      4.543      5.733
REMARK  Name = 
REMARK  4 active torsions:
REMARK  status: ('A' for Active; 'I' for Inactive)
REMARK    1  A    between atoms: C_1  and  O_2
REMARK    2  A    between atoms: O_2  and  C_3
REMARK    3  A    between atoms: C_3  and  C_4
REMARK    4  A    between atoms: C_4  and  N_5
REMARK                            x       y       z     vdW  Elec       q    Type
REMARK                         _______ _______ _______ _____ _____    ______ ____
ROOT
ATOM      1  N   UNL     1       4.356   4.774  17.285  0.00  0.00    +0.000 NA
ATOM      2  C   UNL     1       3.240   3.821  17.306  0.00  0.00    +0.000 C 
ATOM      3  C   UNL     1       2.045   4.663  17.743  0.00  0.00    +0.000 C 
ATOM      4  C   UNL     1       2.663   5.742  18.619  0.00  0.00    +0.000 C 
ATOM      5  C   UNL     1       4.178   5.586  18.495  0.00  0.00    +0.000 C 
ATOM      6  C   UNL     1       2.136   7.150  18.301  0.00  0.00    +0.000 C 
ATOM      7  N   UNL     1       2.243   7.425  19.699  0.00  0.00    +0.000 N 
ATOM      8  C   UNL     1       1.564   8.474  20.316  0.00  0.00    +0.000 A 
ATOM      9  N   UNL     1       1.370   8.440  21.648  0.00  0.00    +0.000 NA
ATOM     10  C   UNL     1       0.637   9.443  22.179  0.00  0.00    +0.000 A 
ATOM     11  C   UNL     1       0.093  10.460  21.434  0.00  0.00    +0.000 A 
ATOM     12  F   UNL     1      -0.667  11.413  21.979  0.00  0.00    +0.000 F 
ATOM     13  C   UNL     1       0.360  10.426  20.096  0.00  0.00    +0.000 A 
ATOM     14  N   UNL     1       1.099   9.461  19.521  0.00  0.00    +0.000 NA
ATOM     15  C   UNL     1       2.163   6.041  20.055  0.00  0.00    +0.000 C 
ENDROOT
BRANCH   1  16
ATOM     16  C   UNL     1       5.674   4.126  17.281  0.00  0.00    +0.000 C 
BRANCH  16  17
ATOM     17  C   UNL     1       6.838   5.122  17.316  0.00  0.00    +0.000 C 
BRANCH  17  19
ATOM     18  C   UNL     1       7.836   5.741  19.350  0.00  0.00    +0.000 C 
ATOM     19  O   UNL     1       7.750   4.738  18.348  0.00  0.00    +0.000 OA
ENDBRANCH  17  19
ENDBRANCH  16  17
ENDBRANCH   1  16
TORSDOF 3
ENDMDL
MODEL 4
REMARK VINA RESULT:      -6.1      1.379      1.677
REMARK  Name = 
REMARK  4 active torsions:
REMARK  status: ('A' for Active; 'I' for Inactive)
REMARK    1  A    between atoms: C_1  and  O_2
REMARK    2  A    between atoms: O_2  and  C_3
REMARK    3  A    between atoms: C_3  and  C_4
REMARK    4  A    between atoms: C_4  and  N_5
REMARK                            x       y       z     vdW  Elec       q    Type
REMARK                         _______ _______ _______ _____ _____    ______ ____
ROOT
ATOM      1  N   UNL     1       6.627   3.879  13.770  0.00  0.00    +0.000 NA
ATOM      2  C   UNL     1       7.382   5.054  14.222  0.00  0.00    +0.000 C 
ATOM      3  C   UNL     1       7.060   5.149  15.711  0.00  0.00    +0.000 C 
ATOM      4  C   UNL     1       5.661   4.561  15.816  0.00  0.00    +0.000 C 
ATOM      5  C   UNL     1       5.324   3.993  14.439  0.00  0.00    +0.000 C 
ATOM      6  C   UNL     1       5.515   3.563  16.975  0.00  0.00    +0.000 C 
ATOM      7  N   UNL     1       4.184   4.057  17.136  0.00  0.00    +0.000 N 
ATOM      8  C   UNL     1       3.450   3.884  18.308  0.00  0.00    +0.000 A 
ATOM      9  N   UNL     1       2.405   4.696  18.556  0.00  0.00    +0.000 NA
ATOM     10  C   UNL     1       1.781   4.534  19.743  0.00  0.00    +0.000 A 
ATOM     11  C   UNL     1       2.165   3.606  20.680  0.00  0.00    +0.000 A 
ATOM     12  F   UNL     1       1.559   3.498  21.865  0.00  0.00    +0.000 F 
ATOM     13  C   UNL     1       3.219   2.810  20.333  0.00  0.00    +0.000 A 
ATOM     14  N   UNL     1       3.862   2.919  19.157  0.00  0.00    +0.000 NA
ATOM     15  C   UNL     1       4.491   5.307  16.508  0.00  0.00    +0.000 C 
ENDROOT
BRANCH   1  16
ATOM     16  C   UNL     1       6.461   3.820  12.313  0.00  0.00    +0.000 C 
BRANCH  16  17
ATOM     17  C   UNL     1       5.196   3.072  11.877  0.00  0.00    +0.000 C 
BRANCH  17  19
ATOM     18  C   UNL     1       6.894   1.687  11.031  0.00  0.00    +0.000 C 
ATOM     19  O   UNL     1       5.550   1.743  11.488  0.00  0.00    +0.000 OA
ENDBRANCH  17  19
ENDBRANCH  16  17
ENDBRANCH   1  16
TORSDOF 3
ENDMDL
MODEL 5
REMARK VINA RESULT:      -6.1      1.086      1.136
REMARK  Name = 
REMARK  4 active torsions:
REMARK  status: ('A' for Active; 'I' for Inactive)
REMARK    1  A    between atoms: C_1  and  O_2
REMARK    2  A    between atoms: O_2  and  C_3
REMARK    3  A    between atoms: C_3  and  C_4
REMARK    4  A    between atoms: C_4  and  N_5
REMARK                            x       y       z     vdW  Elec       q    Type
REMARK                         _______ _______ _______ _____ _____    ______ ____
ROOT
ATOM      1  N   UNL     1       6.385   4.095  14.364  0.00  0.00    +0.000 NA
ATOM      2  C   UNL     1       7.333   4.928  15.114  0.00  0.00    +0.000 C 
ATOM      3  C   UNL     1       6.929   4.724  16.571  0.00  0.00    +0.000 C 
ATOM      4  C   UNL     1       5.434   4.451  16.498  0.00  0.00    +0.000 C 
ATOM      5  C   UNL     1       5.089   4.325  15.015  0.00  0.00    +0.000 C 
ATOM      6  C   UNL     1       4.999   3.256  17.360  0.00  0.00    +0.000 C 
ATOM      7  N   UNL     1       3.792   3.976  17.617  0.00  0.00    +0.000 N 
ATOM      8  C   UNL     1       2.954   3.687  18.692  0.00  0.00    +0.000 A 
ATOM      9  N   UNL     1       2.086   4.622  19.121  0.00  0.00    +0.000 NA
ATOM     10  C   UNL     1       1.355   4.315  20.215  0.00  0.00    +0.000 A 
ATOM     11  C   UNL     1       1.468   3.125  20.891  0.00  0.00    +0.000 A 
ATOM     12  F   UNL     1       0.767   2.867  21.998  0.00  0.00    +0.000 F 
ATOM     13  C   UNL     1       2.356   2.228  20.372  0.00  0.00    +0.000 A 
ATOM     14  N   UNL     1       3.092   2.477  19.275  0.00  0.00    +0.000 NA
ATOM     15  C   UNL     1       4.397   5.242  17.335  0.00  0.00    +0.000 C 
ENDROOT
BRANCH   1  16
ATOM     16  C   UNL     1       6.319   4.433  12.936  0.00  0.00    +0.000 C 
BRANCH  16  17
ATOM     17  C   UNL     1       6.612   3.242  12.018  0.00  0.00    +0.000 C 
BRANCH  17  19
ATOM     18  C   UNL     1       4.348   3.193  11.395  0.00  0.00    +0.000 C 
ATOM     19  O   UNL     1       5.436   2.437  11.907  0.00  0.00    +0.000 OA
ENDBRANCH  17  19
ENDBRANCH  16  17
ENDBRANCH   1  16
TORSDOF 3
ENDMDL
MODEL 6
REMARK VINA RESULT:      -5.7      5.084      6.259
REMARK  Name = 
REMARK  4 active torsions:
REMARK  status: ('A' for Active; 'I' for Inactive)
REMARK    1  A    between atoms: C_1  and  O_2
REMARK    2  A    between atoms: O_2  and  C_3
REMARK    3  A    between atoms: C_3  and  C_4
REMARK    4  A    between atoms: C_4  and  N_5
REMARK                            x       y       z     vdW  Elec       q    Type
REMARK                         _______ _______ _______ _____ _____    ______ ____
ROOT
ATOM      1  N   UNL     1       4.410   5.715  17.040  0.00  0.00    +0.000 NA
ATOM      2  C   UNL     1       3.586   4.587  17.491  0.00  0.00    +0.000 C 
ATOM      3  C   UNL     1       2.265   5.233  17.895  0.00  0.00    +0.000 C 
ATOM      4  C   UNL     1       2.668   6.628  18.351  0.00  0.00    +0.000 C 
ATOM      5  C   UNL     1       4.151   6.781  18.017  0.00  0.00    +0.000 C 
ATOM      6  C   UNL     1       1.765   7.731  17.778  0.00  0.00    +0.000 C 
ATOM      7  N   UNL     1       1.938   8.415  19.022  0.00  0.00    +0.000 N 
ATOM      8  C   UNL     1       1.076   9.419  19.457  0.00  0.00    +0.000 A 
ATOM      9  N   UNL     1       1.034   9.728  20.767  0.00  0.00    +0.000 NA
ATOM     10  C   UNL     1       0.124  10.654  21.142  0.00  0.00    +0.000 A 
ATOM     11  C   UNL     1      -0.737  11.267  20.266  0.00  0.00    +0.000 A 
ATOM     12  F   UNL     1      -1.658  12.145  20.671  0.00  0.00    +0.000 F 
ATOM     13  C   UNL     1      -0.608  10.909  18.955  0.00  0.00    +0.000 A 
ATOM     14  N   UNL     1       0.294  10.008  18.528  0.00  0.00    +0.000 NA
ATOM     15  C   UNL     1       2.255   7.210  19.726  0.00  0.00    +0.000 C 
ENDROOT
BRANCH   1  16
ATOM     16  C   UNL     1       5.843   5.401  16.978  0.00  0.00    +0.000 C 
BRANCH  16  17
ATOM     17  C   UNL     1       6.292   4.411  18.058  0.00  0.00    +0.000 C 
BRANCH  17  19
ATOM     18  C   UNL     1       7.780   5.910  19.085  0.00  0.00    +0.000 C 
ATOM     19  O   UNL     1       7.656   4.675  18.395  0.00  0.00    +0.000 OA
ENDBRANCH  17  19
ENDBRANCH  16  17
ENDBRANCH   1  16
TORSDOF 3
ENDMDL
MODEL 7
REMARK VINA RESULT:      -5.7      2.350      2.902
REMARK  Name = 
REMARK  4 active torsions:
REMARK  status: ('A' for Active; 'I' for Inactive)
REMARK    1  A    between atoms: C_1  and  O_2
REMARK    2  A    between atoms: O_2  and  C_3
REMARK    3  A    between atoms: C_3  and  C_4
REMARK    4  A    between atoms: C_4  and  N_5
REMARK                            x       y       z     vdW  Elec       q    Type
REMARK                         _______ _______ _______ _____ _____    ______ ____
ROOT
ATOM      1  N   UNL     1       6.353   3.937  14.168  0.00  0.00    +0.000 NA
ATOM      2  C   UNL     1       7.538   4.724  14.530  0.00  0.00    +0.000 C 
ATOM      3  C   UNL     1       7.213   5.259  15.921  0.00  0.00    +0.000 C 
ATOM      4  C   UNL     1       5.697   5.385  15.916  0.00  0.00    +0.000 C 
ATOM      5  C   UNL     1       5.214   4.749  14.614  0.00  0.00    +0.000 C 
ATOM      6  C   UNL     1       5.043   4.819  17.186  0.00  0.00    +0.000 C 
ATOM      7  N   UNL     1       4.083   5.871  17.071  0.00  0.00    +0.000 N 
ATOM      8  C   UNL     1       3.288   6.287  18.137  0.00  0.00    +0.000 A 
ATOM      9  N   UNL     1       2.722   7.509  18.099  0.00  0.00    +0.000 NA
ATOM     10  C   UNL     1       2.028   7.890  19.194  0.00  0.00    +0.000 A 
ATOM     11  C   UNL     1       1.889   7.105  20.312  0.00  0.00    +0.000 A 
ATOM     12  F   UNL     1       1.236   7.526  21.398  0.00  0.00    +0.000 F 
ATOM     13  C   UNL     1       2.475   5.874  20.253  0.00  0.00    +0.000 A 
ATOM     14  N   UNL     1       3.161   5.441  19.180  0.00  0.00    +0.000 NA
ATOM     15  C   UNL     1       4.965   6.695  16.303  0.00  0.00    +0.000 C 
ENDROOT
BRANCH   1  16
ATOM     16  C   UNL     1       6.260   3.654  12.730  0.00  0.00    +0.000 C 
BRANCH  16  17
ATOM     17  C   UNL     1       4.843   3.292  12.275  0.00  0.00    +0.000 C 
BRANCH  17  19
ATOM     18  C   UNL     1       5.905   1.408  11.359  0.00  0.00    +0.000 C 
ATOM     19  O   UNL     1       4.923   2.414  11.150  0.00  0.00    +0.000 OA
ENDBRANCH  17  19
ENDBRANCH  16  17
ENDBRANCH   1  16
TORSDOF 3
ENDMDL
MODEL 8
REMARK VINA RESULT:      -5.6      4.156      7.461
REMARK  Name = 
REMARK  4 active torsions:
REMARK  status: ('A' for Active; 'I' for Inactive)
REMARK    1  A    between atoms: C_1  and  O_2
REMARK    2  A    between atoms: O_2  and  C_3
REMARK    3  A    between atoms: C_3  and  C_4
REMARK    4  A    between atoms: C_4  and  N_5
REMARK                            x       y       z     vdW  Elec       q    Type
REMARK                         _______ _______ _______ _____ _____    ______ ____
ROOT
ATOM      1  N   UNL     1       3.623   5.935  19.311  0.00  0.00    +0.000 NA
ATOM      2  C   UNL     1       4.197   4.760  19.977  0.00  0.00    +0.000 C 
ATOM      3  C   UNL     1       5.270   4.274  19.006  0.00  0.00    +0.000 C 
ATOM      4  C   UNL     1       4.737   4.688  17.642  0.00  0.00    +0.000 C 
ATOM      5  C   UNL     1       3.499   5.544  17.901  0.00  0.00    +0.000 C 
ATOM      6  C   UNL     1       5.804   5.356  16.760  0.00  0.00    +0.000 C 
ATOM      7  N   UNL     1       5.174   4.718  15.646  0.00  0.00    +0.000 N 
ATOM      8  C   UNL     1       5.814   4.532  14.422  0.00  0.00    +0.000 A 
ATOM      9  N   UNL     1       5.353   3.592  13.575  0.00  0.00    +0.000 NA
ATOM     10  C   UNL     1       6.060   3.402  12.439  0.00  0.00    +0.000 A 
ATOM     11  C   UNL     1       7.199   4.104  12.130  0.00  0.00    +0.000 A 
ATOM     12  F   UNL     1       7.904   3.862  11.021  0.00  0.00    +0.000 F 
ATOM     13  C   UNL     1       7.578   5.052  13.035  0.00  0.00    +0.000 A 
ATOM     14  N   UNL     1       6.899   5.293  14.171  0.00  0.00    +0.000 NA
ATOM     15  C   UNL     1       4.597   3.694  16.462  0.00  0.00    +0.000 C 
ENDROOT
BRANCH   1  16
ATOM     16  C   UNL     1       2.320   6.334  19.858  0.00  0.00    +0.000 C 
BRANCH  16  17
ATOM     17  C   UNL     1       1.739   5.315  20.843  0.00  0.00    +0.000 C 
BRANCH  17  19
ATOM     18  C   UNL     1       1.014   3.089  20.647  0.00  0.00    +0.000 C 
ATOM     19  O   UNL     1       0.893   4.408  20.133  0.00  0.00    +0.000 OA
ENDBRANCH  17  19
ENDBRANCH  16  17
ENDBRANCH   1  16
TORSDOF 3
ENDMDL
MODEL 9
REMARK VINA RESULT:      -5.5      5.200      6.217
REMARK  Name = 
REMARK  4 active torsions:
REMARK  status: ('A' for Active; 'I' for Inactive)
REMARK    1  A    between atoms: C_1  and  O_2
REMARK    2  A    between atoms: O_2  and  C_3
REMARK    3  A    between atoms: C_3  and  C_4
REMARK    4  A    between atoms: C_4  and  N_5
REMARK                            x       y       z     vdW  Elec       q    Type
REMARK                         _______ _______ _______ _____ _____    ______ ____
ROOT
ATOM      1  N   UNL     1       4.461   6.387  16.981  0.00  0.00    +0.000 NA
ATOM      2  C   UNL     1       3.782   5.186  17.481  0.00  0.00    +0.000 C 
ATOM      3  C   UNL     1       2.398   5.686  17.884  0.00  0.00    +0.000 C 
ATOM      4  C   UNL     1       2.640   7.133  18.289  0.00  0.00    +0.000 C 
ATOM      5  C   UNL     1       4.091   7.447  17.927  0.00  0.00    +0.000 C 
ATOM      6  C   UNL     1       1.607   8.103  17.696  0.00  0.00    +0.000 C 
ATOM      7  N   UNL     1       1.713   8.843  18.914  0.00  0.00    +0.000 N 
ATOM      8  C   UNL     1       0.745   9.754  19.331  0.00  0.00    +0.000 A 
ATOM      9  N   UNL     1       0.682  10.100  20.631  0.00  0.00    +0.000 NA
ATOM     10  C   UNL     1      -0.326  10.926  20.990  0.00  0.00    +0.000 A 
ATOM     11  C   UNL     1      -1.264  11.403  20.108  0.00  0.00    +0.000 A 
ATOM     12  F   UNL     1      -2.277  12.180  20.500  0.00  0.00    +0.000 F 
ATOM     13  C   UNL     1      -1.109  11.019  18.807  0.00  0.00    +0.000 A 
ATOM     14  N   UNL     1      -0.112  10.216  18.395  0.00  0.00    +0.000 NA
ATOM     15  C   UNL     1       2.178   7.709  19.652  0.00  0.00    +0.000 C 
ENDROOT
BRANCH   1  16
ATOM     16  C   UNL     1       5.921   6.241  16.907  0.00  0.00    +0.000 C 
BRANCH  16  17
ATOM     17  C   UNL     1       6.378   5.282  15.803  0.00  0.00    +0.000 C 
BRANCH  17  19
ATOM     18  C   UNL     1       7.609   4.633  17.695  0.00  0.00    +0.000 C 
ATOM     19  O   UNL     1       7.474   4.503  16.287  0.00  0.00    +0.000 OA
ENDBRANCH  17  19
ENDBRANCH  16  17
ENDBRANCH   1  16
TORSDOF 3
ENDMDL
