MODEL 1
REMARK VINA RESULT:      -7.4      0.000      0.000
REMARK  Name = 
REMARK  8 active torsions:
REMARK  status: ('A' for Active; 'I' for Inactive)
REMARK    1  A    between atoms: C_1  and  O_2
REMARK    2  A    between atoms: O_2  and  C_3
REMARK    3  A    between atoms: C_7  and  C_8
REMARK    4  A    between atoms: C_9  and  C_10
REMARK    5  A    between atoms: C_10  and  C_12
REMARK    6  A    between atoms: C_16  and  N_17
REMARK    7  A    between atoms: C_19  and  O_20
REMARK    8  A    between atoms: O_20  and  C_21
REMARK                            x       y       z     vdW  Elec       q    Type
REMARK                         _______ _______ _______ _____ _____    ______ ____
ROOT
ATOM      1  C   UNL     1       4.424   4.922  17.037  0.00  0.00    +0.000 C 
ATOM      2  C   UNL     1       5.570   4.394  16.566  0.00  0.00    +0.000 C 
ENDROOT
BRANCH   1   7
ATOM      3  C   UNL     1       1.752   3.721  19.555  0.00  0.00    +0.000 A 
ATOM      4  C   UNL     1       1.460   2.475  18.983  0.00  0.00    +0.000 A 
ATOM      5  C   UNL     1       2.171   2.015  17.885  0.00  0.00    +0.000 A 
ATOM      6  C   UNL     1       3.106   2.843  17.261  0.00  0.00    +0.000 A 
ATOM      7  C   UNL     1       3.361   4.139  17.742  0.00  0.00    +0.000 A 
ATOM      8  C   UNL     1       2.705   4.560  18.935  0.00  0.00    +0.000 A 
BRANCH   3  10
ATOM      9  C   UNL     1       1.401   2.974  21.761  0.00  0.00    +0.000 C 
ATOM     10  O   UNL     1       1.214   4.012  20.789  0.00  0.00    +0.000 OA
ENDBRANCH   3  10
BRANCH   8  11
ATOM     11  O   UNL     1       3.251   5.688  19.506  0.00  0.00    +0.000 OA
ATOM     12  C   UNL     1       2.537   6.908  19.494  0.00  0.00    +0.000 C 
ENDBRANCH   8  11
ENDBRANCH   1   7
BRANCH   2  13
ATOM     13  C   UNL     1       6.617   5.152  15.844  0.00  0.00    +0.000 C 
ATOM     14  O   UNL     1       7.299   6.039  16.388  0.00  0.00    +0.000 OA
BRANCH  13  15
ATOM     15  C   UNL     1       6.799   4.822  14.400  0.00  0.00    +0.000 A 
ATOM     16  C   UNL     1       7.700   5.574  13.642  0.00  0.00    +0.000 A 
ATOM     17  C   UNL     1       7.914   5.260  12.302  0.00  0.00    +0.000 A 
ATOM     18  C   UNL     1       7.227   4.196  11.710  0.00  0.00    +0.000 A 
ATOM     19  C   UNL     1       6.290   3.458  12.438  0.00  0.00    +0.000 A 
ATOM     20  C   UNL     1       6.115   3.747  13.797  0.00  0.00    +0.000 A 
BRANCH  19  21
ATOM     21  N   UNL     1       5.714   2.313  11.872  0.00  0.00    +0.000 N 
ATOM     22  H   UNL     1       4.923   1.951  12.395  0.00  0.00    +0.000 HD
ATOM     23  H   UNL     1       6.379   1.584  11.636  0.00  0.00    +0.000 HD
ENDBRANCH  19  21
ENDBRANCH  13  15
ENDBRANCH   2  13
TORSDOF 6
ENDMDL
MODEL 2
REMARK VINA RESULT:      -6.9      1.177      2.149
REMARK  Name = 
REMARK  8 active torsions:
REMARK  status: ('A' for Active; 'I' for Inactive)
REMARK    1  A    between atoms: C_1  and  O_2
REMARK    2  A    between atoms: O_2  and  C_3
REMARK    3  A    between atoms: C_7  and  C_8
REMARK    4  A    between atoms: C_9  and  C_10
REMARK    5  A    between atoms: C_10  and  C_12
REMARK    6  A    between atoms: C_16  and  N_17
REMARK    7  A    between atoms: C_19  and  O_20
REMARK    8  A    between atoms: O_20  and  C_21
REMARK                            x       y       z     vdW  Elec       q    Type
REMARK                         _______ _______ _______ _____ _____    ______ ____
ROOT
ATOM      1  C   UNL     1       5.513   4.977  18.149  0.00  0.00    +0.000 C 
ATOM      2  C   UNL     1       5.684   4.570  16.877  0.00  0.00    +0.000 C 
ENDROOT
BRANCH   1   7
ATOM      3  C   UNL     1       2.199   4.106  19.932  0.00  0.00    +0.000 A 
ATOM      4  C   UNL     1       1.651   5.394  20.011  0.00  0.00    +0.000 A 
ATOM      5  C   UNL     1       2.293   6.475  19.426  0.00  0.00    +0.000 A 
ATOM      6  C   UNL     1       3.556   6.312  18.854  0.00  0.00    +0.000 A 
ATOM      7  C   UNL     1       4.188   5.056  18.839  0.00  0.00    +0.000 A 
ATOM      8  C   UNL     1       3.472   3.932  19.345  0.00  0.00    +0.000 A 
BRANCH   3  10
ATOM      9  C   UNL     1       1.492   2.689  21.675  0.00  0.00    +0.000 C 
ATOM     10  O   UNL     1       1.404   3.040  20.287  0.00  0.00    +0.000 OA
ENDBRANCH   3  10
BRANCH   8  11
ATOM     11  O   UNL     1       4.019   2.717  18.995  0.00  0.00    +0.000 OA
ATOM     12  C   UNL     1       3.401   1.917  18.006  0.00  0.00    +0.000 C 
ENDBRANCH   8  11
ENDBRANCH   1   7
BRANCH   2  13
ATOM     13  C   UNL     1       6.987   4.512  16.174  0.00  0.00    +0.000 C 
ATOM     14  O   UNL     1       8.076   4.541  16.775  0.00  0.00    +0.000 OA
BRANCH  13  15
ATOM     15  C   UNL     1       6.935   4.450  14.685  0.00  0.00    +0.000 A 
ATOM     16  C   UNL     1       7.694   5.358  13.943  0.00  0.00    +0.000 A 
ATOM     17  C   UNL     1       7.691   5.294  12.551  0.00  0.00    +0.000 A 
ATOM     18  C   UNL     1       6.927   4.326  11.892  0.00  0.00    +0.000 A 
ATOM     19  C   UNL     1       6.127   3.437  12.614  0.00  0.00    +0.000 A 
ATOM     20  C   UNL     1       6.172   3.473  14.012  0.00  0.00    +0.000 A 
BRANCH  19  21
ATOM     21  N   UNL     1       5.477   2.389  11.948  0.00  0.00    +0.000 N 
ATOM     22  H   UNL     1       5.808   1.466  12.213  0.00  0.00    +0.000 HD
ATOM     23  H   UNL     1       5.429   2.499  10.941  0.00  0.00    +0.000 HD
ENDBRANCH  19  21
ENDBRANCH  13  15
ENDBRANCH   2  13
TORSDOF 6
ENDMDL
MODEL 3
REMARK VINA RESULT:      -6.9      1.522      1.860
REMARK  Name = 
REMARK  8 active torsions:
REMARK  status: ('A' for Active; 'I' for Inactive)
REMARK    1  A    between atoms: C_1  and  O_2
REMARK    2  A    between atoms: O_2  and  C_3
REMARK    3  A    between atoms: C_7  and  C_8
REMARK    4  A    between atoms: C_9  and  C_10
REMARK    5  A    between atoms: C_10  and  C_12
REMARK    6  A    between atoms: C_16  and  N_17
REMARK    7  A    between atoms: C_19  and  O_20
REMARK    8  A    between atoms: O_20  and  C_21
REMARK                            x       y       z     vdW  Elec       q    Type
REMARK                         _______ _______ _______ _____ _____    ______ ____
ROOT
ATOM      1  C   UNL     1       4.906   3.481  17.077  0.00  0.00    +0.000 C 
ATOM      2  C   UNL     1       5.615   4.562  16.699  0.00  0.00    +0.000 C 
ENDROOT
BRANCH   1   7
ATOM      3  C   UNL     1       1.933   2.863  19.465  0.00  0.00    +0.000 A 
ATOM      4  C   UNL     1       0.991   3.709  18.863  0.00  0.00    +0.000 A 
ATOM      5  C   UNL     1       1.288   4.372  17.681  0.00  0.00    +0.000 A 
ATOM      6  C   UNL     1       2.574   4.299  17.143  0.00  0.00    +0.000 A 
ATOM      7  C   UNL     1       3.580   3.540  17.767  0.00  0.00    +0.000 A 
ATOM      8  C   UNL     1       3.233   2.776  18.920  0.00  0.00    +0.000 A 
BRANCH   3  10
ATOM      9  C   UNL     1       1.453   2.656  21.762  0.00  0.00    +0.000 C 
ATOM     10  O   UNL     1       1.505   2.028  20.473  0.00  0.00    +0.000 OA
ENDBRANCH   3  10
BRANCH   8  11
ATOM     11  O   UNL     1       4.169   1.826  19.263  0.00  0.00    +0.000 OA
ATOM     12  C   UNL     1       4.859   1.918  20.494  0.00  0.00    +0.000 C 
ENDBRANCH   8  11
ENDBRANCH   1   7
BRANCH   2  13
ATOM     13  C   UNL     1       6.940   4.517  16.040  0.00  0.00    +0.000 C 
ATOM     14  O   UNL     1       8.008   4.566  16.676  0.00  0.00    +0.000 OA
BRANCH  13  15
ATOM     15  C   UNL     1       6.937   4.443  14.550  0.00  0.00    +0.000 A 
ATOM     16  C   UNL     1       7.727   5.341  13.827  0.00  0.00    +0.000 A 
ATOM     17  C   UNL     1       7.770   5.265  12.436  0.00  0.00    +0.000 A 
ATOM     18  C   UNL     1       7.023   4.297  11.760  0.00  0.00    +0.000 A 
ATOM     19  C   UNL     1       6.193   3.418  12.461  0.00  0.00    +0.000 A 
ATOM     20  C   UNL     1       6.192   3.466  13.861  0.00  0.00    +0.000 A 
BRANCH  19  21
ATOM     21  N   UNL     1       5.559   2.368  11.782  0.00  0.00    +0.000 N 
ATOM     22  H   UNL     1       4.755   1.990  12.273  0.00  0.00    +0.000 HD
ATOM     23  H   UNL     1       6.187   1.639  11.463  0.00  0.00    +0.000 HD
ENDBRANCH  19  21
ENDBRANCH  13  15
ENDBRANCH   2  13
TORSDOF 6
ENDMDL
MODEL 4
REMARK VINA RESULT:      -6.8      4.310      8.212
REMARK  Name = 
REMARK  8 active torsions:
REMARK  status: ('A' for Active; 'I' for Inactive)
REMARK    1  A    between atoms: C_1  and  O_2
REMARK    2  A    between atoms: O_2  and  C_3
REMARK    3  A    between atoms: C_7  and  C_8
REMARK    4  A    between atoms: C_9  and  C_10
REMARK    5  A    between atoms: C_10  and  C_12
REMARK    6  A    between atoms: C_16  and  N_17
REMARK    7  A    between atoms: C_19  and  O_20
REMARK    8  A    between atoms: O_20  and  C_21
REMARK                            x       y       z     vdW  Elec       q    Type
REMARK                         _______ _______ _______ _____ _____    ______ ____
ROOT
ATOM      1  C   UNL     1       3.478   7.561  17.869  0.00  0.00    +0.000 C 
ATOM      2  C   UNL     1       2.200   7.978  17.956  0.00  0.00    +0.000 C 
ENDROOT
BRANCH   1   7
ATOM      3  C   UNL     1       5.402   4.441  16.652  0.00  0.00    +0.000 A 
ATOM      4  C   UNL     1       4.436   3.465  16.939  0.00  0.00    +0.000 A 
ATOM      5  C   UNL     1       3.185   3.825  17.418  0.00  0.00    +0.000 A 
ATOM      6  C   UNL     1       2.916   5.158  17.735  0.00  0.00    +0.000 A 
ATOM      7  C   UNL     1       3.888   6.157  17.555  0.00  0.00    +0.000 A 
ATOM      8  C   UNL     1       5.132   5.792  16.960  0.00  0.00    +0.000 A 
BRANCH   3  10
ATOM      9  C   UNL     1       6.275   3.928  14.525  0.00  0.00    +0.000 C 
ATOM     10  O   UNL     1       6.513   4.062  15.933  0.00  0.00    +0.000 OA
ENDBRANCH   3  10
BRANCH   8  11
ATOM     11  O   UNL     1       5.879   6.864  16.525  0.00  0.00    +0.000 OA
ATOM     12  C   UNL     1       7.014   7.284  17.257  0.00  0.00    +0.000 C 
ENDBRANCH   8  11
ENDBRANCH   1   7
BRANCH   2  13
ATOM     13  C   UNL     1       1.781   9.358  18.292  0.00  0.00    +0.000 C 
ATOM     14  O   UNL     1       2.058  10.337  17.576  0.00  0.00    +0.000 OA
BRANCH  13  15
ATOM     15  C   UNL     1       1.027   9.530  19.567  0.00  0.00    +0.000 A 
ATOM     16  C   UNL     1       1.209   8.598  20.592  0.00  0.00    +0.000 A 
ATOM     17  C   UNL     1       0.545   8.760  21.807  0.00  0.00    +0.000 A 
ATOM     18  C   UNL     1      -0.307   9.851  22.002  0.00  0.00    +0.000 A 
ATOM     19  C   UNL     1      -0.537  10.770  20.976  0.00  0.00    +0.000 A 
ATOM     20  C   UNL     1       0.170  10.630  19.776  0.00  0.00    +0.000 A 
BRANCH  19  21
ATOM     21  N   UNL     1      -1.284  11.928  21.233  0.00  0.00    +0.000 N 
ATOM     22  H   UNL     1      -2.275  11.755  21.370  0.00  0.00    +0.000 HD
ATOM     23  H   UNL     1      -1.117  12.686  20.580  0.00  0.00    +0.000 HD
ENDBRANCH  19  21
ENDBRANCH  13  15
ENDBRANCH   2  13
TORSDOF 6
ENDMDL
MODEL 5
REMARK VINA RESULT:      -6.7      1.515      2.710
REMARK  Name = 
REMARK  8 active torsions:
REMARK  status: ('A' for Active; 'I' for Inactive)
REMARK    1  A    between atoms: C_1  and  O_2
REMARK    2  A    between atoms: O_2  and  C_3
REMARK    3  A    between atoms: C_7  and  C_8
REMARK    4  A    between atoms: C_9  and  C_10
REMARK    5  A    between atoms: C_10  and  C_12
REMARK    6  A    between atoms: C_16  and  N_17
REMARK    7  A    between atoms: C_19  and  O_20
REMARK    8  A    between atoms: O_20  and  C_21
REMARK                            x       y       z     vdW  Elec       q    Type
REMARK                         _______ _______ _______ _____ _____    ______ ____
ROOT
ATOM      1  C   UNL     1       5.170   4.542  16.650  0.00  0.00    +0.000 C 
ATOM      2  C   UNL     1       5.337   5.172  15.471  0.00  0.00    +0.000 C 
ENDROOT
BRANCH   1   7
ATOM      3  C   UNL     1       2.184   4.430  19.097  0.00  0.00    +0.000 A 
ATOM      4  C   UNL     1       2.152   5.783  19.463  0.00  0.00    +0.000 A 
ATOM      5  C   UNL     1       3.005   6.699  18.864  0.00  0.00    +0.000 A 
ATOM      6  C   UNL     1       3.990   6.261  17.977  0.00  0.00    +0.000 A 
ATOM      7  C   UNL     1       4.122   4.899  17.656  0.00  0.00    +0.000 A 
ATOM      8  C   UNL     1       3.171   3.982  18.192  0.00  0.00    +0.000 A 
BRANCH   3  10
ATOM      9  C   UNL     1       1.278   3.171  20.870  0.00  0.00    +0.000 C 
ATOM     10  O   UNL     1       1.151   3.621  19.514  0.00  0.00    +0.000 OA
ENDBRANCH   3  10
BRANCH   8  11
ATOM     11  O   UNL     1       3.174   2.750  17.576  0.00  0.00    +0.000 OA
ATOM     12  C   UNL     1       3.535   1.592  18.302  0.00  0.00    +0.000 C 
ENDBRANCH   8  11
ENDBRANCH   1   7
BRANCH   2  13
ATOM     13  C   UNL     1       6.386   4.847  14.478  0.00  0.00    +0.000 C 
ATOM     14  O   UNL     1       7.543   5.301  14.551  0.00  0.00    +0.000 OA
BRANCH  13  15
ATOM     15  C   UNL     1       5.979   3.962  13.348  0.00  0.00    +0.000 A 
ATOM     16  C   UNL     1       4.675   4.050  12.856  0.00  0.00    +0.000 A 
ATOM     17  C   UNL     1       4.284   3.261  11.775  0.00  0.00    +0.000 A 
ATOM     18  C   UNL     1       5.192   2.378  11.184  0.00  0.00    +0.000 A 
ATOM     19  C   UNL     1       6.488   2.244  11.688  0.00  0.00    +0.000 A 
ATOM     20  C   UNL     1       6.890   3.074  12.741  0.00  0.00    +0.000 A 
BRANCH  19  21
ATOM     21  N   UNL     1       7.424   1.458  11.001  0.00  0.00    +0.000 N 
ATOM     22  H   UNL     1       8.084   1.997  10.448  0.00  0.00    +0.000 HD
ATOM     23  H   UNL     1       7.019   0.695  10.471  0.00  0.00    +0.000 HD
ENDBRANCH  19  21
ENDBRANCH  13  15
ENDBRANCH   2  13
TORSDOF 6
ENDMDL
MODEL 6
REMARK VINA RESULT:      -6.6      4.183      6.050
REMARK  Name = 
REMARK  8 active torsions:
REMARK  status: ('A' for Active; 'I' for Inactive)
REMARK    1  A    between atoms: C_1  and  O_2
REMARK    2  A    between atoms: O_2  and  C_3
REMARK    3  A    between atoms: C_7  and  C_8
REMARK    4  A    between atoms: C_9  and  C_10
REMARK    5  A    between atoms: C_10  and  C_12
REMARK    6  A    between atoms: C_16  and  N_17
REMARK    7  A    between atoms: C_19  and  O_20
REMARK    8  A    between atoms: O_20  and  C_21
REMARK                            x       y       z     vdW  Elec       q    Type
REMARK                         _______ _______ _______ _____ _____    ______ ____
ROOT
ATOM      1  C   UNL     1       2.878   7.470  18.754  0.00  0.00    +0.000 C 
ATOM      2  C   UNL     1       2.828   6.151  18.484  0.00  0.00    +0.000 C 
ENDROOT
BRANCH   1   7
ATOM      3  C   UNL     1       0.181  10.071  19.692  0.00  0.00    +0.000 A 
ATOM      4  C   UNL     1      -0.151   9.590  20.967  0.00  0.00    +0.000 A 
ATOM      5  C   UNL     1       0.542   8.525  21.525  0.00  0.00    +0.000 A 
ATOM      6  C   UNL     1       1.499   7.843  20.771  0.00  0.00    +0.000 A 
ATOM      7  C   UNL     1       1.795   8.230  19.453  0.00  0.00    +0.000 A 
ATOM      8  C   UNL     1       1.156   9.392  18.929  0.00  0.00    +0.000 A 
BRANCH   3  10
ATOM      9  C   UNL     1      -1.516  11.166  18.480  0.00  0.00    +0.000 C 
ATOM     10  O   UNL     1      -0.344  11.281  19.299  0.00  0.00    +0.000 OA
ENDBRANCH   3  10
BRANCH   8  11
ATOM     11  O   UNL     1       1.738   9.879  17.780  0.00  0.00    +0.000 OA
ATOM     12  C   UNL     1       2.500  11.070  17.819  0.00  0.00    +0.000 C 
ENDBRANCH   8  11
ENDBRANCH   1   7
BRANCH   2  13
ATOM     13  C   UNL     1       3.880   5.393  17.770  0.00  0.00    +0.000 C 
ATOM     14  O   UNL     1       3.630   4.396  17.068  0.00  0.00    +0.000 OA
BRANCH  13  15
ATOM     15  C   UNL     1       5.283   5.863  17.961  0.00  0.00    +0.000 A 
ATOM     16  C   UNL     1       5.781   6.865  17.124  0.00  0.00    +0.000 A 
ATOM     17  C   UNL     1       7.075   7.347  17.310  0.00  0.00    +0.000 A 
ATOM     18  C   UNL     1       7.880   6.829  18.328  0.00  0.00    +0.000 A 
ATOM     19  C   UNL     1       7.417   5.797  19.149  0.00  0.00    +0.000 A 
ATOM     20  C   UNL     1       6.099   5.351  18.990  0.00  0.00    +0.000 A 
BRANCH  19  21
ATOM     21  N   UNL     1       8.182   5.386  20.249  0.00  0.00    +0.000 N 
ATOM     22  H   UNL     1       8.550   6.154  20.802  0.00  0.00    +0.000 HD
ATOM     23  H   UNL     1       8.897   4.701  20.027  0.00  0.00    +0.000 HD
ENDBRANCH  19  21
ENDBRANCH  13  15
ENDBRANCH   2  13
TORSDOF 6
ENDMDL
MODEL 7
REMARK VINA RESULT:      -6.6      5.224      8.294
REMARK  Name = 
REMARK  8 active torsions:
REMARK  status: ('A' for Active; 'I' for Inactive)
REMARK    1  A    between atoms: C_1  and  O_2
REMARK    2  A    between atoms: O_2  and  C_3
REMARK    3  A    between atoms: C_7  and  C_8
REMARK    4  A    between atoms: C_9  and  C_10
REMARK    5  A    between atoms: C_10  and  C_12
REMARK    6  A    between atoms: C_16  and  N_17
REMARK    7  A    between atoms: C_19  and  O_20
REMARK    8  A    between atoms: O_20  and  C_21
REMARK                            x       y       z     vdW  Elec       q    Type
REMARK                         _______ _______ _______ _____ _____    ______ ____
ROOT
ATOM      1  C   UNL     1       1.180   8.832  20.161  0.00  0.00    +0.000 C 
ATOM      2  C   UNL     1       1.567   7.575  20.450  0.00  0.00    +0.000 C 
ENDROOT
BRANCH   1   7
ATOM      3  C   UNL     1      -0.748  11.787  21.733  0.00  0.00    +0.000 A 
ATOM      4  C   UNL     1      -1.056  11.209  22.973  0.00  0.00    +0.000 A 
ATOM      5  C   UNL     1      -0.573   9.953  23.310  0.00  0.00    +0.000 A 
ATOM      6  C   UNL     1       0.125   9.197  22.366  0.00  0.00    +0.000 A 
ATOM      7  C   UNL     1       0.372   9.697  21.076  0.00  0.00    +0.000 A 
ATOM      8  C   UNL     1      -0.032  11.032  20.778  0.00  0.00    +0.000 A 
BRANCH   3  10
ATOM      9  C   UNL     1      -0.065  13.996  22.182  0.00  0.00    +0.000 C 
ATOM     10  O   UNL     1      -1.018  13.125  21.556  0.00  0.00    +0.000 OA
ENDBRANCH   3  10
BRANCH   8  11
ATOM     11  O   UNL     1       0.532  11.544  19.631  0.00  0.00    +0.000 OA
ATOM     12  C   UNL     1      -0.278  11.836  18.509  0.00  0.00    +0.000 C 
ENDBRANCH   8  11
ENDBRANCH   1   7
BRANCH   2  13
ATOM     13  C   UNL     1       2.344   6.698  19.543  0.00  0.00    +0.000 C 
ATOM     14  O   UNL     1       3.195   7.139  18.749  0.00  0.00    +0.000 OA
BRANCH  13  15
ATOM     15  C   UNL     1       2.031   5.241  19.600  0.00  0.00    +0.000 A 
ATOM     16  C   UNL     1       1.889   4.532  18.405  0.00  0.00    +0.000 A 
ATOM     17  C   UNL     1       1.636   3.162  18.434  0.00  0.00    +0.000 A 
ATOM     18  C   UNL     1       1.518   2.494  19.657  0.00  0.00    +0.000 A 
ATOM     19  C   UNL     1       1.614   3.192  20.863  0.00  0.00    +0.000 A 
ATOM     20  C   UNL     1       1.918   4.558  20.828  0.00  0.00    +0.000 A 
BRANCH  19  21
ATOM     21  N   UNL     1       1.632   2.487  22.075  0.00  0.00    +0.000 N 
ATOM     22  H   UNL     1       2.493   1.974  22.238  0.00  0.00    +0.000 HD
ATOM     23  H   UNL     1       0.812   1.913  22.236  0.00  0.00    +0.000 HD
ENDBRANCH  19  21
ENDBRANCH  13  15
ENDBRANCH   2  13
TORSDOF 6
ENDMDL
MODEL 8
REMARK VINA RESULT:      -6.6      4.990      7.717
REMARK  Name = 
REMARK  8 active torsions:
REMARK  status: ('A' for Active; 'I' for Inactive)
REMARK    1  A    between atoms: C_1  and  O_2
REMARK    2  A    between atoms: O_2  and  C_3
REMARK    3  A    between atoms: C_7  and  C_8
REMARK    4  A    between atoms: C_9  and  C_10
REMARK    5  A    between atoms: C_10  and  C_12
REMARK    6  A    between atoms: C_16  and  N_17
REMARK    7  A    between atoms: C_19  and  O_20
REMARK    8  A    between atoms: O_20  and  C_21
REMARK                            x       y       z     vdW  Elec       q    Type
REMARK                         _______ _______ _______ _____ _____    ______ ____
ROOT
ATOM      1  C   UNL     1       1.684   8.391  19.687  0.00  0.00    +0.000 C 
ATOM      2  C   UNL     1       2.256   7.954  18.549  0.00  0.00    +0.000 C 
ENDROOT
BRANCH   1   7
ATOM      3  C   UNL     1       0.018  11.615  21.011  0.00  0.00    +0.000 A 
ATOM      4  C   UNL     1      -0.709  11.969  19.866  0.00  0.00    +0.000 A 
ATOM      5  C   UNL     1      -0.726  11.142  18.753  0.00  0.00    +0.000 A 
ATOM      6  C   UNL     1       0.082  10.004  18.716  0.00  0.00    +0.000 A 
ATOM      7  C   UNL     1       0.903   9.662  19.805  0.00  0.00    +0.000 A 
ATOM      8  C   UNL     1       0.829  10.459  20.985  0.00  0.00    +0.000 A 
BRANCH   3  10
ATOM      9  C   UNL     1      -1.526  12.137  22.711  0.00  0.00    +0.000 C 
ATOM     10  O   UNL     1      -0.211  12.323  22.170  0.00  0.00    +0.000 OA
ENDBRANCH   3  10
BRANCH   8  11
ATOM     11  O   UNL     1       1.403   9.874  22.091  0.00  0.00    +0.000 OA
ATOM     12  C   UNL     1       0.591   9.270  23.079  0.00  0.00    +0.000 C 
ENDBRANCH   8  11
ENDBRANCH   1   7
BRANCH   2  13
ATOM     13  C   UNL     1       3.054   6.712  18.425  0.00  0.00    +0.000 C 
ATOM     14  O   UNL     1       4.190   6.692  17.920  0.00  0.00    +0.000 OA
BRANCH  13  15
ATOM     15  C   UNL     1       2.408   5.458  18.911  0.00  0.00    +0.000 A 
ATOM     16  C   UNL     1       1.708   4.662  18.002  0.00  0.00    +0.000 A 
ATOM     17  C   UNL     1       1.130   3.466  18.425  0.00  0.00    +0.000 A 
ATOM     18  C   UNL     1       1.245   3.062  19.758  0.00  0.00    +0.000 A 
ATOM     19  C   UNL     1       1.904   3.865  20.692  0.00  0.00    +0.000 A 
ATOM     20  C   UNL     1       2.525   5.040  20.252  0.00  0.00    +0.000 A 
BRANCH  19  21
ATOM     21  N   UNL     1       2.128   3.382  21.989  0.00  0.00    +0.000 N 
ATOM     22  H   UNL     1       1.385   2.784  22.338  0.00  0.00    +0.000 HD
ATOM     23  H   UNL     1       2.388   4.095  22.661  0.00  0.00    +0.000 HD
ENDBRANCH  19  21
ENDBRANCH  13  15
ENDBRANCH   2  13
TORSDOF 6
ENDMDL
MODEL 9
REMARK VINA RESULT:      -6.6      5.011      8.193
REMARK  Name = 
REMARK  8 active torsions:
REMARK  status: ('A' for Active; 'I' for Inactive)
REMARK    1  A    between atoms: C_1  and  O_2
REMARK    2  A    between atoms: O_2  and  C_3
REMARK    3  A    between atoms: C_7  and  C_8
REMARK    4  A    between atoms: C_9  and  C_10
REMARK    5  A    between atoms: C_10  and  C_12
REMARK    6  A    between atoms: C_16  and  N_17
REMARK    7  A    between atoms: C_19  and  O_20
REMARK    8  A    between atoms: O_20  and  C_21
REMARK                            x       y       z     vdW  Elec       q    Type
REMARK                         _______ _______ _______ _____ _____    ______ ____
ROOT
ATOM      1  C   UNL     1       1.333   8.867  20.206  0.00  0.00    +0.000 C 
ATOM      2  C   UNL     1       1.626   7.579  20.469  0.00  0.00    +0.000 C 
ENDROOT
BRANCH   1   7
ATOM      3  C   UNL     1      -0.362  11.907  21.880  0.00  0.00    +0.000 A 
ATOM      4  C   UNL     1      -0.985  11.247  22.949  0.00  0.00    +0.000 A 
ATOM      5  C   UNL     1      -0.780   9.892  23.161  0.00  0.00    +0.000 A 
ATOM      6  C   UNL     1      -0.046   9.144  22.238  0.00  0.00    +0.000 A 
ATOM      7  C   UNL     1       0.515   9.746  21.099  0.00  0.00    +0.000 A 
ATOM      8  C   UNL     1       0.391  11.159  20.950  0.00  0.00    +0.000 A 
BRANCH   3  10
ATOM      9  C   UNL     1      -1.577  13.845  21.318  0.00  0.00    +0.000 C 
ATOM     10  O   UNL     1      -0.379  13.284  21.870  0.00  0.00    +0.000 OA
ENDBRANCH   3  10
BRANCH   8  11
ATOM     11  O   UNL     1       1.234  11.697  20.003  0.00  0.00    +0.000 OA
ATOM     12  C   UNL     1       0.711  12.213  18.795  0.00  0.00    +0.000 C 
ENDBRANCH   8  11
ENDBRANCH   1   7
BRANCH   2  13
ATOM     13  C   UNL     1       2.411   6.691  19.582  0.00  0.00    +0.000 C 
ATOM     14  O   UNL     1       2.972   7.100  18.549  0.00  0.00    +0.000 OA
BRANCH  13  15
ATOM     15  C   UNL     1       2.473   5.252  19.969  0.00  0.00    +0.000 A 
ATOM     16  C   UNL     1       1.364   4.669  20.586  0.00  0.00    +0.000 A 
ATOM     17  C   UNL     1       1.384   3.317  20.921  0.00  0.00    +0.000 A 
ATOM     18  C   UNL     1       2.514   2.541  20.647  0.00  0.00    +0.000 A 
ATOM     19  C   UNL     1       3.650   3.114  20.070  0.00  0.00    +0.000 A 
ATOM     20  C   UNL     1       3.606   4.461  19.690  0.00  0.00    +0.000 A 
BRANCH  19  21
ATOM     21  N   UNL     1       4.719   2.296  19.677  0.00  0.00    +0.000 N 
ATOM     22  H   UNL     1       4.539   1.768  18.828  0.00  0.00    +0.000 HD
ATOM     23  H   UNL     1       5.091   1.711  20.417  0.00  0.00    +0.000 HD
ENDBRANCH  19  21
ENDBRANCH  13  15
ENDBRANCH   2  13
TORSDOF 6
ENDMDL
