MODEL 1
REMARK VINA RESULT:      -7.0      0.000      0.000
REMARK  Name = 
REMARK  5 active torsions:
REMARK  status: ('A' for Active; 'I' for Inactive)
REMARK    1  A    between atoms: C_1  and  O_2
REMARK    2  A    between atoms: O_2  and  C_3
REMARK    3  A    between atoms: C_3  and  C_4
REMARK    4  A    between atoms: C_6  and  O_7
REMARK    5  A    between atoms: C_14  and  C_16
REMARK                            x       y       z     vdW  Elec       q    Type
REMARK                         _______ _______ _______ _____ _____    ______ ____
ROOT
ATOM      1  C   UNL     1       0.054  11.071  20.325  0.00  0.00    +0.000 A 
ATOM      2  C   UNL     1      -0.125  11.003  21.688  0.00  0.00    +0.000 A 
ATOM      3  C   UNL     1       0.374   9.877  22.283  0.00  0.00    +0.000 A 
ATOM      4  N   UNL     1       0.993   8.895  21.626  0.00  0.00    +0.000 NA
ATOM      5  C   UNL     1       1.162   9.043  20.306  0.00  0.00    +0.000 A 
ATOM      6  N   UNL     1       1.914   8.103  19.639  0.00  0.00    +0.000 N 
ATOM      7  C   UNL     1       2.119   8.229  18.193  0.00  0.00    +0.000 C 
ATOM      8  C   UNL     1       3.383   7.440  17.774  0.00  0.00    +0.000 C 
ATOM      9  N   UNL     1       3.392   6.080  18.328  0.00  0.00    +0.000 N 
ATOM     10  C   UNL     1       3.915   5.031  17.566  0.00  0.00    +0.000 C 
ATOM     11  O   UNL     1       4.447   5.249  16.477  0.00  0.00    +0.000 OA
ATOM     12  C   UNL     1       3.169   6.031  19.781  0.00  0.00    +0.000 C 
ATOM     13  C   UNL     1       1.857   6.731  20.149  0.00  0.00    +0.000 C 
ATOM     14  N   UNL     1       0.695  10.105  19.632  0.00  0.00    +0.000 NA
ENDROOT
BRANCH  10  15
ATOM     15  C   UNL     1       3.820   3.681  18.095  0.00  0.00    +0.000 A 
ATOM     16  C   UNL     1       2.994   2.630  17.742  0.00  0.00    +0.000 A 
ATOM     17  C   UNL     1       3.342   1.534  18.567  0.00  0.00    +0.000 A 
ATOM     18  C   UNL     1       4.322   1.992  19.414  0.00  0.00    +0.000 A 
ATOM     19  O   UNL     1       4.590   3.297  19.165  0.00  0.00    +0.000 OA
ENDBRANCH  10  15
BRANCH   3  20
ATOM     20  O   UNL     1       0.268   9.680  23.630  0.00  0.00    +0.000 OA
ATOM     21  H   UNL     1      -0.221  10.425  24.007  0.00  0.00    +0.000 HD
ENDBRANCH   3  20
BRANCH   1  22
ATOM     22  C   UNL     1      -0.497  12.230  19.537  0.00  0.00    +0.000 C 
BRANCH  22  24
ATOM     23  C   UNL     1      -2.564  11.674  18.568  0.00  0.00    +0.000 C 
ATOM     24  O   UNL     1      -1.159  11.758  18.362  0.00  0.00    +0.000 OA
ENDBRANCH  22  24
ENDBRANCH   1  22
TORSDOF 4
ENDMDL
MODEL 2
REMARK VINA RESULT:      -6.9      1.633      3.288
REMARK  Name = 
REMARK  5 active torsions:
REMARK  status: ('A' for Active; 'I' for Inactive)
REMARK    1  A    between atoms: C_1  and  O_2
REMARK    2  A    between atoms: O_2  and  C_3
REMARK    3  A    between atoms: C_3  and  C_4
REMARK    4  A    between atoms: C_6  and  O_7
REMARK    5  A    between atoms: C_14  and  C_16
REMARK                            x       y       z     vdW  Elec       q    Type
REMARK                         _______ _______ _______ _____ _____    ______ ____
ROOT
ATOM      1  C   UNL     1       0.105   9.725  21.353  0.00  0.00    +0.000 A 
ATOM      2  C   UNL     1      -0.135  10.711  20.423  0.00  0.00    +0.000 A 
ATOM      3  C   UNL     1       0.438  10.505  19.200  0.00  0.00    +0.000 A 
ATOM      4  N   UNL     1       1.184   9.443  18.891  0.00  0.00    +0.000 NA
ATOM      5  C   UNL     1       1.350   8.507  19.834  0.00  0.00    +0.000 A 
ATOM      6  N   UNL     1       2.004   7.346  19.488  0.00  0.00    +0.000 N 
ATOM      7  C   UNL     1       2.206   6.299  20.494  0.00  0.00    +0.000 C 
ATOM      8  C   UNL     1       2.436   4.939  19.792  0.00  0.00    +0.000 C 
ATOM      9  N   UNL     1       3.438   5.033  18.722  0.00  0.00    +0.000 N 
ATOM     10  C   UNL     1       4.313   3.964  18.504  0.00  0.00    +0.000 C 
ATOM     11  O   UNL     1       4.193   2.915  19.138  0.00  0.00    +0.000 OA
ATOM     12  C   UNL     1       3.175   6.113  17.758  0.00  0.00    +0.000 C 
ATOM     13  C   UNL     1       3.057   7.460  18.477  0.00  0.00    +0.000 C 
ATOM     14  N   UNL     1       0.838   8.626  21.069  0.00  0.00    +0.000 NA
ENDROOT
BRANCH  10  15
ATOM     15  C   UNL     1       5.358   4.122  17.508  0.00  0.00    +0.000 A 
ATOM     16  C   UNL     1       6.616   4.689  17.604  0.00  0.00    +0.000 A 
ATOM     17  C   UNL     1       7.229   4.555  16.335  0.00  0.00    +0.000 A 
ATOM     18  C   UNL     1       6.293   3.963  15.522  0.00  0.00    +0.000 A 
ATOM     19  O   UNL     1       5.147   3.734  16.209  0.00  0.00    +0.000 OA
ENDBRANCH  10  15
BRANCH   3  20
ATOM     20  O   UNL     1       0.280  11.402  18.182  0.00  0.00    +0.000 OA
ATOM     21  H   UNL     1       1.113  11.882  18.069  0.00  0.00    +0.000 HD
ENDBRANCH   3  20
BRANCH   1  22
ATOM     22  C   UNL     1      -0.420   9.853  22.760  0.00  0.00    +0.000 C 
BRANCH  22  24
ATOM     23  C   UNL     1      -1.899  11.619  23.225  0.00  0.00    +0.000 C 
ATOM     24  O   UNL     1      -0.535  11.231  23.120  0.00  0.00    +0.000 OA
ENDBRANCH  22  24
ENDBRANCH   1  22
TORSDOF 4
ENDMDL
MODEL 3
REMARK VINA RESULT:      -6.8      0.767      1.101
REMARK  Name = 
REMARK  5 active torsions:
REMARK  status: ('A' for Active; 'I' for Inactive)
REMARK    1  A    between atoms: C_1  and  O_2
REMARK    2  A    between atoms: O_2  and  C_3
REMARK    3  A    between atoms: C_3  and  C_4
REMARK    4  A    between atoms: C_6  and  O_7
REMARK    5  A    between atoms: C_14  and  C_16
REMARK                            x       y       z     vdW  Elec       q    Type
REMARK                         _______ _______ _______ _____ _____    ______ ____
ROOT
ATOM      1  C   UNL     1       0.130  11.128  20.229  0.00  0.00    +0.000 A 
ATOM      2  C   UNL     1      -0.072  11.066  21.589  0.00  0.00    +0.000 A 
ATOM      3  C   UNL     1       0.401   9.935  22.194  0.00  0.00    +0.000 A 
ATOM      4  N   UNL     1       1.016   8.942  21.549  0.00  0.00    +0.000 NA
ATOM      5  C   UNL     1       1.209   9.084  20.231  0.00  0.00    +0.000 A 
ATOM      6  N   UNL     1       1.958   8.131  19.579  0.00  0.00    +0.000 N 
ATOM      7  C   UNL     1       2.187   8.251  18.136  0.00  0.00    +0.000 C 
ATOM      8  C   UNL     1       3.446   7.442  17.739  0.00  0.00    +0.000 C 
ATOM      9  N   UNL     1       3.426   6.084  18.297  0.00  0.00    +0.000 N 
ATOM     10  C   UNL     1       3.946   5.025  17.545  0.00  0.00    +0.000 C 
ATOM     11  O   UNL     1       4.498   5.233  16.464  0.00  0.00    +0.000 OA
ATOM     12  C   UNL     1       3.179   6.042  19.746  0.00  0.00    +0.000 C 
ATOM     13  C   UNL     1       1.872   6.762  20.091  0.00  0.00    +0.000 C 
ATOM     14  N   UNL     1       0.768  10.151  19.548  0.00  0.00    +0.000 NA
ENDROOT
BRANCH  10  15
ATOM     15  C   UNL     1       3.823   3.678  18.076  0.00  0.00    +0.000 A 
ATOM     16  C   UNL     1       2.980   2.643  17.720  0.00  0.00    +0.000 A 
ATOM     17  C   UNL     1       3.303   1.541  18.548  0.00  0.00    +0.000 A 
ATOM     18  C   UNL     1       4.287   1.982  19.400  0.00  0.00    +0.000 A 
ATOM     19  O   UNL     1       4.580   3.282  19.150  0.00  0.00    +0.000 OA
ENDBRANCH  10  15
BRANCH   3  20
ATOM     20  O   UNL     1       0.271   9.742  23.539  0.00  0.00    +0.000 OA
ATOM     21  H   UNL     1       1.093  10.024  23.965  0.00  0.00    +0.000 HD
ENDBRANCH   3  20
BRANCH   1  22
ATOM     22  C   UNL     1      -0.392  12.293  19.429  0.00  0.00    +0.000 C 
BRANCH  22  24
ATOM     23  C   UNL     1       1.449  13.710  19.079  0.00  0.00    +0.000 C 
ATOM     24  O   UNL     1       0.260  13.499  19.830  0.00  0.00    +0.000 OA
ENDBRANCH  22  24
ENDBRANCH   1  22
TORSDOF 4
ENDMDL
MODEL 4
REMARK VINA RESULT:      -6.7      1.908      3.520
REMARK  Name = 
REMARK  5 active torsions:
REMARK  status: ('A' for Active; 'I' for Inactive)
REMARK    1  A    between atoms: C_1  and  O_2
REMARK    2  A    between atoms: O_2  and  C_3
REMARK    3  A    between atoms: C_3  and  C_4
REMARK    4  A    between atoms: C_6  and  O_7
REMARK    5  A    between atoms: C_14  and  C_16
REMARK                            x       y       z     vdW  Elec       q    Type
REMARK                         _______ _______ _______ _____ _____    ______ ____
ROOT
ATOM      1  C   UNL     1      -0.673  11.968  21.001  0.00  0.00    +0.000 A 
ATOM      2  C   UNL     1      -1.160  12.640  19.903  0.00  0.00    +0.000 A 
ATOM      3  C   UNL     1      -0.788  12.121  18.694  0.00  0.00    +0.000 A 
ATOM      4  N   UNL     1      -0.011  11.046  18.548  0.00  0.00    +0.000 NA
ATOM      5  C   UNL     1       0.400  10.423  19.659  0.00  0.00    +0.000 A 
ATOM      6  N   UNL     1       1.090   9.239  19.521  0.00  0.00    +0.000 N 
ATOM      7  C   UNL     1       1.558   8.529  20.715  0.00  0.00    +0.000 C 
ATOM      8  C   UNL     1       1.789   7.036  20.376  0.00  0.00    +0.000 C 
ATOM      9  N   UNL     1       2.580   6.865  19.151  0.00  0.00    +0.000 N 
ATOM     10  C   UNL     1       3.499   5.815  19.066  0.00  0.00    +0.000 C 
ATOM     11  O   UNL     1       3.588   4.984  19.971  0.00  0.00    +0.000 OA
ATOM     12  C   UNL     1       2.056   7.616  17.999  0.00  0.00    +0.000 C 
ATOM     13  C   UNL     1       1.939   9.106  18.336  0.00  0.00    +0.000 C 
ATOM     14  N   UNL     1       0.099  10.865  20.890  0.00  0.00    +0.000 NA
ENDROOT
BRANCH  10  15
ATOM     15  C   UNL     1       4.339   5.728  17.884  0.00  0.00    +0.000 A 
ATOM     16  C   UNL     1       4.386   4.780  16.879  0.00  0.00    +0.000 A 
ATOM     17  C   UNL     1       5.376   5.200  15.958  0.00  0.00    +0.000 A 
ATOM     18  C   UNL     1       5.915   6.351  16.479  0.00  0.00    +0.000 A 
ATOM     19  O   UNL     1       5.325   6.657  17.661  0.00  0.00    +0.000 OA
ENDBRANCH  10  15
BRANCH   3  20
ATOM     20  O   UNL     1      -1.202  12.685  17.522  0.00  0.00    +0.000 OA
ATOM     21  H   UNL     1      -2.166  12.761  17.547  0.00  0.00    +0.000 HD
ENDBRANCH   3  20
BRANCH   1  22
ATOM     22  C   UNL     1      -0.958  12.467  22.394  0.00  0.00    +0.000 C 
BRANCH  22  24
ATOM     23  C   UNL     1      -3.040  12.204  23.451  0.00  0.00    +0.000 C 
ATOM     24  O   UNL     1      -1.829  11.561  23.074  0.00  0.00    +0.000 OA
ENDBRANCH  22  24
ENDBRANCH   1  22
TORSDOF 4
ENDMDL
MODEL 5
REMARK VINA RESULT:      -6.7      1.366      8.112
REMARK  Name = 
REMARK  5 active torsions:
REMARK  status: ('A' for Active; 'I' for Inactive)
REMARK    1  A    between atoms: C_1  and  O_2
REMARK    2  A    between atoms: O_2  and  C_3
REMARK    3  A    between atoms: C_3  and  C_4
REMARK    4  A    between atoms: C_6  and  O_7
REMARK    5  A    between atoms: C_14  and  C_16
REMARK                            x       y       z     vdW  Elec       q    Type
REMARK                         _______ _______ _______ _____ _____    ______ ____
ROOT
ATOM      1  C   UNL     1       4.373   4.004  18.610  0.00  0.00    +0.000 A 
ATOM      2  C   UNL     1       5.133   4.216  17.482  0.00  0.00    +0.000 A 
ATOM      3  C   UNL     1       4.942   5.424  16.872  0.00  0.00    +0.000 A 
ATOM      4  N   UNL     1       4.090   6.355  17.306  0.00  0.00    +0.000 NA
ATOM      5  C   UNL     1       3.406   6.095  18.428  0.00  0.00    +0.000 A 
ATOM      6  N   UNL     1       2.626   7.097  18.958  0.00  0.00    +0.000 N 
ATOM      7  C   UNL     1       1.861   6.850  20.184  0.00  0.00    +0.000 C 
ATOM      8  C   UNL     1       1.530   8.195  20.873  0.00  0.00    +0.000 C 
ATOM      9  N   UNL     1       0.973   9.174  19.931  0.00  0.00    +0.000 N 
ATOM     10  C   UNL     1      -0.027  10.052  20.362  0.00  0.00    +0.000 C 
ATOM     11  O   UNL     1      -0.381  10.070  21.542  0.00  0.00    +0.000 OA
ATOM     12  C   UNL     1       1.788   9.361  18.720  0.00  0.00    +0.000 C 
ATOM     13  C   UNL     1       2.008   8.024  18.007  0.00  0.00    +0.000 C 
ATOM     14  N   UNL     1       3.516   4.932  19.088  0.00  0.00    +0.000 NA
ENDROOT
BRANCH  10  15
ATOM     15  C   UNL     1      -0.632  10.941  19.385  0.00  0.00    +0.000 A 
ATOM     16  C   UNL     1      -1.661  10.727  18.488  0.00  0.00    +0.000 A 
ATOM     17  C   UNL     1      -1.862  11.943  17.791  0.00  0.00    +0.000 A 
ATOM     18  C   UNL     1      -0.910  12.814  18.263  0.00  0.00    +0.000 A 
ATOM     19  O   UNL     1      -0.137  12.207  19.196  0.00  0.00    +0.000 OA
ENDBRANCH  10  15
BRANCH   3  20
ATOM     20  O   UNL     1       5.632   5.769  15.746  0.00  0.00    +0.000 OA
ATOM     21  H   UNL     1       6.578   5.689  15.935  0.00  0.00    +0.000 HD
ENDBRANCH   3  20
BRANCH   1  22
ATOM     22  C   UNL     1       4.444   2.692  19.346  0.00  0.00    +0.000 C 
BRANCH  22  24
ATOM     23  C   UNL     1       2.300   1.823  18.936  0.00  0.00    +0.000 C 
ATOM     24  O   UNL     1       3.688   1.696  18.654  0.00  0.00    +0.000 OA
ENDBRANCH  22  24
ENDBRANCH   1  22
TORSDOF 4
ENDMDL
MODEL 6
REMARK VINA RESULT:      -6.5      1.301      8.212
REMARK  Name = 
REMARK  5 active torsions:
REMARK  status: ('A' for Active; 'I' for Inactive)
REMARK    1  A    between atoms: C_1  and  O_2
REMARK    2  A    between atoms: O_2  and  C_3
REMARK    3  A    between atoms: C_3  and  C_4
REMARK    4  A    between atoms: C_6  and  O_7
REMARK    5  A    between atoms: C_14  and  C_16
REMARK                            x       y       z     vdW  Elec       q    Type
REMARK                         _______ _______ _______ _____ _____    ______ ____
ROOT
ATOM      1  C   UNL     1       4.314   4.150  17.959  0.00  0.00    +0.000 A 
ATOM      2  C   UNL     1       5.116   4.487  16.893  0.00  0.00    +0.000 A 
ATOM      3  C   UNL     1       4.985   5.774  16.452  0.00  0.00    +0.000 A 
ATOM      4  N   UNL     1       4.151   6.668  16.987  0.00  0.00    +0.000 NA
ATOM      5  C   UNL     1       3.424   6.281  18.043  0.00  0.00    +0.000 A 
ATOM      6  N   UNL     1       2.661   7.230  18.686  0.00  0.00    +0.000 N 
ATOM      7  C   UNL     1       1.850   6.845  19.845  0.00  0.00    +0.000 C 
ATOM      8  C   UNL     1       1.542   8.094  20.705  0.00  0.00    +0.000 C 
ATOM      9  N   UNL     1       1.049   9.214  19.893  0.00  0.00    +0.000 N 
ATOM     10  C   UNL     1       0.065  10.060  20.415  0.00  0.00    +0.000 C 
ATOM     11  O   UNL     1      -0.325   9.930  21.576  0.00  0.00    +0.000 OA
ATOM     12  C   UNL     1       1.907   9.535  18.743  0.00  0.00    +0.000 C 
ATOM     13  C   UNL     1       2.105   8.301  17.857  0.00  0.00    +0.000 C 
ATOM     14  N   UNL     1       3.474   5.036  18.539  0.00  0.00    +0.000 NA
ENDROOT
BRANCH  10  15
ATOM     15  C   UNL     1      -0.478  11.097  19.555  0.00  0.00    +0.000 A 
ATOM     16  C   UNL     1      -0.245  12.460  19.529  0.00  0.00    +0.000 A 
ATOM     17  C   UNL     1      -1.019  12.993  18.470  0.00  0.00    +0.000 A 
ATOM     18  C   UNL     1      -1.722  11.936  17.944  0.00  0.00    +0.000 A 
ATOM     19  O   UNL     1      -1.433  10.795  18.618  0.00  0.00    +0.000 OA
ENDBRANCH  10  15
BRANCH   3  20
ATOM     20  O   UNL     1       5.722   6.244  15.403  0.00  0.00    +0.000 OA
ATOM     21  H   UNL     1       6.653   6.037  15.571  0.00  0.00    +0.000 HD
ENDBRANCH   3  20
BRANCH   1  22
ATOM     22  C   UNL     1       4.318   2.747  18.508  0.00  0.00    +0.000 C 
BRANCH  22  24
ATOM     23  C   UNL     1       3.984   2.280  20.786  0.00  0.00    +0.000 C 
ATOM     24  O   UNL     1       4.913   2.727  19.807  0.00  0.00    +0.000 OA
ENDBRANCH  22  24
ENDBRANCH   1  22
TORSDOF 4
ENDMDL
MODEL 7
REMARK VINA RESULT:      -6.5      3.621      5.554
REMARK  Name = 
REMARK  5 active torsions:
REMARK  status: ('A' for Active; 'I' for Inactive)
REMARK    1  A    between atoms: C_1  and  O_2
REMARK    2  A    between atoms: O_2  and  C_3
REMARK    3  A    between atoms: C_3  and  C_4
REMARK    4  A    between atoms: C_6  and  O_7
REMARK    5  A    between atoms: C_14  and  C_16
REMARK                            x       y       z     vdW  Elec       q    Type
REMARK                         _______ _______ _______ _____ _____    ______ ____
ROOT
ATOM      1  C   UNL     1       2.069   6.185  20.169  0.00  0.00    +0.000 A 
ATOM      2  C   UNL     1       1.345   5.073  20.531  0.00  0.00    +0.000 A 
ATOM      3  C   UNL     1       1.564   3.963  19.763  0.00  0.00    +0.000 A 
ATOM      4  N   UNL     1       2.406   3.922  18.730  0.00  0.00    +0.000 NA
ATOM      5  C   UNL     1       3.103   5.032  18.453  0.00  0.00    +0.000 A 
ATOM      6  N   UNL     1       4.070   4.964  17.476  0.00  0.00    +0.000 N 
ATOM      7  C   UNL     1       4.851   6.159  17.144  0.00  0.00    +0.000 C 
ATOM      8  C   UNL     1       6.182   5.742  16.472  0.00  0.00    +0.000 C 
ATOM      9  N   UNL     1       5.972   4.767  15.394  0.00  0.00    +0.000 N 
ATOM     10  C   UNL     1       6.771   4.827  14.248  0.00  0.00    +0.000 C 
ATOM     11  O   UNL     1       7.702   5.629  14.172  0.00  0.00    +0.000 OA
ATOM     12  C   UNL     1       5.170   3.601  15.798  0.00  0.00    +0.000 C 
ATOM     13  C   UNL     1       3.819   4.047  16.363  0.00  0.00    +0.000 C 
ATOM     14  N   UNL     1       2.946   6.173  19.141  0.00  0.00    +0.000 NA
ENDROOT
BRANCH  10  15
ATOM     15  C   UNL     1       6.477   3.915  13.155  0.00  0.00    +0.000 A 
ATOM     16  C   UNL     1       7.318   3.280  12.260  0.00  0.00    +0.000 A 
ATOM     17  C   UNL     1       6.503   2.485  11.418  0.00  0.00    +0.000 A 
ATOM     18  C   UNL     1       5.208   2.721  11.811  0.00  0.00    +0.000 A 
ATOM     19  O   UNL     1       5.178   3.614  12.831  0.00  0.00    +0.000 OA
ENDBRANCH  10  15
BRANCH   3  20
ATOM     20  O   UNL     1       0.914   2.788  20.012  0.00  0.00    +0.000 OA
ATOM     21  H   UNL     1       1.291   2.399  20.815  0.00  0.00    +0.000 HD
ENDBRANCH   3  20
BRANCH   1  22
ATOM     22  C   UNL     1       1.883   7.492  20.895  0.00  0.00    +0.000 C 
BRANCH  22  24
ATOM     23  C   UNL     1       0.670   9.475  20.552  0.00  0.00    +0.000 C 
ATOM     24  O   UNL     1       1.559   8.530  19.969  0.00  0.00    +0.000 OA
ENDBRANCH  22  24
ENDBRANCH   1  22
TORSDOF 4
ENDMDL
MODEL 8
REMARK VINA RESULT:      -6.3      1.976      3.665
REMARK  Name = 
REMARK  5 active torsions:
REMARK  status: ('A' for Active; 'I' for Inactive)
REMARK    1  A    between atoms: C_1  and  O_2
REMARK    2  A    between atoms: O_2  and  C_3
REMARK    3  A    between atoms: C_3  and  C_4
REMARK    4  A    between atoms: C_6  and  O_7
REMARK    5  A    between atoms: C_14  and  C_16
REMARK                            x       y       z     vdW  Elec       q    Type
REMARK                         _______ _______ _______ _____ _____    ______ ____
ROOT
ATOM      1  C   UNL     1      -0.960  11.703  20.651  0.00  0.00    +0.000 A 
ATOM      2  C   UNL     1      -1.458  12.328  19.530  0.00  0.00    +0.000 A 
ATOM      3  C   UNL     1      -0.997  11.837  18.340  0.00  0.00    +0.000 A 
ATOM      4  N   UNL     1      -0.128  10.831  18.231  0.00  0.00    +0.000 NA
ATOM      5  C   UNL     1       0.290  10.248  19.362  0.00  0.00    +0.000 A 
ATOM      6  N   UNL     1       1.081   9.126  19.258  0.00  0.00    +0.000 N 
ATOM      7  C   UNL     1       1.560   8.461  20.474  0.00  0.00    +0.000 C 
ATOM      8  C   UNL     1       1.928   6.992  20.155  0.00  0.00    +0.000 C 
ATOM      9  N   UNL     1       2.777   6.884  18.962  0.00  0.00    +0.000 N 
ATOM     10  C   UNL     1       3.784   5.914  18.920  0.00  0.00    +0.000 C 
ATOM     11  O   UNL     1       3.906   5.096  19.833  0.00  0.00    +0.000 OA
ATOM     12  C   UNL     1       2.239   7.585  17.786  0.00  0.00    +0.000 C 
ATOM     13  C   UNL     1       1.984   9.060  18.108  0.00  0.00    +0.000 C 
ATOM     14  N   UNL     1      -0.095  10.667  20.576  0.00  0.00    +0.000 NA
ENDROOT
BRANCH  10  15
ATOM     15  C   UNL     1       4.675   5.894  17.773  0.00  0.00    +0.000 A 
ATOM     16  C   UNL     1       5.853   6.576  17.535  0.00  0.00    +0.000 A 
ATOM     17  C   UNL     1       6.322   6.163  16.264  0.00  0.00    +0.000 A 
ATOM     18  C   UNL     1       5.376   5.295  15.775  0.00  0.00    +0.000 A 
ATOM     19  O   UNL     1       4.358   5.157  16.660  0.00  0.00    +0.000 OA
ENDBRANCH  10  15
BRANCH   3  20
ATOM     20  O   UNL     1      -1.409  12.362  17.148  0.00  0.00    +0.000 OA
ATOM     21  H   UNL     1      -2.259  11.959  16.919  0.00  0.00    +0.000 HD
ENDBRANCH   3  20
BRANCH   1  22
ATOM     22  C   UNL     1      -1.342  12.180  22.027  0.00  0.00    +0.000 C 
BRANCH  22  24
ATOM     23  C   UNL     1      -0.925  10.269  23.329  0.00  0.00    +0.000 C 
ATOM     24  O   UNL     1      -0.491  11.585  23.010  0.00  0.00    +0.000 OA
ENDBRANCH  22  24
ENDBRANCH   1  22
TORSDOF 4
ENDMDL
MODEL 9
REMARK VINA RESULT:      -6.3      1.932      7.966
REMARK  Name = 
REMARK  5 active torsions:
REMARK  status: ('A' for Active; 'I' for Inactive)
REMARK    1  A    between atoms: C_1  and  O_2
REMARK    2  A    between atoms: O_2  and  C_3
REMARK    3  A    between atoms: C_3  and  C_4
REMARK    4  A    between atoms: C_6  and  O_7
REMARK    5  A    between atoms: C_14  and  C_16
REMARK                            x       y       z     vdW  Elec       q    Type
REMARK                         _______ _______ _______ _____ _____    ______ ____
ROOT
ATOM      1  C   UNL     1       3.980   5.270  18.865  0.00  0.00    +0.000 A 
ATOM      2  C   UNL     1       3.606   4.299  19.765  0.00  0.00    +0.000 A 
ATOM      3  C   UNL     1       2.596   4.654  20.615  0.00  0.00    +0.000 A 
ATOM      4  N   UNL     1       1.993   5.844  20.607  0.00  0.00    +0.000 NA
ATOM      5  C   UNL     1       2.385   6.730  19.682  0.00  0.00    +0.000 A 
ATOM      6  N   UNL     1       1.684   7.910  19.576  0.00  0.00    +0.000 N 
ATOM      7  C   UNL     1       2.085   8.906  18.578  0.00  0.00    +0.000 C 
ATOM      8  C   UNL     1       0.891   9.839  18.263  0.00  0.00    +0.000 C 
ATOM      9  N   UNL     1       0.251  10.345  19.484  0.00  0.00    +0.000 N 
ATOM     10  C   UNL     1      -0.249  11.651  19.508  0.00  0.00    +0.000 C 
ATOM     11  O   UNL     1      -0.238  12.347  18.491  0.00  0.00    +0.000 OA
ATOM     12  C   UNL     1      -0.112   9.290  20.443  0.00  0.00    +0.000 C 
ATOM     13  C   UNL     1       1.115   8.451  20.812  0.00  0.00    +0.000 C 
ATOM     14  N   UNL     1       3.377   6.478  18.814  0.00  0.00    +0.000 NA
ENDROOT
BRANCH  10  15
ATOM     15  C   UNL     1      -0.786  12.161  20.758  0.00  0.00    +0.000 A 
ATOM     16  C   UNL     1      -2.087  12.439  21.133  0.00  0.00    +0.000 A 
ATOM     17  C   UNL     1      -2.044  12.891  22.474  0.00  0.00    +0.000 A 
ATOM     18  C   UNL     1      -0.716  12.915  22.824  0.00  0.00    +0.000 A 
ATOM     19  O   UNL     1       0.055  12.515  21.783  0.00  0.00    +0.000 OA
ENDBRANCH  10  15
BRANCH   3  20
ATOM     20  O   UNL     1       2.123   3.786  21.558  0.00  0.00    +0.000 OA
ATOM     21  H   UNL     1       2.732   3.036  21.610  0.00  0.00    +0.000 HD
ENDBRANCH   3  20
BRANCH   1  22
ATOM     22  C   UNL     1       5.118   5.031  17.908  0.00  0.00    +0.000 C 
BRANCH  22  24
ATOM     23  C   UNL     1       7.435   4.649  17.845  0.00  0.00    +0.000 C 
ATOM     24  O   UNL     1       6.243   4.491  18.604  0.00  0.00    +0.000 OA
ENDBRANCH  22  24
ENDBRANCH   1  22
TORSDOF 4
ENDMDL
