MODEL 1
REMARK VINA RESULT:      -8.6      0.000      0.000
REMARK  Name = 
REMARK  9 active torsions:
REMARK  status: ('A' for Active; 'I' for Inactive)
REMARK    1  A    between atoms: C_1  and  C_2
REMARK    2  A    between atoms: C_2  and  O_3
REMARK    3  A    between atoms: O_3  and  C_4
REMARK    4  A    between atoms: C_9  and  C_10
REMARK    5  A    between atoms: C_12  and  C_13
REMARK    6  A    between atoms: N_15  and  C_16
REMARK    7  A    between atoms: C_16  and  C_17
REMARK    8  A    between atoms: C_17  and  C_18
REMARK    9  A    between atoms: C_25  and  C_26
REMARK                            x       y       z     vdW  Elec       q    Type
REMARK                         _______ _______ _______ _____ _____    ______ ____
ROOT
ATOM      1  C   UNL     1       1.968   6.847  19.989  0.00  0.00    +0.000 A 
ATOM      2  C   UNL     1       1.585   7.609  21.112  0.00  0.00    +0.000 A 
ATOM      3  C   UNL     1       1.231   8.963  21.029  0.00  0.00    +0.000 A 
ATOM      4  C   UNL     1       1.353   9.444  19.717  0.00  0.00    +0.000 A 
ATOM      5  C   UNL     1       1.189  10.723  19.198  0.00  0.00    +0.000 A 
ATOM      6  N   UNL     1       1.373  10.557  17.840  0.00  0.00    +0.000 N 
ATOM      7  N   UNL     1       1.724   9.324  17.455  0.00  0.00    +0.000 NA
ATOM      8  C   UNL     1       1.738   8.641  18.594  0.00  0.00    +0.000 A 
ATOM      9  N   UNL     1       2.056   7.332  18.712  0.00  0.00    +0.000 NA
ATOM     10  H   UNL     1       1.319  11.275  17.125  0.00  0.00    +0.000 HD
ENDROOT
BRANCH   1  16
ATOM     11  C   UNL     1       3.440   4.751  19.848  0.00  0.00    +0.000 A 
ATOM     12  C   UNL     1       3.576   3.365  20.029  0.00  0.00    +0.000 A 
ATOM     13  C   UNL     1       2.481   2.581  20.362  0.00  0.00    +0.000 A 
ATOM     14  C   UNL     1       1.249   3.177  20.579  0.00  0.00    +0.000 A 
ATOM     15  C   UNL     1       1.117   4.561  20.467  0.00  0.00    +0.000 A 
ATOM     16  C   UNL     1       2.201   5.383  20.097  0.00  0.00    +0.000 A 
BRANCH  11  17
ATOM     17  O   UNL     1       4.505   5.517  19.432  0.00  0.00    +0.000 OA
BRANCH  17  19
ATOM     18  C   UNL     1       4.633   5.401  17.050  0.00  0.00    +0.000 C 
ATOM     19  C   UNL     1       5.260   4.954  18.355  0.00  0.00    +0.000 C 
ENDBRANCH  17  19
ENDBRANCH  11  17
ENDBRANCH   1  16
BRANCH   5  20
ATOM     20  C   UNL     1       0.983  12.063  19.752  0.00  0.00    +0.000 A 
ATOM     21  C   UNL     1       1.952  12.659  20.569  0.00  0.00    +0.000 A 
ATOM     22  C   UNL     1       1.770  13.947  21.079  0.00  0.00    +0.000 A 
ATOM     23  C   UNL     1       0.643  14.677  20.726  0.00  0.00    +0.000 A 
ATOM     24  C   UNL     1      -0.319  14.114  19.892  0.00  0.00    +0.000 A 
ATOM     25  C   UNL     1      -0.159  12.811  19.419  0.00  0.00    +0.000 A 
ENDBRANCH   5  20
BRANCH   3  26
ATOM     26  C   UNL     1       0.597   9.620  22.179  0.00  0.00    +0.000 C 
ATOM     27  O   UNL     1       1.197   9.698  23.249  0.00  0.00    +0.000 OA
ATOM     28  N   UNL     1      -0.650  10.193  21.982  0.00  0.00    +0.000 N 
ATOM     29  H   UNL     1      -1.166  10.029  21.127  0.00  0.00    +0.000 HD
BRANCH  28  30
ATOM     30  C   UNL     1      -1.302  10.851  23.101  0.00  0.00    +0.000 C 
BRANCH  30  31
ATOM     31  C   UNL     1      -1.609  12.328  22.855  0.00  0.00    +0.000 C 
BRANCH  31  32
ATOM     32  C   UNL     1      -3.091  12.601  22.958  0.00  0.00    +0.000 A 
ATOM     33  C   UNL     1      -3.751  12.473  24.187  0.00  0.00    +0.000 A 
ATOM     34  C   UNL     1      -5.130  12.671  24.277  0.00  0.00    +0.000 A 
ATOM     35  C   UNL     1      -5.866  12.991  23.140  0.00  0.00    +0.000 A 
ATOM     36  C   UNL     1      -5.222  13.122  21.910  0.00  0.00    +0.000 A 
ATOM     37  C   UNL     1      -3.841  12.929  21.818  0.00  0.00    +0.000 A 
ENDBRANCH  31  32
ENDBRANCH  30  31
ENDBRANCH  28  30
ENDBRANCH   3  26
TORSDOF 8
ENDMDL
MODEL 2
REMARK VINA RESULT:      -8.6      0.420      1.287
REMARK  Name = 
REMARK  9 active torsions:
REMARK  status: ('A' for Active; 'I' for Inactive)
REMARK    1  A    between atoms: C_1  and  C_2
REMARK    2  A    between atoms: C_2  and  O_3
REMARK    3  A    between atoms: O_3  and  C_4
REMARK    4  A    between atoms: C_9  and  C_10
REMARK    5  A    between atoms: C_12  and  C_13
REMARK    6  A    between atoms: N_15  and  C_16
REMARK    7  A    between atoms: C_16  and  C_17
REMARK    8  A    between atoms: C_17  and  C_18
REMARK    9  A    between atoms: C_25  and  C_26
REMARK                            x       y       z     vdW  Elec       q    Type
REMARK                         _______ _______ _______ _____ _____    ______ ____
ROOT
ATOM      1  C   UNL     1       2.051   6.808  19.953  0.00  0.00    +0.000 A 
ATOM      2  C   UNL     1       1.655   7.554  21.082  0.00  0.00    +0.000 A 
ATOM      3  C   UNL     1       1.267   8.899  21.008  0.00  0.00    +0.000 A 
ATOM      4  C   UNL     1       1.370   9.390  19.698  0.00  0.00    +0.000 A 
ATOM      5  C   UNL     1       1.171  10.668  19.187  0.00  0.00    +0.000 A 
ATOM      6  N   UNL     1       1.353  10.513  17.828  0.00  0.00    +0.000 N 
ATOM      7  N   UNL     1       1.732   9.292  17.434  0.00  0.00    +0.000 NA
ATOM      8  C   UNL     1       1.769   8.603  18.568  0.00  0.00    +0.000 A 
ATOM      9  N   UNL     1       2.120   7.302  18.678  0.00  0.00    +0.000 NA
ATOM     10  H   UNL     1       1.277  11.233  17.117  0.00  0.00    +0.000 HD
ENDROOT
BRANCH   1  16
ATOM     11  C   UNL     1       3.572   4.749  19.786  0.00  0.00    +0.000 A 
ATOM     12  C   UNL     1       3.745   3.366  19.959  0.00  0.00    +0.000 A 
ATOM     13  C   UNL     1       2.673   2.554  20.300  0.00  0.00    +0.000 A 
ATOM     14  C   UNL     1       1.429   3.118  20.533  0.00  0.00    +0.000 A 
ATOM     15  C   UNL     1       1.262   4.499  20.429  0.00  0.00    +0.000 A 
ATOM     16  C   UNL     1       2.321   5.350  20.051  0.00  0.00    +0.000 A 
BRANCH  11  17
ATOM     17  O   UNL     1       4.614   5.543  19.361  0.00  0.00    +0.000 OA
BRANCH  17  19
ATOM     18  C   UNL     1       6.994   5.586  19.180  0.00  0.00    +0.000 C 
ATOM     19  C   UNL     1       5.731   4.826  18.827  0.00  0.00    +0.000 C 
ENDBRANCH  17  19
ENDBRANCH  11  17
ENDBRANCH   1  16
BRANCH   5  20
ATOM     20  C   UNL     1       0.934  11.999  19.749  0.00  0.00    +0.000 A 
ATOM     21  C   UNL     1      -0.267  12.677  19.507  0.00  0.00    +0.000 A 
ATOM     22  C   UNL     1      -0.508  13.937  20.063  0.00  0.00    +0.000 A 
ATOM     23  C   UNL     1       0.429  14.505  20.917  0.00  0.00    +0.000 A 
ATOM     24  C   UNL     1       1.618  13.835  21.192  0.00  0.00    +0.000 A 
ATOM     25  C   UNL     1       1.877  12.597  20.602  0.00  0.00    +0.000 A 
ENDBRANCH   5  20
BRANCH   3  26
ATOM     26  C   UNL     1       0.622   9.534  22.165  0.00  0.00    +0.000 C 
ATOM     27  O   UNL     1       1.256   9.701  23.206  0.00  0.00    +0.000 OA
ATOM     28  N   UNL     1      -0.679   9.985  22.006  0.00  0.00    +0.000 N 
ATOM     29  H   UNL     1      -1.211   9.747  21.178  0.00  0.00    +0.000 HD
BRANCH  28  30
ATOM     30  C   UNL     1      -1.342  10.618  23.132  0.00  0.00    +0.000 C 
BRANCH  30  31
ATOM     31  C   UNL     1      -1.570  12.118  22.950  0.00  0.00    +0.000 C 
BRANCH  31  32
ATOM     32  C   UNL     1      -3.045  12.448  22.936  0.00  0.00    +0.000 A 
ATOM     33  C   UNL     1      -3.679  12.807  21.740  0.00  0.00    +0.000 A 
ATOM     34  C   UNL     1      -5.027  13.166  21.730  0.00  0.00    +0.000 A 
ATOM     35  C   UNL     1      -5.756  13.177  22.916  0.00  0.00    +0.000 A 
ATOM     36  C   UNL     1      -5.137  12.821  24.114  0.00  0.00    +0.000 A 
ATOM     37  C   UNL     1      -3.789  12.458  24.126  0.00  0.00    +0.000 A 
ENDBRANCH  31  32
ENDBRANCH  30  31
ENDBRANCH  28  30
ENDBRANCH   3  26
TORSDOF 8
ENDMDL
MODEL 3
REMARK VINA RESULT:      -8.3      1.178      1.608
REMARK  Name = 
REMARK  9 active torsions:
REMARK  status: ('A' for Active; 'I' for Inactive)
REMARK    1  A    between atoms: C_1  and  C_2
REMARK    2  A    between atoms: C_2  and  O_3
REMARK    3  A    between atoms: O_3  and  C_4
REMARK    4  A    between atoms: C_9  and  C_10
REMARK    5  A    between atoms: C_12  and  C_13
REMARK    6  A    between atoms: N_15  and  C_16
REMARK    7  A    between atoms: C_16  and  C_17
REMARK    8  A    between atoms: C_17  and  C_18
REMARK    9  A    between atoms: C_25  and  C_26
REMARK                            x       y       z     vdW  Elec       q    Type
REMARK                         _______ _______ _______ _____ _____    ______ ____
ROOT
ATOM      1  C   UNL     1       1.917   6.995  20.014  0.00  0.00    +0.000 A 
ATOM      2  C   UNL     1       1.484   7.770  21.111  0.00  0.00    +0.000 A 
ATOM      3  C   UNL     1       1.148   9.126  20.999  0.00  0.00    +0.000 A 
ATOM      4  C   UNL     1       1.342   9.596  19.691  0.00  0.00    +0.000 A 
ATOM      5  C   UNL     1       1.216  10.872  19.154  0.00  0.00    +0.000 A 
ATOM      6  N   UNL     1       1.468  10.692  17.809  0.00  0.00    +0.000 N 
ATOM      7  N   UNL     1       1.827   9.453  17.452  0.00  0.00    +0.000 NA
ATOM      8  C   UNL     1       1.776   8.779  18.595  0.00  0.00    +0.000 A 
ATOM      9  N   UNL     1       2.074   7.469  18.740  0.00  0.00    +0.000 NA
ATOM     10  H   UNL     1       1.457  11.405  17.087  0.00  0.00    +0.000 HD
ENDROOT
BRANCH   1  16
ATOM     11  C   UNL     1       3.374   4.885  19.964  0.00  0.00    +0.000 A 
ATOM     12  C   UNL     1       3.488   3.499  20.162  0.00  0.00    +0.000 A 
ATOM     13  C   UNL     1       2.370   2.728  20.447  0.00  0.00    +0.000 A 
ATOM     14  C   UNL     1       1.134   3.337  20.597  0.00  0.00    +0.000 A 
ATOM     15  C   UNL     1       1.022   4.721  20.468  0.00  0.00    +0.000 A 
ATOM     16  C   UNL     1       2.130   5.530  20.145  0.00  0.00    +0.000 A 
BRANCH  11  17
ATOM     17  O   UNL     1       4.466   5.637  19.595  0.00  0.00    +0.000 OA
BRANCH  17  19
ATOM     18  C   UNL     1       6.815   5.501  19.189  0.00  0.00    +0.000 C 
ATOM     19  C   UNL     1       5.455   4.926  18.846  0.00  0.00    +0.000 C 
ENDBRANCH  17  19
ENDBRANCH  11  17
ENDBRANCH   1  16
BRANCH   5  20
ATOM     20  C   UNL     1       0.995  12.218  19.686  0.00  0.00    +0.000 A 
ATOM     21  C   UNL     1       1.874  12.772  20.625  0.00  0.00    +0.000 A 
ATOM     22  C   UNL     1       1.681  14.066  21.116  0.00  0.00    +0.000 A 
ATOM     23  C   UNL     1       0.638  14.842  20.627  0.00  0.00    +0.000 A 
ATOM     24  C   UNL     1      -0.231  14.320  19.673  0.00  0.00    +0.000 A 
ATOM     25  C   UNL     1      -0.064  13.012  19.215  0.00  0.00    +0.000 A 
ENDBRANCH   5  20
BRANCH   3  26
ATOM     26  C   UNL     1       0.462   9.799  22.110  0.00  0.00    +0.000 C 
ATOM     27  O   UNL     1       0.947   9.770  23.239  0.00  0.00    +0.000 OA
ATOM     28  N   UNL     1      -0.693  10.507  21.814  0.00  0.00    +0.000 N 
ATOM     29  H   UNL     1      -1.127  10.433  20.903  0.00  0.00    +0.000 HD
BRANCH  28  30
ATOM     30  C   UNL     1      -1.393  11.183  22.892  0.00  0.00    +0.000 C 
BRANCH  30  31
ATOM     31  C   UNL     1      -2.544  12.071  22.420  0.00  0.00    +0.000 C 
BRANCH  31  32
ATOM     32  C   UNL     1      -2.245  13.531  22.672  0.00  0.00    +0.000 A 
ATOM     33  C   UNL     1      -1.268  13.903  23.604  0.00  0.00    +0.000 A 
ATOM     34  C   UNL     1      -1.026  15.249  23.882  0.00  0.00    +0.000 A 
ATOM     35  C   UNL     1      -1.763  16.239  23.237  0.00  0.00    +0.000 A 
ATOM     36  C   UNL     1      -2.738  15.882  22.306  0.00  0.00    +0.000 A 
ATOM     37  C   UNL     1      -2.979  14.535  22.023  0.00  0.00    +0.000 A 
ENDBRANCH  31  32
ENDBRANCH  30  31
ENDBRANCH  28  30
ENDBRANCH   3  26
TORSDOF 8
ENDMDL
MODEL 4
REMARK VINA RESULT:      -8.2      1.194      1.602
REMARK  Name = 
REMARK  9 active torsions:
REMARK  status: ('A' for Active; 'I' for Inactive)
REMARK    1  A    between atoms: C_1  and  C_2
REMARK    2  A    between atoms: C_2  and  O_3
REMARK    3  A    between atoms: O_3  and  C_4
REMARK    4  A    between atoms: C_9  and  C_10
REMARK    5  A    between atoms: C_12  and  C_13
REMARK    6  A    between atoms: N_15  and  C_16
REMARK    7  A    between atoms: C_16  and  C_17
REMARK    8  A    between atoms: C_17  and  C_18
REMARK    9  A    between atoms: C_25  and  C_26
REMARK                            x       y       z     vdW  Elec       q    Type
REMARK                         _______ _______ _______ _____ _____    ______ ____
ROOT
ATOM      1  C   UNL     1       2.372   6.452  19.871  0.00  0.00    +0.000 A 
ATOM      2  C   UNL     1       1.584   7.121  20.831  0.00  0.00    +0.000 A 
ATOM      3  C   UNL     1       1.053   8.400  20.620  0.00  0.00    +0.000 A 
ATOM      4  C   UNL     1       1.443   8.920  19.377  0.00  0.00    +0.000 A 
ATOM      5  C   UNL     1       1.220  10.164  18.799  0.00  0.00    +0.000 A 
ATOM      6  N   UNL     1       1.786  10.055  17.546  0.00  0.00    +0.000 N 
ATOM      7  N   UNL     1       2.421   8.902  17.300  0.00  0.00    +0.000 NA
ATOM      8  C   UNL     1       2.239   8.209  18.418  0.00  0.00    +0.000 A 
ATOM      9  N   UNL     1       2.720   6.968  18.652  0.00  0.00    +0.000 NA
ATOM     10  H   UNL     1       1.811  10.767  16.824  0.00  0.00    +0.000 HD
ENDROOT
BRANCH   1  16
ATOM     11  C   UNL     1       4.019   4.502  19.606  0.00  0.00    +0.000 A 
ATOM     12  C   UNL     1       4.360   3.171  19.896  0.00  0.00    +0.000 A 
ATOM     13  C   UNL     1       3.473   2.339  20.562  0.00  0.00    +0.000 A 
ATOM     14  C   UNL     1       2.258   2.840  21.003  0.00  0.00    +0.000 A 
ATOM     15  C   UNL     1       1.937   4.179  20.779  0.00  0.00    +0.000 A 
ATOM     16  C   UNL     1       2.800   5.043  20.075  0.00  0.00    +0.000 A 
BRANCH  11  17
ATOM     17  O   UNL     1       4.861   5.303  18.868  0.00  0.00    +0.000 OA
BRANCH  17  19
ATOM     18  C   UNL     1       4.713   4.695  16.563  0.00  0.00    +0.000 C 
ATOM     19  C   UNL     1       5.559   4.626  17.819  0.00  0.00    +0.000 C 
ENDBRANCH  17  19
ENDBRANCH  11  17
ENDBRANCH   1  16
BRANCH   5  20
ATOM     20  C   UNL     1       0.660  11.443  19.243  0.00  0.00    +0.000 A 
ATOM     21  C   UNL     1       1.438  12.353  19.970  0.00  0.00    +0.000 A 
ATOM     22  C   UNL     1       0.915  13.585  20.373  0.00  0.00    +0.000 A 
ATOM     23  C   UNL     1      -0.374  13.944  20.000  0.00  0.00    +0.000 A 
ATOM     24  C   UNL     1      -1.153  13.065  19.253  0.00  0.00    +0.000 A 
ATOM     25  C   UNL     1      -0.647  11.817  18.889  0.00  0.00    +0.000 A 
ENDBRANCH   5  20
BRANCH   3  26
ATOM     26  C   UNL     1       0.036   8.926  21.542  0.00  0.00    +0.000 C 
ATOM     27  O   UNL     1      -0.979   8.271  21.772  0.00  0.00    +0.000 OA
ATOM     28  N   UNL     1       0.304  10.130  22.172  0.00  0.00    +0.000 N 
ATOM     29  H   UNL     1       1.094  10.697  21.891  0.00  0.00    +0.000 HD
BRANCH  28  30
ATOM     30  C   UNL     1      -0.682  10.674  23.089  0.00  0.00    +0.000 C 
BRANCH  30  31
ATOM     31  C   UNL     1      -1.761  11.515  22.407  0.00  0.00    +0.000 C 
BRANCH  31  32
ATOM     32  C   UNL     1      -2.143  12.705  23.256  0.00  0.00    +0.000 A 
ATOM     33  C   UNL     1      -1.217  13.727  23.500  0.00  0.00    +0.000 A 
ATOM     34  C   UNL     1      -1.545  14.801  24.329  0.00  0.00    +0.000 A 
ATOM     35  C   UNL     1      -2.800  14.863  24.928  0.00  0.00    +0.000 A 
ATOM     36  C   UNL     1      -3.732  13.853  24.692  0.00  0.00    +0.000 A 
ATOM     37  C   UNL     1      -3.407  12.779  23.860  0.00  0.00    +0.000 A 
ENDBRANCH  31  32
ENDBRANCH  30  31
ENDBRANCH  28  30
ENDBRANCH   3  26
TORSDOF 8
ENDMDL
MODEL 5
REMARK VINA RESULT:      -8.2      1.054      1.713
REMARK  Name = 
REMARK  9 active torsions:
REMARK  status: ('A' for Active; 'I' for Inactive)
REMARK    1  A    between atoms: C_1  and  C_2
REMARK    2  A    between atoms: C_2  and  O_3
REMARK    3  A    between atoms: O_3  and  C_4
REMARK    4  A    between atoms: C_9  and  C_10
REMARK    5  A    between atoms: C_12  and  C_13
REMARK    6  A    between atoms: N_15  and  C_16
REMARK    7  A    between atoms: C_16  and  C_17
REMARK    8  A    between atoms: C_17  and  C_18
REMARK    9  A    between atoms: C_25  and  C_26
REMARK                            x       y       z     vdW  Elec       q    Type
REMARK                         _______ _______ _______ _____ _____    ______ ____
ROOT
ATOM      1  C   UNL     1       1.990   6.947  19.980  0.00  0.00    +0.000 A 
ATOM      2  C   UNL     1       1.548   7.726  21.070  0.00  0.00    +0.000 A 
ATOM      3  C   UNL     1       1.205   9.079  20.949  0.00  0.00    +0.000 A 
ATOM      4  C   UNL     1       1.402   9.542  19.639  0.00  0.00    +0.000 A 
ATOM      5  C   UNL     1       1.272  10.815  19.094  0.00  0.00    +0.000 A 
ATOM      6  N   UNL     1       1.531  10.629  17.751  0.00  0.00    +0.000 N 
ATOM      7  N   UNL     1       1.898   9.389  17.403  0.00  0.00    +0.000 NA
ATOM      8  C   UNL     1       1.846   8.722  18.550  0.00  0.00    +0.000 A 
ATOM      9  N   UNL     1       2.151   7.414  18.704  0.00  0.00    +0.000 NA
ATOM     10  H   UNL     1       1.520  11.337  17.025  0.00  0.00    +0.000 HD
ENDROOT
BRANCH   1  16
ATOM     11  C   UNL     1       3.438   4.833  19.866  0.00  0.00    +0.000 A 
ATOM     12  C   UNL     1       3.565   3.451  20.080  0.00  0.00    +0.000 A 
ATOM     13  C   UNL     1       2.468   2.686  20.452  0.00  0.00    +0.000 A 
ATOM     14  C   UNL     1       1.246   3.300  20.676  0.00  0.00    +0.000 A 
ATOM     15  C   UNL     1       1.126   4.682  20.531  0.00  0.00    +0.000 A 
ATOM     16  C   UNL     1       2.211   5.484  20.121  0.00  0.00    +0.000 A 
BRANCH  11  17
ATOM     17  O   UNL     1       4.504   5.577  19.412  0.00  0.00    +0.000 OA
BRANCH  17  19
ATOM     18  C   UNL     1       6.615   5.052  18.429  0.00  0.00    +0.000 C 
ATOM     19  C   UNL     1       5.115   5.078  18.219  0.00  0.00    +0.000 C 
ENDBRANCH  17  19
ENDBRANCH  11  17
ENDBRANCH   1  16
BRANCH   5  20
ATOM     20  C   UNL     1       1.041  12.163  19.617  0.00  0.00    +0.000 A 
ATOM     21  C   UNL     1      -0.093  12.894  19.240  0.00  0.00    +0.000 A 
ATOM     22  C   UNL     1      -0.330  14.171  19.757  0.00  0.00    +0.000 A 
ATOM     23  C   UNL     1       0.534  14.705  20.703  0.00  0.00    +0.000 A 
ATOM     24  C   UNL     1       1.652  13.983  21.112  0.00  0.00    +0.000 A 
ATOM     25  C   UNL     1       1.913  12.727  20.563  0.00  0.00    +0.000 A 
ENDBRANCH   5  20
BRANCH   3  26
ATOM     26  C   UNL     1       0.510   9.755  22.052  0.00  0.00    +0.000 C 
ATOM     27  O   UNL     1       1.026   9.799  23.167  0.00  0.00    +0.000 OA
ATOM     28  N   UNL     1      -0.692  10.382  21.764  0.00  0.00    +0.000 N 
ATOM     29  H   UNL     1      -1.145  10.247  20.869  0.00  0.00    +0.000 HD
BRANCH  28  30
ATOM     30  C   UNL     1      -1.402  11.059  22.835  0.00  0.00    +0.000 C 
BRANCH  30  31
ATOM     31  C   UNL     1      -2.232  12.254  22.367  0.00  0.00    +0.000 C 
BRANCH  31  32
ATOM     32  C   UNL     1      -2.265  13.340  23.417  0.00  0.00    +0.000 A 
ATOM     33  C   UNL     1      -3.432  13.578  24.153  0.00  0.00    +0.000 A 
ATOM     34  C   UNL     1      -3.486  14.615  25.085  0.00  0.00    +0.000 A 
ATOM     35  C   UNL     1      -2.376  15.432  25.287  0.00  0.00    +0.000 A 
ATOM     36  C   UNL     1      -1.207  15.205  24.562  0.00  0.00    +0.000 A 
ATOM     37  C   UNL     1      -1.150  14.164  23.632  0.00  0.00    +0.000 A 
ENDBRANCH  31  32
ENDBRANCH  30  31
ENDBRANCH  28  30
ENDBRANCH   3  26
TORSDOF 8
ENDMDL
MODEL 6
REMARK VINA RESULT:      -8.1      0.881      1.242
REMARK  Name = 
REMARK  9 active torsions:
REMARK  status: ('A' for Active; 'I' for Inactive)
REMARK    1  A    between atoms: C_1  and  C_2
REMARK    2  A    between atoms: C_2  and  O_3
REMARK    3  A    between atoms: O_3  and  C_4
REMARK    4  A    between atoms: C_9  and  C_10
REMARK    5  A    between atoms: C_12  and  C_13
REMARK    6  A    between atoms: N_15  and  C_16
REMARK    7  A    between atoms: C_16  and  C_17
REMARK    8  A    between atoms: C_17  and  C_18
REMARK    9  A    between atoms: C_25  and  C_26
REMARK                            x       y       z     vdW  Elec       q    Type
REMARK                         _______ _______ _______ _____ _____    ______ ____
ROOT
ATOM      1  C   UNL     1       2.300   6.517  19.883  0.00  0.00    +0.000 A 
ATOM      2  C   UNL     1       1.491   7.173  20.834  0.00  0.00    +0.000 A 
ATOM      3  C   UNL     1       0.963   8.455  20.629  0.00  0.00    +0.000 A 
ATOM      4  C   UNL     1       1.379   8.990  19.400  0.00  0.00    +0.000 A 
ATOM      5  C   UNL     1       1.166  10.242  18.834  0.00  0.00    +0.000 A 
ATOM      6  N   UNL     1       1.758  10.148  17.591  0.00  0.00    +0.000 N 
ATOM      7  N   UNL     1       2.400   9.000  17.344  0.00  0.00    +0.000 NA
ATOM      8  C   UNL     1       2.195   8.293  18.450  0.00  0.00    +0.000 A 
ATOM      9  N   UNL     1       2.672   7.049  18.678  0.00  0.00    +0.000 NA
ATOM     10  H   UNL     1       1.797  10.870  16.878  0.00  0.00    +0.000 HD
ENDROOT
BRANCH   1  16
ATOM     11  C   UNL     1       3.963   4.579  19.648  0.00  0.00    +0.000 A 
ATOM     12  C   UNL     1       4.299   3.244  19.926  0.00  0.00    +0.000 A 
ATOM     13  C   UNL     1       3.390   2.397  20.543  0.00  0.00    +0.000 A 
ATOM     14  C   UNL     1       2.157   2.886  20.945  0.00  0.00    +0.000 A 
ATOM     15  C   UNL     1       1.840   4.227  20.733  0.00  0.00    +0.000 A 
ATOM     16  C   UNL     1       2.726   5.107  20.078  0.00  0.00    +0.000 A 
BRANCH  11  17
ATOM     17  O   UNL     1       4.830   5.395  18.957  0.00  0.00    +0.000 OA
BRANCH  17  19
ATOM     18  C   UNL     1       4.520   4.650  16.710  0.00  0.00    +0.000 C 
ATOM     19  C   UNL     1       5.499   4.764  17.861  0.00  0.00    +0.000 C 
ENDBRANCH  17  19
ENDBRANCH  11  17
ENDBRANCH   1  16
BRANCH   5  20
ATOM     20  C   UNL     1       0.595  11.514  19.281  0.00  0.00    +0.000 A 
ATOM     21  C   UNL     1       1.366  12.430  20.008  0.00  0.00    +0.000 A 
ATOM     22  C   UNL     1       0.833  13.656  20.415  0.00  0.00    +0.000 A 
ATOM     23  C   UNL     1      -0.461  14.004  20.047  0.00  0.00    +0.000 A 
ATOM     24  C   UNL     1      -1.234  13.119  19.300  0.00  0.00    +0.000 A 
ATOM     25  C   UNL     1      -0.717  11.876  18.931  0.00  0.00    +0.000 A 
ENDBRANCH   5  20
BRANCH   3  26
ATOM     26  C   UNL     1      -0.074   8.967  21.535  0.00  0.00    +0.000 C 
ATOM     27  O   UNL     1      -1.111   8.329  21.704  0.00  0.00    +0.000 OA
ATOM     28  N   UNL     1       0.198  10.140  22.222  0.00  0.00    +0.000 N 
ATOM     29  H   UNL     1       1.011  10.699  21.991  0.00  0.00    +0.000 HD
BRANCH  28  30
ATOM     30  C   UNL     1      -0.807  10.670  23.125  0.00  0.00    +0.000 C 
BRANCH  30  31
ATOM     31  C   UNL     1      -1.143  12.141  22.881  0.00  0.00    +0.000 C 
BRANCH  31  32
ATOM     32  C   UNL     1      -2.635  12.376  22.930  0.00  0.00    +0.000 A 
ATOM     33  C   UNL     1      -3.366  12.531  21.746  0.00  0.00    +0.000 A 
ATOM     34  C   UNL     1      -4.735  12.803  21.786  0.00  0.00    +0.000 A 
ATOM     35  C   UNL     1      -5.386  12.930  23.010  0.00  0.00    +0.000 A 
ATOM     36  C   UNL     1      -4.670  12.777  24.196  0.00  0.00    +0.000 A 
ATOM     37  C   UNL     1      -3.301  12.500  24.158  0.00  0.00    +0.000 A 
ENDBRANCH  31  32
ENDBRANCH  30  31
ENDBRANCH  28  30
ENDBRANCH   3  26
TORSDOF 8
ENDMDL
MODEL 7
REMARK VINA RESULT:      -8.0      1.014      1.147
REMARK  Name = 
REMARK  9 active torsions:
REMARK  status: ('A' for Active; 'I' for Inactive)
REMARK    1  A    between atoms: C_1  and  C_2
REMARK    2  A    between atoms: C_2  and  O_3
REMARK    3  A    between atoms: O_3  and  C_4
REMARK    4  A    between atoms: C_9  and  C_10
REMARK    5  A    between atoms: C_12  and  C_13
REMARK    6  A    between atoms: N_15  and  C_16
REMARK    7  A    between atoms: C_16  and  C_17
REMARK    8  A    between atoms: C_17  and  C_18
REMARK    9  A    between atoms: C_25  and  C_26
REMARK                            x       y       z     vdW  Elec       q    Type
REMARK                         _______ _______ _______ _____ _____    ______ ____
ROOT
ATOM      1  C   UNL     1       2.325   6.406  19.956  0.00  0.00    +0.000 A 
ATOM      2  C   UNL     1       1.502   7.093  20.872  0.00  0.00    +0.000 A 
ATOM      3  C   UNL     1       0.989   8.373  20.622  0.00  0.00    +0.000 A 
ATOM      4  C   UNL     1       1.436   8.872  19.389  0.00  0.00    +0.000 A 
ATOM      5  C   UNL     1       1.247  10.110  18.785  0.00  0.00    +0.000 A 
ATOM      6  N   UNL     1       1.865   9.979  17.558  0.00  0.00    +0.000 N 
ATOM      7  N   UNL     1       2.502   8.819  17.356  0.00  0.00    +0.000 NA
ATOM      8  C   UNL     1       2.267   8.143  18.475  0.00  0.00    +0.000 A 
ATOM      9  N   UNL     1       2.728   6.902  18.746  0.00  0.00    +0.000 NA
ATOM     10  H   UNL     1       1.925  10.681  16.828  0.00  0.00    +0.000 HD
ENDROOT
BRANCH   1  16
ATOM     11  C   UNL     1       3.715   4.310  19.448  0.00  0.00    +0.000 A 
ATOM     12  C   UNL     1       4.073   2.995  19.787  0.00  0.00    +0.000 A 
ATOM     13  C   UNL     1       3.408   2.316  20.798  0.00  0.00    +0.000 A 
ATOM     14  C   UNL     1       2.420   2.961  21.526  0.00  0.00    +0.000 A 
ATOM     15  C   UNL     1       2.103   4.289  21.241  0.00  0.00    +0.000 A 
ATOM     16  C   UNL     1       2.734   4.997  20.198  0.00  0.00    +0.000 A 
BRANCH  11  17
ATOM     17  O   UNL     1       4.313   4.953  18.388  0.00  0.00    +0.000 OA
BRANCH  17  19
ATOM     18  C   UNL     1       6.455   5.511  19.283  0.00  0.00    +0.000 C 
ATOM     19  C   UNL     1       5.712   4.694  18.245  0.00  0.00    +0.000 C 
ENDBRANCH  17  19
ENDBRANCH  11  17
ENDBRANCH   1  16
BRANCH   5  20
ATOM     20  C   UNL     1       0.678  11.398  19.187  0.00  0.00    +0.000 A 
ATOM     21  C   UNL     1       1.461  12.354  19.847  0.00  0.00    +0.000 A 
ATOM     22  C   UNL     1       0.929  13.595  20.209  0.00  0.00    +0.000 A 
ATOM     23  C   UNL     1      -0.377  13.915  19.860  0.00  0.00    +0.000 A 
ATOM     24  C   UNL     1      -1.163  12.990  19.179  0.00  0.00    +0.000 A 
ATOM     25  C   UNL     1      -0.646  11.734  18.857  0.00  0.00    +0.000 A 
ENDBRANCH   5  20
BRANCH   3  26
ATOM     26  C   UNL     1      -0.062   8.918  21.491  0.00  0.00    +0.000 C 
ATOM     27  O   UNL     1      -1.126   8.316  21.618  0.00  0.00    +0.000 OA
ATOM     28  N   UNL     1       0.226  10.077  22.195  0.00  0.00    +0.000 N 
ATOM     29  H   UNL     1       1.065  10.608  21.998  0.00  0.00    +0.000 HD
BRANCH  28  30
ATOM     30  C   UNL     1      -0.794  10.639  23.063  0.00  0.00    +0.000 C 
BRANCH  30  31
ATOM     31  C   UNL     1      -1.073  12.120  22.809  0.00  0.00    +0.000 C 
BRANCH  31  32
ATOM     32  C   UNL     1      -2.551  12.420  22.901  0.00  0.00    +0.000 A 
ATOM     33  C   UNL     1      -3.200  12.408  24.142  0.00  0.00    +0.000 A 
ATOM     34  C   UNL     1      -4.576  12.629  24.228  0.00  0.00    +0.000 A 
ATOM     35  C   UNL     1      -5.319  12.859  23.073  0.00  0.00    +0.000 A 
ATOM     36  C   UNL     1      -4.685  12.875  21.831  0.00  0.00    +0.000 A 
ATOM     37  C   UNL     1      -3.308  12.657  21.744  0.00  0.00    +0.000 A 
ENDBRANCH  31  32
ENDBRANCH  30  31
ENDBRANCH  28  30
ENDBRANCH   3  26
TORSDOF 8
ENDMDL
MODEL 8
REMARK VINA RESULT:      -7.6      2.451      5.045
REMARK  Name = 
REMARK  9 active torsions:
REMARK  status: ('A' for Active; 'I' for Inactive)
REMARK    1  A    between atoms: C_1  and  C_2
REMARK    2  A    between atoms: C_2  and  O_3
REMARK    3  A    between atoms: O_3  and  C_4
REMARK    4  A    between atoms: C_9  and  C_10
REMARK    5  A    between atoms: C_12  and  C_13
REMARK    6  A    between atoms: N_15  and  C_16
REMARK    7  A    between atoms: C_16  and  C_17
REMARK    8  A    between atoms: C_17  and  C_18
REMARK    9  A    between atoms: C_25  and  C_26
REMARK                            x       y       z     vdW  Elec       q    Type
REMARK                         _______ _______ _______ _____ _____    ______ ____
ROOT
ATOM      1  C   UNL     1       1.747   8.409  19.438  0.00  0.00    +0.000 A 
ATOM      2  C   UNL     1       1.541   9.653  18.807  0.00  0.00    +0.000 A 
ATOM      3  C   UNL     1       0.930  10.740  19.448  0.00  0.00    +0.000 A 
ATOM      4  C   UNL     1       0.525  10.405  20.749  0.00  0.00    +0.000 A 
ATOM      5  C   UNL     1      -0.180  11.135  21.699  0.00  0.00    +0.000 A 
ATOM      6  N   UNL     1      -0.211  10.305  22.800  0.00  0.00    +0.000 N 
ATOM      7  N   UNL     1       0.324   9.091  22.620  0.00  0.00    +0.000 NA
ATOM      8  C   UNL     1       0.757   9.132  21.366  0.00  0.00    +0.000 A 
ATOM      9  N   UNL     1       1.366   8.113  20.719  0.00  0.00    +0.000 NA
ATOM     10  H   UNL     1      -0.636  10.502  23.701  0.00  0.00    +0.000 HD
ENDROOT
BRANCH   1  16
ATOM     11  C   UNL     1       2.455   5.963  19.128  0.00  0.00    +0.000 A 
ATOM     12  C   UNL     1       3.185   5.006  18.404  0.00  0.00    +0.000 A 
ATOM     13  C   UNL     1       4.053   5.392  17.393  0.00  0.00    +0.000 A 
ATOM     14  C   UNL     1       4.158   6.730  17.049  0.00  0.00    +0.000 A 
ATOM     15  C   UNL     1       3.387   7.681  17.718  0.00  0.00    +0.000 A 
ATOM     16  C   UNL     1       2.521   7.328  18.773  0.00  0.00    +0.000 A 
BRANCH  11  17
ATOM     17  O   UNL     1       1.661   5.590  20.190  0.00  0.00    +0.000 OA
BRANCH  17  19
ATOM     18  C   UNL     1       1.252   3.369  20.965  0.00  0.00    +0.000 C 
ATOM     19  C   UNL     1       2.205   4.546  21.003  0.00  0.00    +0.000 C 
ENDBRANCH  17  19
ENDBRANCH  11  17
ENDBRANCH   1  16
BRANCH   5  20
ATOM     20  C   UNL     1      -0.895  12.413  21.723  0.00  0.00    +0.000 A 
ATOM     21  C   UNL     1      -0.233  13.600  22.060  0.00  0.00    +0.000 A 
ATOM     22  C   UNL     1      -0.905  14.825  22.060  0.00  0.00    +0.000 A 
ATOM     23  C   UNL     1      -2.234  14.883  21.663  0.00  0.00    +0.000 A 
ATOM     24  C   UNL     1      -2.904  13.719  21.296  0.00  0.00    +0.000 A 
ATOM     25  C   UNL     1      -2.245  12.490  21.339  0.00  0.00    +0.000 A 
ENDBRANCH   5  20
BRANCH   3  26
ATOM     26  C   UNL     1       0.984  12.072  18.831  0.00  0.00    +0.000 C 
ATOM     27  O   UNL     1      -0.017  12.538  18.291  0.00  0.00    +0.000 OA
ATOM     28  N   UNL     1       2.167  12.784  18.946  0.00  0.00    +0.000 N 
ATOM     29  H   UNL     1       3.005  12.342  19.304  0.00  0.00    +0.000 HD
BRANCH  28  30
ATOM     30  C   UNL     1       2.250  14.104  18.346  0.00  0.00    +0.000 C 
BRANCH  30  31
ATOM     31  C   UNL     1       1.909  15.241  19.309  0.00  0.00    +0.000 C 
BRANCH  31  32
ATOM     32  C   UNL     1       1.164  16.350  18.602  0.00  0.00    +0.000 A 
ATOM     33  C   UNL     1      -0.226  16.465  18.734  0.00  0.00    +0.000 A 
ATOM     34  C   UNL     1      -0.927  17.452  18.039  0.00  0.00    +0.000 A 
ATOM     35  C   UNL     1      -0.248  18.331  17.199  0.00  0.00    +0.000 A 
ATOM     36  C   UNL     1       1.136  18.228  17.060  0.00  0.00    +0.000 A 
ATOM     37  C   UNL     1       1.840  17.243  17.757  0.00  0.00    +0.000 A 
ENDBRANCH  31  32
ENDBRANCH  30  31
ENDBRANCH  28  30
ENDBRANCH   3  26
TORSDOF 8
ENDMDL
MODEL 9
REMARK VINA RESULT:      -7.5      2.414      5.049
REMARK  Name = 
REMARK  9 active torsions:
REMARK  status: ('A' for Active; 'I' for Inactive)
REMARK    1  A    between atoms: C_1  and  C_2
REMARK    2  A    between atoms: C_2  and  O_3
REMARK    3  A    between atoms: O_3  and  C_4
REMARK    4  A    between atoms: C_9  and  C_10
REMARK    5  A    between atoms: C_12  and  C_13
REMARK    6  A    between atoms: N_15  and  C_16
REMARK    7  A    between atoms: C_16  and  C_17
REMARK    8  A    between atoms: C_17  and  C_18
REMARK    9  A    between atoms: C_25  and  C_26
REMARK                            x       y       z     vdW  Elec       q    Type
REMARK                         _______ _______ _______ _____ _____    ______ ____
ROOT
ATOM      1  C   UNL     1       1.655   8.467  19.572  0.00  0.00    +0.000 A 
ATOM      2  C   UNL     1       1.414   9.705  18.939  0.00  0.00    +0.000 A 
ATOM      3  C   UNL     1       0.763  10.771  19.575  0.00  0.00    +0.000 A 
ATOM      4  C   UNL     1       0.360  10.423  20.874  0.00  0.00    +0.000 A 
ATOM      5  C   UNL     1      -0.377  11.130  21.817  0.00  0.00    +0.000 A 
ATOM      6  N   UNL     1      -0.388  10.299  22.919  0.00  0.00    +0.000 N 
ATOM      7  N   UNL     1       0.187   9.104  22.744  0.00  0.00    +0.000 NA
ATOM      8  C   UNL     1       0.628   9.158  21.492  0.00  0.00    +0.000 A 
ATOM      9  N   UNL     1       1.275   8.159  20.850  0.00  0.00    +0.000 NA
ATOM     10  H   UNL     1      -0.826  10.482  23.816  0.00  0.00    +0.000 HD
ENDROOT
BRANCH   1  16
ATOM     11  C   UNL     1       2.471   6.052  19.293  0.00  0.00    +0.000 A 
ATOM     12  C   UNL     1       3.235   5.118  18.573  0.00  0.00    +0.000 A 
ATOM     13  C   UNL     1       4.069   5.525  17.542  0.00  0.00    +0.000 A 
ATOM     14  C   UNL     1       4.106   6.861  17.174  0.00  0.00    +0.000 A 
ATOM     15  C   UNL     1       3.302   7.787  17.839  0.00  0.00    +0.000 A 
ATOM     16  C   UNL     1       2.469   7.413  18.913  0.00  0.00    +0.000 A 
BRANCH  11  17
ATOM     17  O   UNL     1       1.712   5.661  20.372  0.00  0.00    +0.000 OA
BRANCH  17  19
ATOM     18  C   UNL     1       1.193   3.393  20.907  0.00  0.00    +0.000 C 
ATOM     19  C   UNL     1       2.205   4.510  21.063  0.00  0.00    +0.000 C 
ENDBRANCH  17  19
ENDBRANCH  11  17
ENDBRANCH   1  16
BRANCH   5  20
ATOM     20  C   UNL     1      -1.133  12.384  21.836  0.00  0.00    +0.000 A 
ATOM     21  C   UNL     1      -2.295  12.533  21.067  0.00  0.00    +0.000 A 
ATOM     22  C   UNL     1      -3.033  13.719  21.101  0.00  0.00    +0.000 A 
ATOM     23  C   UNL     1      -2.649  14.748  21.952  0.00  0.00    +0.000 A 
ATOM     24  C   UNL     1      -1.514  14.609  22.745  0.00  0.00    +0.000 A 
ATOM     25  C   UNL     1      -0.751  13.442  22.678  0.00  0.00    +0.000 A 
ENDBRANCH   5  20
BRANCH   3  26
ATOM     26  C   UNL     1       0.778  12.104  18.958  0.00  0.00    +0.000 C 
ATOM     27  O   UNL     1      -0.148  12.452  18.228  0.00  0.00    +0.000 OA
ATOM     28  N   UNL     1       1.825  12.950  19.287  0.00  0.00    +0.000 N 
ATOM     29  H   UNL     1       2.624  12.608  19.807  0.00  0.00    +0.000 HD
BRANCH  28  30
ATOM     30  C   UNL     1       1.866  14.275  18.693  0.00  0.00    +0.000 C 
BRANCH  30  31
ATOM     31  C   UNL     1       1.366  15.383  19.620  0.00  0.00    +0.000 C 
BRANCH  31  32
ATOM     32  C   UNL     1       0.631  16.451  18.845  0.00  0.00    +0.000 A 
ATOM     33  C   UNL     1       1.322  17.281  17.953  0.00  0.00    +0.000 A 
ATOM     34  C   UNL     1       0.659  18.306  17.276  0.00  0.00    +0.000 A 
ATOM     35  C   UNL     1      -0.701  18.518  17.488  0.00  0.00    +0.000 A 
ATOM     36  C   UNL     1      -1.401  17.698  18.373  0.00  0.00    +0.000 A 
ATOM     37  C   UNL     1      -0.740  16.669  19.048  0.00  0.00    +0.000 A 
ENDBRANCH  31  32
ENDBRANCH  30  31
ENDBRANCH  28  30
ENDBRANCH   3  26
TORSDOF 8
ENDMDL
