MODEL 1
REMARK VINA RESULT:      -7.9      0.000      0.000
REMARK  Name = 
REMARK  6 active torsions:
REMARK  status: ('A' for Active; 'I' for Inactive)
REMARK    1  A    between atoms: C_2  and  O_3
REMARK    2  A    between atoms: C_2  and  C_4
REMARK    3  A    between atoms: C_6  and  N_7
REMARK    4  A    between atoms: N_7  and  N_8
REMARK    5  A    between atoms: C_9  and  C_10
REMARK    6  A    between atoms: C_11  and  O_12
REMARK                            x       y       z     vdW  Elec       q    Type
REMARK                         _______ _______ _______ _____ _____    ______ ____
ROOT
ATOM      1  N   UNL     1       2.236   7.953  17.850  0.00  0.00    +0.000 NA
ATOM      2  C   UNL     1       3.315   7.329  18.215  0.00  0.00    +0.000 C 
ENDROOT
BRANCH   2   3
ATOM      3  C   UNL     1       3.412   5.858  18.019  0.00  0.00    +0.000 A 
ATOM      4  C   UNL     1       4.238   5.370  16.989  0.00  0.00    +0.000 A 
ATOM      5  C   UNL     1       4.341   4.009  16.742  0.00  0.00    +0.000 A 
ATOM      6  C   UNL     1       3.607   3.114  17.514  0.00  0.00    +0.000 A 
ATOM      7  C   UNL     1       2.780   3.566  18.552  0.00  0.00    +0.000 A 
ATOM      8  C   UNL     1       2.050   2.632  19.306  0.00  0.00    +0.000 A 
ATOM      9  C   UNL     1       1.216   3.040  20.342  0.00  0.00    +0.000 A 
ATOM     10  C   UNL     1       1.098   4.391  20.639  0.00  0.00    +0.000 A 
ATOM     11  C   UNL     1       1.812   5.336  19.895  0.00  0.00    +0.000 A 
ATOM     12  C   UNL     1       2.672   4.955  18.834  0.00  0.00    +0.000 A 
BRANCH   4  13
ATOM     13  O   UNL     1       4.992   6.180  16.178  0.00  0.00    +0.000 OA
ATOM     14  H   UNL     1       5.266   6.956  16.715  0.00  0.00    +0.000 HD
ENDBRANCH   4  13
ENDBRANCH   2   3
BRANCH   1  15
ATOM     15  N   UNL     1       2.197   9.293  18.053  0.00  0.00    +0.000 N 
ATOM     16  H   UNL     1       3.044   9.857  17.999  0.00  0.00    +0.000 HD
BRANCH  15  19
ATOM     17  C   UNL     1       0.143   9.902  21.121  0.00  0.00    +0.000 A 
ATOM     18  C   UNL     1       1.053   9.319  20.210  0.00  0.00    +0.000 A 
ATOM     19  C   UNL     1       1.183   9.797  18.898  0.00  0.00    +0.000 A 
ATOM     20  C   UNL     1       0.375  10.875  18.515  0.00  0.00    +0.000 A 
ATOM     21  C   UNL     1      -0.540  11.452  19.398  0.00  0.00    +0.000 A 
ATOM     22  C   UNL     1      -0.656  10.972  20.702  0.00  0.00    +0.000 A 
ATOM     23 CL   UNL     1      -1.806  11.765  21.717  0.00  0.00    +0.000 Cl
BRANCH  17  25
ATOM     24  O   UNL     1       0.870   9.685  23.365  0.00  0.00    +0.000 OA
ATOM     25  C   UNL     1       0.107   9.313  22.485  0.00  0.00    +0.000 C 
BRANCH  25  26
ATOM     26  O   UNL     1      -0.876   8.424  22.715  0.00  0.00    +0.000 OA
ATOM     27  H   UNL     1      -1.668   8.781  23.164  0.00  0.00    +0.000 HD
ENDBRANCH  25  26
ENDBRANCH  17  25
ENDBRANCH  15  19
ENDBRANCH   1  15
TORSDOF 6
ENDMDL
MODEL 2
REMARK VINA RESULT:      -7.9      1.109      1.130
REMARK  Name = 
REMARK  6 active torsions:
REMARK  status: ('A' for Active; 'I' for Inactive)
REMARK    1  A    between atoms: C_2  and  O_3
REMARK    2  A    between atoms: C_2  and  C_4
REMARK    3  A    between atoms: C_6  and  N_7
REMARK    4  A    between atoms: N_7  and  N_8
REMARK    5  A    between atoms: C_9  and  C_10
REMARK    6  A    between atoms: C_11  and  O_12
REMARK                            x       y       z     vdW  Elec       q    Type
REMARK                         _______ _______ _______ _____ _____    ______ ____
ROOT
ATOM      1  N   UNL     1       2.532   8.186  18.436  0.00  0.00    +0.000 NA
ATOM      2  C   UNL     1       2.207   6.946  18.227  0.00  0.00    +0.000 C 
ENDROOT
BRANCH   2   3
ATOM      3  C   UNL     1       3.146   5.865  18.628  0.00  0.00    +0.000 A 
ATOM      4  C   UNL     1       4.473   5.920  18.160  0.00  0.00    +0.000 A 
ATOM      5  C   UNL     1       5.382   4.922  18.478  0.00  0.00    +0.000 A 
ATOM      6  C   UNL     1       4.975   3.844  19.259  0.00  0.00    +0.000 A 
ATOM      7  C   UNL     1       3.662   3.763  19.746  0.00  0.00    +0.000 A 
ATOM      8  C   UNL     1       3.287   2.656  20.526  0.00  0.00    +0.000 A 
ATOM      9  C   UNL     1       1.994   2.537  21.027  0.00  0.00    +0.000 A 
ATOM     10  C   UNL     1       1.056   3.522  20.753  0.00  0.00    +0.000 A 
ATOM     11  C   UNL     1       1.410   4.627  19.972  0.00  0.00    +0.000 A 
ATOM     12  C   UNL     1       2.719   4.782  19.448  0.00  0.00    +0.000 A 
BRANCH   4  13
ATOM     13  O   UNL     1       4.958   6.941  17.384  0.00  0.00    +0.000 OA
ATOM     14  H   UNL     1       5.394   7.584  17.986  0.00  0.00    +0.000 HD
ENDBRANCH   4  13
ENDBRANCH   2   3
BRANCH   1  15
ATOM     15  N   UNL     1       1.642   9.132  18.050  0.00  0.00    +0.000 N 
ATOM     16  H   UNL     1       1.725   9.594  17.147  0.00  0.00    +0.000 HD
BRANCH  15  19
ATOM     17  C   UNL     1       0.257  10.086  21.393  0.00  0.00    +0.000 A 
ATOM     18  C   UNL     1       0.758   9.315  20.319  0.00  0.00    +0.000 A 
ATOM     19  C   UNL     1       1.009   9.888  19.063  0.00  0.00    +0.000 A 
ATOM     20  C   UNL     1       0.741  11.253  18.904  0.00  0.00    +0.000 A 
ATOM     21  C   UNL     1       0.231  12.023  19.952  0.00  0.00    +0.000 A 
ATOM     22  C   UNL     1      -0.008  11.446  21.198  0.00  0.00    +0.000 A 
ATOM     23 CL   UNL     1      -0.625  12.490  22.427  0.00  0.00    +0.000 Cl
BRANCH  17  25
ATOM     24  O   UNL     1       0.707   9.621  23.672  0.00  0.00    +0.000 OA
ATOM     25  C   UNL     1       0.044   9.367  22.676  0.00  0.00    +0.000 C 
BRANCH  25  26
ATOM     26  O   UNL     1      -0.982   8.497  22.700  0.00  0.00    +0.000 OA
ATOM     27  H   UNL     1      -0.768   7.604  23.039  0.00  0.00    +0.000 HD
ENDBRANCH  25  26
ENDBRANCH  17  25
ENDBRANCH  15  19
ENDBRANCH   1  15
TORSDOF 6
ENDMDL
MODEL 3
REMARK VINA RESULT:      -7.9      3.368      7.481
REMARK  Name = 
REMARK  6 active torsions:
REMARK  status: ('A' for Active; 'I' for Inactive)
REMARK    1  A    between atoms: C_2  and  O_3
REMARK    2  A    between atoms: C_2  and  C_4
REMARK    3  A    between atoms: C_6  and  N_7
REMARK    4  A    between atoms: N_7  and  N_8
REMARK    5  A    between atoms: C_9  and  C_10
REMARK    6  A    between atoms: C_11  and  O_12
REMARK                            x       y       z     vdW  Elec       q    Type
REMARK                         _______ _______ _______ _____ _____    ______ ____
ROOT
ATOM      1  N   UNL     1       0.668   8.839  21.047  0.00  0.00    +0.000 NA
ATOM      2  C   UNL     1       0.745   9.921  20.334  0.00  0.00    +0.000 C 
ENDROOT
BRANCH   2   3
ATOM      3  C   UNL     1      -0.468  10.760  20.144  0.00  0.00    +0.000 A 
ATOM      4  C   UNL     1      -0.854  11.629  21.182  0.00  0.00    +0.000 A 
ATOM      5  C   UNL     1      -1.994  12.412  21.071  0.00  0.00    +0.000 A 
ATOM      6  C   UNL     1      -2.776  12.327  19.922  0.00  0.00    +0.000 A 
ATOM      7  C   UNL     1      -2.417  11.476  18.867  0.00  0.00    +0.000 A 
ATOM      8  C   UNL     1      -3.234  11.412  17.726  0.00  0.00    +0.000 A 
ATOM      9  C   UNL     1      -2.914  10.579  16.659  0.00  0.00    +0.000 A 
ATOM     10  C   UNL     1      -1.771   9.795  16.717  0.00  0.00    +0.000 A 
ATOM     11  C   UNL     1      -0.949   9.839  17.848  0.00  0.00    +0.000 A 
ATOM     12  C   UNL     1      -1.244  10.678  18.952  0.00  0.00    +0.000 A 
BRANCH   4  13
ATOM     13  O   UNL     1      -0.147  11.774  22.348  0.00  0.00    +0.000 OA
ATOM     14  H   UNL     1       0.370  12.608  22.275  0.00  0.00    +0.000 HD
ENDBRANCH   4  13
ENDBRANCH   2   3
BRANCH   1  15
ATOM     15  N   UNL     1       1.801   8.108  21.187  0.00  0.00    +0.000 N 
ATOM     16  H   UNL     1       2.660   8.532  21.534  0.00  0.00    +0.000 HD
BRANCH  15  19
ATOM     17  C   UNL     1       1.578   4.624  19.840  0.00  0.00    +0.000 A 
ATOM     18  C   UNL     1       1.547   5.724  20.729  0.00  0.00    +0.000 A 
ATOM     19  C   UNL     1       1.975   6.999  20.329  0.00  0.00    +0.000 A 
ATOM     20  C   UNL     1       2.441   7.148  19.017  0.00  0.00    +0.000 A 
ATOM     21  C   UNL     1       2.491   6.068  18.133  0.00  0.00    +0.000 A 
ATOM     22  C   UNL     1       2.058   4.807  18.539  0.00  0.00    +0.000 A 
ATOM     23 CL   UNL     1       2.149   3.545  17.364  0.00  0.00    +0.000 Cl
BRANCH  17  25
ATOM     24  O   UNL     1       1.541   2.848  21.407  0.00  0.00    +0.000 OA
ATOM     25  C   UNL     1       1.087   3.329  20.378  0.00  0.00    +0.000 C 
BRANCH  25  26
ATOM     26  O   UNL     1       0.054   2.773  19.721  0.00  0.00    +0.000 OA
ATOM     27  H   UNL     1       0.295   2.143  19.013  0.00  0.00    +0.000 HD
ENDBRANCH  25  26
ENDBRANCH  17  25
ENDBRANCH  15  19
ENDBRANCH   1  15
TORSDOF 6
ENDMDL
MODEL 4
REMARK VINA RESULT:      -7.8      2.474      3.721
REMARK  Name = 
REMARK  6 active torsions:
REMARK  status: ('A' for Active; 'I' for Inactive)
REMARK    1  A    between atoms: C_2  and  O_3
REMARK    2  A    between atoms: C_2  and  C_4
REMARK    3  A    between atoms: C_6  and  N_7
REMARK    4  A    between atoms: N_7  and  N_8
REMARK    5  A    between atoms: C_9  and  C_10
REMARK    6  A    between atoms: C_11  and  O_12
REMARK                            x       y       z     vdW  Elec       q    Type
REMARK                         _______ _______ _______ _____ _____    ______ ____
ROOT
ATOM      1  N   UNL     1       1.744   6.912  20.419  0.00  0.00    +0.000 NA
ATOM      2  C   UNL     1       2.200   5.713  20.621  0.00  0.00    +0.000 C 
ENDROOT
BRANCH   2   3
ATOM      3  C   UNL     1       2.297   4.764  19.481  0.00  0.00    +0.000 A 
ATOM      4  C   UNL     1       1.402   3.678  19.431  0.00  0.00    +0.000 A 
ATOM      5  C   UNL     1       1.468   2.746  18.406  0.00  0.00    +0.000 A 
ATOM      6  C   UNL     1       2.441   2.877  17.420  0.00  0.00    +0.000 A 
ATOM      7  C   UNL     1       3.344   3.950  17.436  0.00  0.00    +0.000 A 
ATOM      8  C   UNL     1       4.317   4.045  16.427  0.00  0.00    +0.000 A 
ATOM      9  C   UNL     1       5.233   5.093  16.409  0.00  0.00    +0.000 A 
ATOM     10  C   UNL     1       5.190   6.061  17.402  0.00  0.00    +0.000 A 
ATOM     11  C   UNL     1       4.233   5.978  18.419  0.00  0.00    +0.000 A 
ATOM     12  C   UNL     1       3.284   4.926  18.467  0.00  0.00    +0.000 A 
BRANCH   4  13
ATOM     13  O   UNL     1       0.415   3.470  20.360  0.00  0.00    +0.000 OA
ATOM     14  H   UNL     1       0.857   3.325  21.227  0.00  0.00    +0.000 HD
ENDBRANCH   4  13
ENDBRANCH   2   3
BRANCH   1  15
ATOM     15  N   UNL     1       1.673   7.736  21.492  0.00  0.00    +0.000 N 
ATOM     16  H   UNL     1       1.764   7.374  22.439  0.00  0.00    +0.000 HD
BRANCH  15  19
ATOM     17  C   UNL     1      -0.293  10.510  19.929  0.00  0.00    +0.000 A 
ATOM     18  C   UNL     1       0.591   9.418  20.092  0.00  0.00    +0.000 A 
ATOM     19  C   UNL     1       0.903   8.914  21.363  0.00  0.00    +0.000 A 
ATOM     20  C   UNL     1       0.312   9.533  22.472  0.00  0.00    +0.000 A 
ATOM     21  C   UNL     1      -0.550  10.621  22.327  0.00  0.00    +0.000 A 
ATOM     22  C   UNL     1      -0.859  11.110  21.059  0.00  0.00    +0.000 A 
ATOM     23 CL   UNL     1      -1.946  12.450  20.991  0.00  0.00    +0.000 Cl
BRANCH  17  25
ATOM     24  O   UNL     1      -1.315  10.329  17.799  0.00  0.00    +0.000 OA
ATOM     25  C   UNL     1      -0.552  10.944  18.531  0.00  0.00    +0.000 C 
BRANCH  25  26
ATOM     26  O   UNL     1       0.023  12.101  18.158  0.00  0.00    +0.000 OA
ATOM     27  H   UNL     1       0.994  12.069  18.041  0.00  0.00    +0.000 HD
ENDBRANCH  25  26
ENDBRANCH  17  25
ENDBRANCH  15  19
ENDBRANCH   1  15
TORSDOF 6
ENDMDL
MODEL 5
REMARK VINA RESULT:      -7.8      3.719      7.380
REMARK  Name = 
REMARK  6 active torsions:
REMARK  status: ('A' for Active; 'I' for Inactive)
REMARK    1  A    between atoms: C_2  and  O_3
REMARK    2  A    between atoms: C_2  and  C_4
REMARK    3  A    between atoms: C_6  and  N_7
REMARK    4  A    between atoms: N_7  and  N_8
REMARK    5  A    between atoms: C_9  and  C_10
REMARK    6  A    between atoms: C_11  and  O_12
REMARK                            x       y       z     vdW  Elec       q    Type
REMARK                         _______ _______ _______ _____ _____    ______ ____
ROOT
ATOM      1  N   UNL     1       1.926   6.397  19.685  0.00  0.00    +0.000 NA
ATOM      2  C   UNL     1       2.299   7.594  20.023  0.00  0.00    +0.000 C 
ENDROOT
BRANCH   2   3
ATOM      3  C   UNL     1       1.373   8.738  19.808  0.00  0.00    +0.000 A 
ATOM      4  C   UNL     1       1.246   9.264  18.508  0.00  0.00    +0.000 A 
ATOM      5  C   UNL     1       0.420  10.350  18.256  0.00  0.00    +0.000 A 
ATOM      6  C   UNL     1      -0.281  10.937  19.305  0.00  0.00    +0.000 A 
ATOM      7  C   UNL     1      -0.181  10.434  20.610  0.00  0.00    +0.000 A 
ATOM      8  C   UNL     1      -0.900  11.058  21.644  0.00  0.00    +0.000 A 
ATOM      9  C   UNL     1      -0.826  10.591  22.953  0.00  0.00    +0.000 A 
ATOM     10  C   UNL     1      -0.030   9.493  23.248  0.00  0.00    +0.000 A 
ATOM     11  C   UNL     1       0.699   8.865  22.233  0.00  0.00    +0.000 A 
ATOM     12  C   UNL     1       0.645   9.312  20.888  0.00  0.00    +0.000 A 
BRANCH   4  13
ATOM     13  O   UNL     1       1.901   8.750  17.418  0.00  0.00    +0.000 OA
ATOM     14  H   UNL     1       2.194   9.511  16.869  0.00  0.00    +0.000 HD
ENDBRANCH   4  13
ENDBRANCH   2   3
BRANCH   1  15
ATOM     15  N   UNL     1       2.807   5.390  19.899  0.00  0.00    +0.000 N 
ATOM     16  H   UNL     1       2.982   5.037  20.838  0.00  0.00    +0.000 HD
BRANCH  15  19
ATOM     17  C   UNL     1       6.283   5.426  18.515  0.00  0.00    +0.000 A 
ATOM     18  C   UNL     1       5.168   5.678  19.346  0.00  0.00    +0.000 A 
ATOM     19  C   UNL     1       3.879   5.253  18.989  0.00  0.00    +0.000 A 
ATOM     20  C   UNL     1       3.731   4.572  17.775  0.00  0.00    +0.000 A 
ATOM     21  C   UNL     1       4.821   4.329  16.936  0.00  0.00    +0.000 A 
ATOM     22  C   UNL     1       6.099   4.750  17.304  0.00  0.00    +0.000 A 
ATOM     23 CL   UNL     1       7.378   4.387  16.203  0.00  0.00    +0.000 Cl
BRANCH  17  25
ATOM     24  O   UNL     1       8.136   6.903  18.529  0.00  0.00    +0.000 OA
ATOM     25  C   UNL     1       7.596   5.916  19.009  0.00  0.00    +0.000 C 
BRANCH  25  26
ATOM     26  O   UNL     1       8.103   5.268  20.074  0.00  0.00    +0.000 OA
ATOM     27  H   UNL     1       8.804   5.745  20.561  0.00  0.00    +0.000 HD
ENDBRANCH  25  26
ENDBRANCH  17  25
ENDBRANCH  15  19
ENDBRANCH   1  15
TORSDOF 6
ENDMDL
MODEL 6
REMARK VINA RESULT:      -7.8      3.344      7.376
REMARK  Name = 
REMARK  6 active torsions:
REMARK  status: ('A' for Active; 'I' for Inactive)
REMARK    1  A    between atoms: C_2  and  O_3
REMARK    2  A    between atoms: C_2  and  C_4
REMARK    3  A    between atoms: C_6  and  N_7
REMARK    4  A    between atoms: N_7  and  N_8
REMARK    5  A    between atoms: C_9  and  C_10
REMARK    6  A    between atoms: C_11  and  O_12
REMARK                            x       y       z     vdW  Elec       q    Type
REMARK                         _______ _______ _______ _____ _____    ______ ____
ROOT
ATOM      1  N   UNL     1       1.569   8.260  20.096  0.00  0.00    +0.000 NA
ATOM      2  C   UNL     1       1.363   9.321  19.376  0.00  0.00    +0.000 C 
ENDROOT
BRANCH   2   3
ATOM      3  C   UNL     1       0.229  10.223  19.709  0.00  0.00    +0.000 A 
ATOM      4  C   UNL     1       0.238  10.884  20.952  0.00  0.00    +0.000 A 
ATOM      5  C   UNL     1      -0.809  11.713  21.327  0.00  0.00    +0.000 A 
ATOM      6  C   UNL     1      -1.891  11.882  20.468  0.00  0.00    +0.000 A 
ATOM      7  C   UNL     1      -1.930  11.243  19.221  0.00  0.00    +0.000 A 
ATOM      8  C   UNL     1      -3.042  11.434  18.384  0.00  0.00    +0.000 A 
ATOM      9  C   UNL     1      -3.119  10.817  17.140  0.00  0.00    +0.000 A 
ATOM     10  C   UNL     1      -2.084   9.996  16.714  0.00  0.00    +0.000 A 
ATOM     11  C   UNL     1      -0.972   9.788  17.537  0.00  0.00    +0.000 A 
ATOM     12  C   UNL     1      -0.860  10.404  18.809  0.00  0.00    +0.000 A 
BRANCH   4  13
ATOM     13  O   UNL     1       1.260  10.771  21.859  0.00  0.00    +0.000 OA
ATOM     14  H   UNL     1       1.827  11.569  21.761  0.00  0.00    +0.000 HD
ENDBRANCH   4  13
ENDBRANCH   2   3
BRANCH   1  15
ATOM     15  N   UNL     1       2.614   7.470  19.748  0.00  0.00    +0.000 N 
ATOM     16  H   UNL     1       3.428   7.855  19.272  0.00  0.00    +0.000 HD
BRANCH  15  19
ATOM     17  C   UNL     1       1.980   3.828  20.330  0.00  0.00    +0.000 A 
ATOM     18  C   UNL     1       2.380   5.169  20.532  0.00  0.00    +0.000 A 
ATOM     19  C   UNL     1       2.346   6.107  19.488  0.00  0.00    +0.000 A 
ATOM     20  C   UNL     1       1.907   5.669  18.233  0.00  0.00    +0.000 A 
ATOM     21  C   UNL     1       1.523   4.344  18.015  0.00  0.00    +0.000 A 
ATOM     22  C   UNL     1       1.554   3.422  19.061  0.00  0.00    +0.000 A 
ATOM     23 CL   UNL     1       1.045   1.815  18.687  0.00  0.00    +0.000 Cl
BRANCH  17  25
ATOM     24  O   UNL     1       1.064   2.698  22.200  0.00  0.00    +0.000 OA
ATOM     25  C   UNL     1       2.049   2.935  21.515  0.00  0.00    +0.000 C 
BRANCH  25  26
ATOM     26  O   UNL     1       3.232   2.331  21.728  0.00  0.00    +0.000 OA
ATOM     27  H   UNL     1       3.720   2.066  20.922  0.00  0.00    +0.000 HD
ENDBRANCH  25  26
ENDBRANCH  17  25
ENDBRANCH  15  19
ENDBRANCH   1  15
TORSDOF 6
ENDMDL
MODEL 7
REMARK VINA RESULT:      -7.8      2.974      7.889
REMARK  Name = 
REMARK  6 active torsions:
REMARK  status: ('A' for Active; 'I' for Inactive)
REMARK    1  A    between atoms: C_2  and  O_3
REMARK    2  A    between atoms: C_2  and  C_4
REMARK    3  A    between atoms: C_6  and  N_7
REMARK    4  A    between atoms: N_7  and  N_8
REMARK    5  A    between atoms: C_9  and  C_10
REMARK    6  A    between atoms: C_11  and  O_12
REMARK                            x       y       z     vdW  Elec       q    Type
REMARK                         _______ _______ _______ _____ _____    ______ ____
ROOT
ATOM      1  N   UNL     1       1.360   8.217  20.841  0.00  0.00    +0.000 NA
ATOM      2  C   UNL     1       0.177   8.429  21.331  0.00  0.00    +0.000 C 
ENDROOT
BRANCH   2   3
ATOM      3  C   UNL     1      -0.348   9.818  21.404  0.00  0.00    +0.000 A 
ATOM      4  C   UNL     1      -0.389  10.457  22.658  0.00  0.00    +0.000 A 
ATOM      5  C   UNL     1      -0.897  11.741  22.788  0.00  0.00    +0.000 A 
ATOM      6  C   UNL     1      -1.386  12.403  21.666  0.00  0.00    +0.000 A 
ATOM      7  C   UNL     1      -1.354  11.798  20.401  0.00  0.00    +0.000 A 
ATOM      8  C   UNL     1      -1.862  12.496  19.292  0.00  0.00    +0.000 A 
ATOM      9  C   UNL     1      -1.851  11.930  18.021  0.00  0.00    +0.000 A 
ATOM     10  C   UNL     1      -1.332  10.656  17.840  0.00  0.00    +0.000 A 
ATOM     11  C   UNL     1      -0.829   9.943  18.933  0.00  0.00    +0.000 A 
ATOM     12  C   UNL     1      -0.822  10.490  20.241  0.00  0.00    +0.000 A 
BRANCH   4  13
ATOM     13  O   UNL     1       0.067   9.879  23.815  0.00  0.00    +0.000 OA
ATOM     14  H   UNL     1       1.033  10.054  23.868  0.00  0.00    +0.000 HD
ENDBRANCH   4  13
ENDBRANCH   2   3
BRANCH   1  15
ATOM     15  N   UNL     1       1.792   6.933  20.800  0.00  0.00    +0.000 N 
ATOM     16  H   UNL     1       1.900   6.388  21.653  0.00  0.00    +0.000 HD
BRANCH  15  19
ATOM     17  C   UNL     1       3.892   4.818  18.538  0.00  0.00    +0.000 A 
ATOM     18  C   UNL     1       3.163   5.262  19.665  0.00  0.00    +0.000 A 
ATOM     19  C   UNL     1       2.636   6.560  19.730  0.00  0.00    +0.000 A 
ATOM     20  C   UNL     1       2.861   7.409  18.639  0.00  0.00    +0.000 A 
ATOM     21  C   UNL     1       3.592   6.990  17.526  0.00  0.00    +0.000 A 
ATOM     22  C   UNL     1       4.106   5.695  17.469  0.00  0.00    +0.000 A 
ATOM     23 CL   UNL     1       4.982   5.274  16.042  0.00  0.00    +0.000 Cl
BRANCH  17  25
ATOM     24  O   UNL     1       3.819   2.515  17.986  0.00  0.00    +0.000 OA
ATOM     25  C   UNL     1       4.388   3.418  18.584  0.00  0.00    +0.000 C 
BRANCH  25  26
ATOM     26  O   UNL     1       5.548   3.226  19.238  0.00  0.00    +0.000 OA
ATOM     27  H   UNL     1       6.343   3.590  18.800  0.00  0.00    +0.000 HD
ENDBRANCH  25  26
ENDBRANCH  17  25
ENDBRANCH  15  19
ENDBRANCH   1  15
TORSDOF 6
ENDMDL
MODEL 8
REMARK VINA RESULT:      -7.7      1.620      2.970
REMARK  Name = 
REMARK  6 active torsions:
REMARK  status: ('A' for Active; 'I' for Inactive)
REMARK    1  A    between atoms: C_2  and  O_3
REMARK    2  A    between atoms: C_2  and  C_4
REMARK    3  A    between atoms: C_6  and  N_7
REMARK    4  A    between atoms: N_7  and  N_8
REMARK    5  A    between atoms: C_9  and  C_10
REMARK    6  A    between atoms: C_11  and  O_12
REMARK                            x       y       z     vdW  Elec       q    Type
REMARK                         _______ _______ _______ _____ _____    ______ ____
ROOT
ATOM      1  N   UNL     1       1.831   8.330  18.068  0.00  0.00    +0.000 NA
ATOM      2  C   UNL     1       3.085   8.002  18.002  0.00  0.00    +0.000 C 
ENDROOT
BRANCH   2   3
ATOM      3  C   UNL     1       3.480   6.579  18.176  0.00  0.00    +0.000 A 
ATOM      4  C   UNL     1       3.050   5.898  19.331  0.00  0.00    +0.000 A 
ATOM      5  C   UNL     1       3.415   4.580  19.559  0.00  0.00    +0.000 A 
ATOM      6  C   UNL     1       4.229   3.924  18.640  0.00  0.00    +0.000 A 
ATOM      7  C   UNL     1       4.670   4.571  17.476  0.00  0.00    +0.000 A 
ATOM      8  C   UNL     1       5.496   3.878  16.576  0.00  0.00    +0.000 A 
ATOM      9  C   UNL     1       5.956   4.484  15.411  0.00  0.00    +0.000 A 
ATOM     10  C   UNL     1       5.599   5.796  15.131  0.00  0.00    +0.000 A 
ATOM     11  C   UNL     1       4.783   6.504  16.020  0.00  0.00    +0.000 A 
ATOM     12  C   UNL     1       4.294   5.916  17.214  0.00  0.00    +0.000 A 
BRANCH   4  13
ATOM     13  O   UNL     1       2.250   6.467  20.289  0.00  0.00    +0.000 OA
ATOM     14  H   UNL     1       2.663   6.281  21.162  0.00  0.00    +0.000 HD
ENDBRANCH   4  13
ENDBRANCH   2   3
BRANCH   1  15
ATOM     15  N   UNL     1       1.525   9.640  17.905  0.00  0.00    +0.000 N 
ATOM     16  H   UNL     1       2.080  10.238  17.295  0.00  0.00    +0.000 HD
BRANCH  15  19
ATOM     17  C   UNL     1       0.305  10.395  21.361  0.00  0.00    +0.000 A 
ATOM     18  C   UNL     1       0.821   9.702  20.242  0.00  0.00    +0.000 A 
ATOM     19  C   UNL     1       0.876  10.299  18.974  0.00  0.00    +0.000 A 
ATOM     20  C   UNL     1       0.396  11.608  18.850  0.00  0.00    +0.000 A 
ATOM     21  C   UNL     1      -0.130  12.300  19.942  0.00  0.00    +0.000 A 
ATOM     22  C   UNL     1      -0.174  11.700  21.200  0.00  0.00    +0.000 A 
ATOM     23 CL   UNL     1      -0.831  12.647  22.485  0.00  0.00    +0.000 Cl
BRANCH  17  25
ATOM     24  O   UNL     1       1.314   9.596  23.350  0.00  0.00    +0.000 OA
ATOM     25  C   UNL     1       0.312   9.659  22.652  0.00  0.00    +0.000 C 
BRANCH  25  26
ATOM     26  O   UNL     1      -0.871   9.156  23.048  0.00  0.00    +0.000 OA
ATOM     27  H   UNL     1      -1.657   9.684  22.802  0.00  0.00    +0.000 HD
ENDBRANCH  25  26
ENDBRANCH  17  25
ENDBRANCH  15  19
ENDBRANCH   1  15
TORSDOF 6
ENDMDL
MODEL 9
REMARK VINA RESULT:      -7.7      3.110      7.741
REMARK  Name = 
REMARK  6 active torsions:
REMARK  status: ('A' for Active; 'I' for Inactive)
REMARK    1  A    between atoms: C_2  and  O_3
REMARK    2  A    between atoms: C_2  and  C_4
REMARK    3  A    between atoms: C_6  and  N_7
REMARK    4  A    between atoms: N_7  and  N_8
REMARK    5  A    between atoms: C_9  and  C_10
REMARK    6  A    between atoms: C_11  and  O_12
REMARK                            x       y       z     vdW  Elec       q    Type
REMARK                         _______ _______ _______ _____ _____    ______ ____
ROOT
ATOM      1  N   UNL     1       1.400   8.955  19.170  0.00  0.00    +0.000 NA
ATOM      2  C   UNL     1       0.788   9.675  18.279  0.00  0.00    +0.000 C 
ENDROOT
BRANCH   2   3
ATOM      3  C   UNL     1      -0.271  10.627  18.709  0.00  0.00    +0.000 A 
ATOM      4  C   UNL     1      -0.010  11.473  19.804  0.00  0.00    +0.000 A 
ATOM      5  C   UNL     1      -0.973  12.358  20.266  0.00  0.00    +0.000 A 
ATOM      6  C   UNL     1      -2.219  12.401  19.648  0.00  0.00    +0.000 A 
ATOM      7  C   UNL     1      -2.510  11.576  18.551  0.00  0.00    +0.000 A 
ATOM      8  C   UNL     1      -3.781  11.644  17.958  0.00  0.00    +0.000 A 
ATOM      9  C   UNL     1      -4.109  10.841  16.870  0.00  0.00    +0.000 A 
ATOM     10  C   UNL     1      -3.169   9.956  16.359  0.00  0.00    +0.000 A 
ATOM     11  C   UNL     1      -1.901   9.870  16.943  0.00  0.00    +0.000 A 
ATOM     12  C   UNL     1      -1.532  10.675  18.050  0.00  0.00    +0.000 A 
BRANCH   4  13
ATOM     13  O   UNL     1       1.186  11.494  20.473  0.00  0.00    +0.000 OA
ATOM     14  H   UNL     1       1.715  12.237  20.104  0.00  0.00    +0.000 HD
ENDBRANCH   4  13
ENDBRANCH   2   3
BRANCH   1  15
ATOM     15  N   UNL     1       2.354   8.101  18.725  0.00  0.00    +0.000 N 
ATOM     16  H   UNL     1       2.842   8.270  17.848  0.00  0.00    +0.000 HD
BRANCH  15  19
ATOM     17  C   UNL     1       2.670   4.374  18.633  0.00  0.00    +0.000 A 
ATOM     18  C   UNL     1       2.626   5.727  18.226  0.00  0.00    +0.000 A 
ATOM     19  C   UNL     1       2.253   6.746  19.114  0.00  0.00    +0.000 A 
ATOM     20  C   UNL     1       1.918   6.379  20.423  0.00  0.00    +0.000 A 
ATOM     21  C   UNL     1       1.942   5.045  20.836  0.00  0.00    +0.000 A 
ATOM     22  C   UNL     1       2.321   4.041  19.946  0.00  0.00    +0.000 A 
ATOM     23 CL   UNL     1       2.330   2.427  20.562  0.00  0.00    +0.000 Cl
BRANCH  17  25
ATOM     24  O   UNL     1       2.348   3.053  16.693  0.00  0.00    +0.000 OA
ATOM     25  C   UNL     1       3.092   3.389  17.604  0.00  0.00    +0.000 C 
BRANCH  25  26
ATOM     26  O   UNL     1       4.368   2.969  17.679  0.00  0.00    +0.000 OA
ATOM     27  H   UNL     1       4.919   3.417  18.353  0.00  0.00    +0.000 HD
ENDBRANCH  25  26
ENDBRANCH  17  25
ENDBRANCH  15  19
ENDBRANCH   1  15
TORSDOF 6
ENDMDL
