MODEL 1
REMARK VINA RESULT:      -7.6      0.000      0.000
REMARK  Name = 
REMARK  4 active torsions:
REMARK  status: ('A' for Active; 'I' for Inactive)
REMARK    1  A    between atoms: O_1  and  C_2
REMARK    2  A    between atoms: C_5  and  C_6
REMARK    3  A    between atoms: C_8  and  C_9
REMARK    4  A    between atoms: C_16  and  C_17
REMARK                            x       y       z     vdW  Elec       q    Type
REMARK                         _______ _______ _______ _____ _____    ______ ____
ROOT
ATOM      1  C   UNL     1       4.664   4.671  17.486  0.00  0.00    +0.000 A 
ATOM      2  C   UNL     1       4.803   4.162  16.195  0.00  0.00    +0.000 A 
ATOM      3  C   UNL     1       5.763   4.682  15.321  0.00  0.00    +0.000 A 
ATOM      4  C   UNL     1       6.571   5.710  15.816  0.00  0.00    +0.000 A 
ATOM      5  C   UNL     1       6.409   6.177  17.121  0.00  0.00    +0.000 A 
ATOM      6  N   UNL     1       5.475   5.654  17.953  0.00  0.00    +0.000 NA
ENDROOT
BRANCH   5   7
ATOM      7  C   UNL     1       7.243   7.266  17.675  0.00  0.00    +0.000 A 
ATOM      8  C   UNL     1       8.151   7.039  18.730  0.00  0.00    +0.000 A 
ATOM      9  C   UNL     1       8.915   8.076  19.276  0.00  0.00    +0.000 A 
ATOM     10  C   UNL     1       8.794   9.365  18.765  0.00  0.00    +0.000 A 
ATOM     11 CL   UNL     1       9.726  10.640  19.441  0.00  0.00    +0.000 Cl
ATOM     12  C   UNL     1       7.922   9.619  17.711  0.00  0.00    +0.000 A 
ATOM     13  C   UNL     1       7.157   8.577  17.171  0.00  0.00    +0.000 A 
ENDBRANCH   5   7
BRANCH   1  17
ATOM     14  C   UNL     1       1.631   3.248  20.178  0.00  0.00    +0.000 A 
ATOM     15  C   UNL     1       1.896   2.549  19.008  0.00  0.00    +0.000 A 
ATOM     16  C   UNL     1       2.888   3.017  18.136  0.00  0.00    +0.000 A 
ATOM     17  C   UNL     1       3.622   4.185  18.414  0.00  0.00    +0.000 A 
ATOM     18  C   UNL     1       3.328   4.859  19.617  0.00  0.00    +0.000 A 
ATOM     19  C   UNL     1       2.339   4.399  20.490  0.00  0.00    +0.000 A 
BRANCH  14  20
ATOM     20  O   UNL     1       0.680   2.833  21.060  0.00  0.00    +0.000 OA
ATOM     21  H   UNL     1       1.099   2.247  21.712  0.00  0.00    +0.000 HD
ENDBRANCH  14  20
ENDBRANCH   1  17
BRANCH   3  22
ATOM     22  C   UNL     1       5.908   4.175  13.938  0.00  0.00    +0.000 A 
ATOM     23  C   UNL     1       7.125   4.296  13.240  0.00  0.00    +0.000 A 
ATOM     24  C   UNL     1       7.267   3.825  11.931  0.00  0.00    +0.000 A 
ATOM     25  C   UNL     1       6.195   3.207  11.293  0.00  0.00    +0.000 A 
ATOM     26  C   UNL     1       4.986   3.062  11.963  0.00  0.00    +0.000 A 
ATOM     27  C   UNL     1       4.844   3.546  13.268  0.00  0.00    +0.000 A 
ENDBRANCH   3  22
TORSDOF 4
ENDMDL
MODEL 2
REMARK VINA RESULT:      -7.6      8.045     10.349
REMARK  Name = 
REMARK  4 active torsions:
REMARK  status: ('A' for Active; 'I' for Inactive)
REMARK    1  A    between atoms: O_1  and  C_2
REMARK    2  A    between atoms: C_5  and  C_6
REMARK    3  A    between atoms: C_8  and  C_9
REMARK    4  A    between atoms: C_16  and  C_17
REMARK                            x       y       z     vdW  Elec       q    Type
REMARK                         _______ _______ _______ _____ _____    ______ ____
ROOT
ATOM      1  C   UNL     1      -1.237  11.759  18.313  0.00  0.00    +0.000 A 
ATOM      2  C   UNL     1      -0.537  12.964  18.291  0.00  0.00    +0.000 A 
ATOM      3  C   UNL     1       0.840  12.996  18.532  0.00  0.00    +0.000 A 
ATOM      4  C   UNL     1       1.464  11.767  18.772  0.00  0.00    +0.000 A 
ATOM      5  C   UNL     1       0.727  10.583  18.767  0.00  0.00    +0.000 A 
ATOM      6  N   UNL     1      -0.607  10.575  18.526  0.00  0.00    +0.000 NA
ENDROOT
BRANCH   5   7
ATOM      7  C   UNL     1       1.353   9.267  19.022  0.00  0.00    +0.000 A 
ATOM      8  C   UNL     1       2.058   8.575  18.016  0.00  0.00    +0.000 A 
ATOM      9  C   UNL     1       2.621   7.316  18.249  0.00  0.00    +0.000 A 
ATOM     10  C   UNL     1       2.500   6.727  19.503  0.00  0.00    +0.000 A 
ATOM     11 CL   UNL     1       3.184   5.176  19.786  0.00  0.00    +0.000 Cl
ATOM     12  C   UNL     1       1.828   7.391  20.524  0.00  0.00    +0.000 A 
ATOM     13  C   UNL     1       1.264   8.651  20.284  0.00  0.00    +0.000 A 
ENDBRANCH   5   7
BRANCH   1  17
ATOM     14  C   UNL     1      -5.493  11.575  17.741  0.00  0.00    +0.000 A 
ATOM     15  C   UNL     1      -4.642  11.211  16.706  0.00  0.00    +0.000 A 
ATOM     16  C   UNL     1      -3.256  11.270  16.900  0.00  0.00    +0.000 A 
ATOM     17  C   UNL     1      -2.701  11.697  18.120  0.00  0.00    +0.000 A 
ATOM     18  C   UNL     1      -3.599  12.048  19.149  0.00  0.00    +0.000 A 
ATOM     19  C   UNL     1      -4.983  11.994  18.962  0.00  0.00    +0.000 A 
BRANCH  14  20
ATOM     20  O   UNL     1      -6.847  11.532  17.605  0.00  0.00    +0.000 OA
ATOM     21  H   UNL     1      -7.141  10.616  17.745  0.00  0.00    +0.000 HD
ENDBRANCH  14  20
ENDBRANCH   1  17
BRANCH   3  22
ATOM     22  C   UNL     1       1.597  14.268  18.541  0.00  0.00    +0.000 A 
ATOM     23  C   UNL     1       2.941  14.321  18.122  0.00  0.00    +0.000 A 
ATOM     24  C   UNL     1       3.663  15.519  18.135  0.00  0.00    +0.000 A 
ATOM     25  C   UNL     1       3.052  16.697  18.554  0.00  0.00    +0.000 A 
ATOM     26  C   UNL     1       1.723  16.676  18.961  0.00  0.00    +0.000 A 
ATOM     27  C   UNL     1       1.007  15.474  18.959  0.00  0.00    +0.000 A 
ENDBRANCH   3  22
TORSDOF 4
ENDMDL
MODEL 3
REMARK VINA RESULT:      -7.6      0.441      1.387
REMARK  Name = 
REMARK  4 active torsions:
REMARK  status: ('A' for Active; 'I' for Inactive)
REMARK    1  A    between atoms: O_1  and  C_2
REMARK    2  A    between atoms: C_5  and  C_6
REMARK    3  A    between atoms: C_8  and  C_9
REMARK    4  A    between atoms: C_16  and  C_17
REMARK                            x       y       z     vdW  Elec       q    Type
REMARK                         _______ _______ _______ _____ _____    ______ ____
ROOT
ATOM      1  C   UNL     1       4.634   4.930  17.293  0.00  0.00    +0.000 A 
ATOM      2  C   UNL     1       4.870   4.395  16.028  0.00  0.00    +0.000 A 
ATOM      3  C   UNL     1       5.912   4.879  15.230  0.00  0.00    +0.000 A 
ATOM      4  C   UNL     1       6.699   5.898  15.776  0.00  0.00    +0.000 A 
ATOM      5  C   UNL     1       6.437   6.391  17.054  0.00  0.00    +0.000 A 
ATOM      6  N   UNL     1       5.425   5.903  17.812  0.00  0.00    +0.000 NA
ENDROOT
BRANCH   5   7
ATOM      7  C   UNL     1       7.247   7.472  17.660  0.00  0.00    +0.000 A 
ATOM      8  C   UNL     1       7.132   8.811  17.235  0.00  0.00    +0.000 A 
ATOM      9  C   UNL     1       7.921   9.826  17.786  0.00  0.00    +0.000 A 
ATOM     10  C   UNL     1       8.837   9.521  18.787  0.00  0.00    +0.000 A 
ATOM     11 CL   UNL     1       9.813  10.766  19.457  0.00  0.00    +0.000 Cl
ATOM     12  C   UNL     1       8.963   8.212  19.244  0.00  0.00    +0.000 A 
ATOM     13  C   UNL     1       8.171   7.200  18.686  0.00  0.00    +0.000 A 
ENDBRANCH   5   7
BRANCH   1  17
ATOM     14  C   UNL     1       1.361   3.632  19.758  0.00  0.00    +0.000 A 
ATOM     15  C   UNL     1       2.335   4.467  20.290  0.00  0.00    +0.000 A 
ATOM     16  C   UNL     1       3.397   4.889  19.480  0.00  0.00    +0.000 A 
ATOM     17  C   UNL     1       3.507   4.482  18.138  0.00  0.00    +0.000 A 
ATOM     18  C   UNL     1       2.492   3.642  17.634  0.00  0.00    +0.000 A 
ATOM     19  C   UNL     1       1.430   3.216  18.436  0.00  0.00    +0.000 A 
BRANCH  14  20
ATOM     20  O   UNL     1       0.307   3.198  20.502  0.00  0.00    +0.000 OA
ATOM     21  H   UNL     1       0.649   2.816  21.328  0.00  0.00    +0.000 HD
ENDBRANCH  14  20
ENDBRANCH   1  17
BRANCH   3  22
ATOM     22  C   UNL     1       6.162   4.345  13.872  0.00  0.00    +0.000 A 
ATOM     23  C   UNL     1       7.293   4.737  13.130  0.00  0.00    +0.000 A 
ATOM     24  C   UNL     1       7.531   4.241  11.845  0.00  0.00    +0.000 A 
ATOM     25  C   UNL     1       6.648   3.328  11.275  0.00  0.00    +0.000 A 
ATOM     26  C   UNL     1       5.531   2.914  11.990  0.00  0.00    +0.000 A 
ATOM     27  C   UNL     1       5.288   3.422  13.271  0.00  0.00    +0.000 A 
ENDBRANCH   3  22
TORSDOF 4
ENDMDL
MODEL 4
REMARK VINA RESULT:      -7.6      8.110     10.826
REMARK  Name = 
REMARK  4 active torsions:
REMARK  status: ('A' for Active; 'I' for Inactive)
REMARK    1  A    between atoms: O_1  and  C_2
REMARK    2  A    between atoms: C_5  and  C_6
REMARK    3  A    between atoms: C_8  and  C_9
REMARK    4  A    between atoms: C_16  and  C_17
REMARK                            x       y       z     vdW  Elec       q    Type
REMARK                         _______ _______ _______ _____ _____    ______ ____
ROOT
ATOM      1  C   UNL     1       0.807  12.667  18.606  0.00  0.00    +0.000 A 
ATOM      2  C   UNL     1      -0.574  12.754  18.434  0.00  0.00    +0.000 A 
ATOM      3  C   UNL     1      -1.366  11.600  18.415  0.00  0.00    +0.000 A 
ATOM      4  C   UNL     1      -0.703  10.382  18.594  0.00  0.00    +0.000 A 
ATOM      5  C   UNL     1       0.678  10.344  18.780  0.00  0.00    +0.000 A 
ATOM      6  N   UNL     1       1.425  11.475  18.801  0.00  0.00    +0.000 NA
ENDROOT
BRANCH   5   7
ATOM      7  C   UNL     1       1.412   9.072  18.968  0.00  0.00    +0.000 A 
ATOM      8  C   UNL     1       2.153   8.484  17.922  0.00  0.00    +0.000 A 
ATOM      9  C   UNL     1       2.818   7.265  18.092  0.00  0.00    +0.000 A 
ATOM     10  C   UNL     1       2.764   6.614  19.320  0.00  0.00    +0.000 A 
ATOM     11 CL   UNL     1       3.573   5.112  19.524  0.00  0.00    +0.000 Cl
ATOM     12  C   UNL     1       2.057   7.176  20.378  0.00  0.00    +0.000 A 
ATOM     13  C   UNL     1       1.390   8.396  20.201  0.00  0.00    +0.000 A 
ENDBRANCH   5   7
BRANCH   1  17
ATOM     14  C   UNL     1       3.351  16.130  18.509  0.00  0.00    +0.000 A 
ATOM     15  C   UNL     1       3.859  14.891  18.142  0.00  0.00    +0.000 A 
ATOM     16  C   UNL     1       3.023  13.767  18.173  0.00  0.00    +0.000 A 
ATOM     17  C   UNL     1       1.678  13.861  18.574  0.00  0.00    +0.000 A 
ATOM     18  C   UNL     1       1.199  15.138  18.930  0.00  0.00    +0.000 A 
ATOM     19  C   UNL     1       2.027  16.263  18.903  0.00  0.00    +0.000 A 
BRANCH  14  20
ATOM     20  O   UNL     1       4.120  17.253  18.493  0.00  0.00    +0.000 OA
ATOM     21  H   UNL     1       3.561  18.014  18.722  0.00  0.00    +0.000 HD
ENDBRANCH  14  20
ENDBRANCH   1  17
BRANCH   3  22
ATOM     22  C   UNL     1      -2.829  11.667  18.205  0.00  0.00    +0.000 A 
ATOM     23  C   UNL     1      -3.693  12.110  19.225  0.00  0.00    +0.000 A 
ATOM     24  C   UNL     1      -5.078  12.169  19.036  0.00  0.00    +0.000 A 
ATOM     25  C   UNL     1      -5.630  11.799  17.813  0.00  0.00    +0.000 A 
ATOM     26  C   UNL     1      -4.800  11.371  16.784  0.00  0.00    +0.000 A 
ATOM     27  C   UNL     1      -3.416  11.301  16.981  0.00  0.00    +0.000 A 
ENDBRANCH   3  22
TORSDOF 4
ENDMDL
MODEL 5
REMARK VINA RESULT:      -7.6      8.043     10.350
REMARK  Name = 
REMARK  4 active torsions:
REMARK  status: ('A' for Active; 'I' for Inactive)
REMARK    1  A    between atoms: O_1  and  C_2
REMARK    2  A    between atoms: C_5  and  C_6
REMARK    3  A    between atoms: C_8  and  C_9
REMARK    4  A    between atoms: C_16  and  C_17
REMARK                            x       y       z     vdW  Elec       q    Type
REMARK                         _______ _______ _______ _____ _____    ______ ____
ROOT
ATOM      1  C   UNL     1      -1.236  11.766  18.298  0.00  0.00    +0.000 A 
ATOM      2  C   UNL     1      -0.533  12.969  18.286  0.00  0.00    +0.000 A 
ATOM      3  C   UNL     1       0.846  12.995  18.525  0.00  0.00    +0.000 A 
ATOM      4  C   UNL     1       1.466  11.762  18.751  0.00  0.00    +0.000 A 
ATOM      5  C   UNL     1       0.726  10.580  18.736  0.00  0.00    +0.000 A 
ATOM      6  N   UNL     1      -0.609  10.579  18.498  0.00  0.00    +0.000 NA
ENDROOT
BRANCH   5   7
ATOM      7  C   UNL     1       1.349   9.259  18.976  0.00  0.00    +0.000 A 
ATOM      8  C   UNL     1       1.265   8.618  20.229  0.00  0.00    +0.000 A 
ATOM      9  C   UNL     1       1.883   7.385  20.465  0.00  0.00    +0.000 A 
ATOM     10  C   UNL     1       2.590   6.761  19.442  0.00  0.00    +0.000 A 
ATOM     11 CL   UNL     1       3.357   5.252  19.734  0.00  0.00    +0.000 Cl
ATOM     12  C   UNL     1       2.677   7.358  18.188  0.00  0.00    +0.000 A 
ATOM     13  C   UNL     1       2.058   8.594  17.959  0.00  0.00    +0.000 A 
ENDBRANCH   5   7
BRANCH   1  17
ATOM     14  C   UNL     1      -5.493  11.600  17.734  0.00  0.00    +0.000 A 
ATOM     15  C   UNL     1      -4.646  11.231  16.697  0.00  0.00    +0.000 A 
ATOM     16  C   UNL     1      -3.259  11.285  16.889  0.00  0.00    +0.000 A 
ATOM     17  C   UNL     1      -2.700  11.709  18.108  0.00  0.00    +0.000 A 
ATOM     18  C   UNL     1      -3.595  12.066  19.137  0.00  0.00    +0.000 A 
ATOM     19  C   UNL     1      -4.979  12.017  18.953  0.00  0.00    +0.000 A 
BRANCH  14  20
ATOM     20  O   UNL     1      -6.848  11.562  17.599  0.00  0.00    +0.000 OA
ATOM     21  H   UNL     1      -7.086  10.756  17.111  0.00  0.00    +0.000 HD
ENDBRANCH  14  20
ENDBRANCH   1  17
BRANCH   3  22
ATOM     22  C   UNL     1       1.606  14.264  18.545  0.00  0.00    +0.000 A 
ATOM     23  C   UNL     1       1.009  15.467  18.969  0.00  0.00    +0.000 A 
ATOM     24  C   UNL     1       1.720  16.671  18.983  0.00  0.00    +0.000 A 
ATOM     25  C   UNL     1       3.054  16.697  18.587  0.00  0.00    +0.000 A 
ATOM     26  C   UNL     1       3.673  15.522  18.176  0.00  0.00    +0.000 A 
ATOM     27  C   UNL     1       2.955  14.322  18.150  0.00  0.00    +0.000 A 
ENDBRANCH   3  22
TORSDOF 4
ENDMDL
MODEL 6
REMARK VINA RESULT:      -7.6      0.141      1.341
REMARK  Name = 
REMARK  4 active torsions:
REMARK  status: ('A' for Active; 'I' for Inactive)
REMARK    1  A    between atoms: O_1  and  C_2
REMARK    2  A    between atoms: C_5  and  C_6
REMARK    3  A    between atoms: C_8  and  C_9
REMARK    4  A    between atoms: C_16  and  C_17
REMARK                            x       y       z     vdW  Elec       q    Type
REMARK                         _______ _______ _______ _____ _____    ______ ____
ROOT
ATOM      1  C   UNL     1       4.571   4.719  17.411  0.00  0.00    +0.000 A 
ATOM      2  C   UNL     1       4.746   4.197  16.130  0.00  0.00    +0.000 A 
ATOM      3  C   UNL     1       5.732   4.706  15.279  0.00  0.00    +0.000 A 
ATOM      4  C   UNL     1       6.531   5.735  15.788  0.00  0.00    +0.000 A 
ATOM      5  C   UNL     1       6.332   6.215  17.083  0.00  0.00    +0.000 A 
ATOM      6  N   UNL     1       5.372   5.703  17.892  0.00  0.00    +0.000 NA
ENDROOT
BRANCH   5   7
ATOM      7  C   UNL     1       7.155   7.305  17.651  0.00  0.00    +0.000 A 
ATOM      8  C   UNL     1       7.032   8.637  17.202  0.00  0.00    +0.000 A 
ATOM      9  C   UNL     1       7.834   9.661  17.717  0.00  0.00    +0.000 A 
ATOM     10  C   UNL     1       8.770   9.374  18.705  0.00  0.00    +0.000 A 
ATOM     11 CL   UNL     1       9.761  10.631  19.331  0.00  0.00    +0.000 Cl
ATOM     12  C   UNL     1       8.903   8.075  19.185  0.00  0.00    +0.000 A 
ATOM     13  C   UNL     1       8.099   7.053  18.663  0.00  0.00    +0.000 A 
ENDBRANCH   5   7
BRANCH   1  17
ATOM     14  C   UNL     1       1.457   3.331  20.028  0.00  0.00    +0.000 A 
ATOM     15  C   UNL     1       1.802   2.583  18.910  0.00  0.00    +0.000 A 
ATOM     16  C   UNL     1       2.820   3.040  18.063  0.00  0.00    +0.000 A 
ATOM     17  C   UNL     1       3.501   4.245  18.313  0.00  0.00    +0.000 A 
ATOM     18  C   UNL     1       3.127   4.970  19.463  0.00  0.00    +0.000 A 
ATOM     19  C   UNL     1       2.111   4.521  20.312  0.00  0.00    +0.000 A 
BRANCH  14  20
ATOM     20  O   UNL     1       0.477   2.929  20.884  0.00  0.00    +0.000 OA
ATOM     21  H   UNL     1      -0.384   3.162  20.498  0.00  0.00    +0.000 HD
ENDBRANCH  14  20
ENDBRANCH   1  17
BRANCH   3  22
ATOM     22  C   UNL     1       5.916   4.185  13.906  0.00  0.00    +0.000 A 
ATOM     23  C   UNL     1       4.868   3.536  13.225  0.00  0.00    +0.000 A 
ATOM     24  C   UNL     1       5.038   3.037  11.929  0.00  0.00    +0.000 A 
ATOM     25  C   UNL     1       6.258   3.188  11.278  0.00  0.00    +0.000 A 
ATOM     26  C   UNL     1       7.306   3.836  11.922  0.00  0.00    +0.000 A 
ATOM     27  C   UNL     1       7.137   4.323  13.222  0.00  0.00    +0.000 A 
ENDBRANCH   3  22
TORSDOF 4
ENDMDL
MODEL 7
REMARK VINA RESULT:      -7.6      8.094     10.834
REMARK  Name = 
REMARK  4 active torsions:
REMARK  status: ('A' for Active; 'I' for Inactive)
REMARK    1  A    between atoms: O_1  and  C_2
REMARK    2  A    between atoms: C_5  and  C_6
REMARK    3  A    between atoms: C_8  and  C_9
REMARK    4  A    between atoms: C_16  and  C_17
REMARK                            x       y       z     vdW  Elec       q    Type
REMARK                         _______ _______ _______ _____ _____    ______ ____
ROOT
ATOM      1  C   UNL     1       0.831  12.671  18.605  0.00  0.00    +0.000 A 
ATOM      2  C   UNL     1      -0.554  12.770  18.472  0.00  0.00    +0.000 A 
ATOM      3  C   UNL     1      -1.355  11.623  18.469  0.00  0.00    +0.000 A 
ATOM      4  C   UNL     1      -0.698  10.398  18.625  0.00  0.00    +0.000 A 
ATOM      5  C   UNL     1       0.688  10.348  18.772  0.00  0.00    +0.000 A 
ATOM      6  N   UNL     1       1.445  11.473  18.777  0.00  0.00    +0.000 NA
ENDROOT
BRANCH   5   7
ATOM      7  C   UNL     1       1.416   9.069  18.934  0.00  0.00    +0.000 A 
ATOM      8  C   UNL     1       1.370   8.339  20.139  0.00  0.00    +0.000 A 
ATOM      9  C   UNL     1       2.085   7.147  20.302  0.00  0.00    +0.000 A 
ATOM     10  C   UNL     1       2.853   6.655  19.252  0.00  0.00    +0.000 A 
ATOM     11 CL   UNL     1       3.738   5.196  19.456  0.00  0.00    +0.000 Cl
ATOM     12  C   UNL     1       2.905   7.341  18.043  0.00  0.00    +0.000 A 
ATOM     13  C   UNL     1       2.189   8.535  17.887  0.00  0.00    +0.000 A 
ENDBRANCH   5   7
BRANCH   1  17
ATOM     14  C   UNL     1       3.381  16.128  18.458  0.00  0.00    +0.000 A 
ATOM     15  C   UNL     1       2.040  16.275  18.785  0.00  0.00    +0.000 A 
ATOM     16  C   UNL     1       1.215  15.143  18.834  0.00  0.00    +0.000 A 
ATOM     17  C   UNL     1       1.711  13.857  18.554  0.00  0.00    +0.000 A 
ATOM     18  C   UNL     1       3.080  13.750  18.236  0.00  0.00    +0.000 A 
ATOM     19  C   UNL     1       3.909  14.874  18.183  0.00  0.00    +0.000 A 
BRANCH  14  20
ATOM     20  O   UNL     1       4.225  17.195  18.401  0.00  0.00    +0.000 OA
ATOM     21  H   UNL     1       4.079  17.746  19.188  0.00  0.00    +0.000 HD
ENDBRANCH  14  20
ENDBRANCH   1  17
BRANCH   3  22
ATOM     22  C   UNL     1      -2.823  11.703  18.301  0.00  0.00    +0.000 A 
ATOM     23  C   UNL     1      -3.443  11.310  17.099  0.00  0.00    +0.000 A 
ATOM     24  C   UNL     1      -4.829  11.389  16.932  0.00  0.00    +0.000 A 
ATOM     25  C   UNL     1      -5.631  11.852  17.971  0.00  0.00    +0.000 A 
ATOM     26  C   UNL     1      -5.047  12.235  19.173  0.00  0.00    +0.000 A 
ATOM     27  C   UNL     1      -3.659  12.166  19.332  0.00  0.00    +0.000 A 
ENDBRANCH   3  22
TORSDOF 4
ENDMDL
MODEL 8
REMARK VINA RESULT:      -7.5      8.174     10.794
REMARK  Name = 
REMARK  4 active torsions:
REMARK  status: ('A' for Active; 'I' for Inactive)
REMARK    1  A    between atoms: O_1  and  C_2
REMARK    2  A    between atoms: C_5  and  C_6
REMARK    3  A    between atoms: C_8  and  C_9
REMARK    4  A    between atoms: C_16  and  C_17
REMARK                            x       y       z     vdW  Elec       q    Type
REMARK                         _______ _______ _______ _____ _____    ______ ____
ROOT
ATOM      1  C   UNL     1       0.818  10.576  18.831  0.00  0.00    +0.000 A 
ATOM      2  C   UNL     1       1.588  11.737  18.772  0.00  0.00    +0.000 A 
ATOM      3  C   UNL     1       0.988  12.982  18.558  0.00  0.00    +0.000 A 
ATOM      4  C   UNL     1      -0.405  12.994  18.430  0.00  0.00    +0.000 A 
ATOM      5  C   UNL     1      -1.137  11.809  18.514  0.00  0.00    +0.000 A 
ATOM      6  N   UNL     1      -0.535  10.614  18.727  0.00  0.00    +0.000 NA
ENDROOT
BRANCH   5   7
ATOM      7  C   UNL     1      -2.611  11.785  18.379  0.00  0.00    +0.000 A 
ATOM      8  C   UNL     1      -3.239  11.331  17.201  0.00  0.00    +0.000 A 
ATOM      9  C   UNL     1      -4.630  11.340  17.062  0.00  0.00    +0.000 A 
ATOM     10  C   UNL     1      -5.426  11.794  18.110  0.00  0.00    +0.000 A 
ATOM     11 CL   UNL     1      -7.135  11.813  17.935  0.00  0.00    +0.000 Cl
ATOM     12  C   UNL     1      -4.839  12.230  19.293  0.00  0.00    +0.000 A 
ATOM     13  C   UNL     1      -3.444  12.222  19.425  0.00  0.00    +0.000 A 
ENDBRANCH   5   7
BRANCH   1  17
ATOM     14  C   UNL     1       2.586   6.687  19.303  0.00  0.00    +0.000 A 
ATOM     15  C   UNL     1       2.687   7.346  18.085  0.00  0.00    +0.000 A 
ATOM     16  C   UNL     1       2.111   8.615  17.940  0.00  0.00    +0.000 A 
ATOM     17  C   UNL     1       1.425   9.238  18.998  0.00  0.00    +0.000 A 
ATOM     18  C   UNL     1       1.354   8.539  20.220  0.00  0.00    +0.000 A 
ATOM     19  C   UNL     1       1.924   7.273  20.372  0.00  0.00    +0.000 A 
BRANCH  14  20
ATOM     20  O   UNL     1       3.132   5.454  19.497  0.00  0.00    +0.000 OA
ATOM     21  H   UNL     1       3.898   5.546  20.088  0.00  0.00    +0.000 HD
ENDBRANCH  14  20
ENDBRANCH   1  17
BRANCH   3  22
ATOM     22  C   UNL     1       1.789  14.223  18.462  0.00  0.00    +0.000 A 
ATOM     23  C   UNL     1       1.243  15.473  18.812  0.00  0.00    +0.000 A 
ATOM     24  C   UNL     1       1.993  16.650  18.718  0.00  0.00    +0.000 A 
ATOM     25  C   UNL     1       3.314  16.601  18.284  0.00  0.00    +0.000 A 
ATOM     26  C   UNL     1       3.883  15.379  17.945  0.00  0.00    +0.000 A 
ATOM     27  C   UNL     1       3.126  14.205  18.028  0.00  0.00    +0.000 A 
ENDBRANCH   3  22
TORSDOF 4
ENDMDL
MODEL 9
REMARK VINA RESULT:      -7.5      8.544     11.098
REMARK  Name = 
REMARK  4 active torsions:
REMARK  status: ('A' for Active; 'I' for Inactive)
REMARK    1  A    between atoms: O_1  and  C_2
REMARK    2  A    between atoms: C_5  and  C_6
REMARK    3  A    between atoms: C_8  and  C_9
REMARK    4  A    between atoms: C_16  and  C_17
REMARK                            x       y       z     vdW  Elec       q    Type
REMARK                         _______ _______ _______ _____ _____    ______ ____
ROOT
ATOM      1  C   UNL     1       0.963  12.580  18.604  0.00  0.00    +0.000 A 
ATOM      2  C   UNL     1       1.627  11.359  18.721  0.00  0.00    +0.000 A 
ATOM      3  C   UNL     1       0.916  10.155  18.713  0.00  0.00    +0.000 A 
ATOM      4  C   UNL     1      -0.472  10.246  18.564  0.00  0.00    +0.000 A 
ATOM      5  C   UNL     1      -1.092  11.489  18.432  0.00  0.00    +0.000 A 
ATOM      6  N   UNL     1      -0.382  12.644  18.438  0.00  0.00    +0.000 NA
ENDROOT
BRANCH   5   7
ATOM      7  C   UNL     1      -2.558  11.622  18.278  0.00  0.00    +0.000 A 
ATOM      8  C   UNL     1      -3.369  12.124  19.316  0.00  0.00    +0.000 A 
ATOM      9  C   UNL     1      -4.758  12.219  19.180  0.00  0.00    +0.000 A 
ATOM     10  C   UNL     1      -5.364  11.823  17.992  0.00  0.00    +0.000 A 
ATOM     11 CL   UNL     1      -7.071  11.931  17.830  0.00  0.00    +0.000 Cl
ATOM     12  C   UNL     1      -4.591  11.341  16.941  0.00  0.00    +0.000 A 
ATOM     13  C   UNL     1      -3.201  11.246  17.084  0.00  0.00    +0.000 A 
ENDBRANCH   5   7
BRANCH   1  17
ATOM     14  C   UNL     1       3.031  16.343  18.791  0.00  0.00    +0.000 A 
ATOM     15  C   UNL     1       1.691  16.275  19.146  0.00  0.00    +0.000 A 
ATOM     16  C   UNL     1       1.024  15.044  19.086  0.00  0.00    +0.000 A 
ATOM     17  C   UNL     1       1.678  13.872  18.668  0.00  0.00    +0.000 A 
ATOM     18  C   UNL     1       3.041  13.982  18.325  0.00  0.00    +0.000 A 
ATOM     19  C   UNL     1       3.713  15.206  18.381  0.00  0.00    +0.000 A 
BRANCH  14  20
ATOM     20  O   UNL     1       3.726  17.513  18.836  0.00  0.00    +0.000 OA
ATOM     21  H   UNL     1       3.136  18.208  19.173  0.00  0.00    +0.000 HD
ENDBRANCH  14  20
ENDBRANCH   1  17
BRANCH   3  22
ATOM     22  C   UNL     1       1.598   8.850  18.864  0.00  0.00    +0.000 A 
ATOM     23  C   UNL     1       1.516   8.118  20.064  0.00  0.00    +0.000 A 
ATOM     24  C   UNL     1       2.164   6.887  20.214  0.00  0.00    +0.000 A 
ATOM     25  C   UNL     1       2.899   6.353  19.161  0.00  0.00    +0.000 A 
ATOM     26  C   UNL     1       2.987   7.049  17.960  0.00  0.00    +0.000 A 
ATOM     27  C   UNL     1       2.348   8.285  17.817  0.00  0.00    +0.000 A 
ENDBRANCH   3  22
TORSDOF 4
ENDMDL
