MODEL 1
REMARK VINA RESULT:      -9.1      0.000      0.000
REMARK  Name = 
REMARK  9 active torsions:
REMARK  status: ('A' for Active; 'I' for Inactive)
REMARK    1  A    between atoms: C_1  and  C_2
REMARK    2  A    between atoms: C_2  and  C_3
REMARK    3  A    between atoms: C_2  and  N_4
REMARK    4  A    between atoms: C_6  and  C_7
REMARK    5  A    between atoms: C_7  and  C_9
REMARK    6  A    between atoms: C_15  and  C_17
REMARK    7  A    between atoms: C_17  and  C_18
REMARK    8  A    between atoms: C_23  and  O_24
REMARK    9  A    between atoms: O_24  and  C_25
REMARK                            x       y       z     vdW  Elec       q    Type
REMARK                         _______ _______ _______ _____ _____    ______ ____
ROOT
ATOM      1  C   UNL     1       1.913   8.286  18.922  0.00  0.00    +0.000 A 
ATOM      2  C   UNL     1       2.079   7.764  20.205  0.00  0.00    +0.000 A 
ATOM      3  C   UNL     1       1.246   8.223  21.200  0.00  0.00    +0.000 A 
ATOM      4  N   UNL     1       0.318   9.176  21.005  0.00  0.00    +0.000 NA
ATOM      5  C   UNL     1       0.195   9.722  19.785  0.00  0.00    +0.000 A 
ATOM      6  N   UNL     1      -0.702  10.782  19.581  0.00  0.00    +0.000 N 
ATOM      7  C   UNL     1      -1.381  11.446  20.592  0.00  0.00    +0.000 C 
ATOM      8  O   UNL     1      -1.379  11.179  21.791  0.00  0.00    +0.000 OA
ATOM      9  C   UNL     1       0.960   9.291  18.708  0.00  0.00    +0.000 A 
ATOM     10  H   UNL     1      -0.759  11.159  18.645  0.00  0.00    +0.000 HD
ENDROOT
BRANCH   1  11
ATOM     11  C   UNL     1       2.779   7.845  17.788  0.00  0.00    +0.000 C 
ATOM     12  O   UNL     1       2.869   8.569  16.802  0.00  0.00    +0.000 OA
BRANCH  11  15
ATOM     13  N   UNL     1       5.229   5.135  18.042  0.00  0.00    +0.000 N 
ATOM     14  C   UNL     1       4.883   6.464  18.080  0.00  0.00    +0.000 A 
ATOM     15  C   UNL     1       3.517   6.582  17.901  0.00  0.00    +0.000 A 
ATOM     16  C   UNL     1       3.000   5.249  17.893  0.00  0.00    +0.000 A 
ATOM     17  C   UNL     1       1.707   4.710  17.787  0.00  0.00    +0.000 A 
ATOM     18  N   UNL     1       1.513   3.366  17.778  0.00  0.00    +0.000 NA
ATOM     19  C   UNL     1       2.584   2.552  17.875  0.00  0.00    +0.000 A 
ATOM     20  C   UNL     1       3.900   2.982  17.974  0.00  0.00    +0.000 A 
ATOM     21  C   UNL     1       4.085   4.368  17.978  0.00  0.00    +0.000 A 
BRANCH  13  23
ATOM     22  C   UNL     1       7.098   4.483  16.568  0.00  0.00    +0.000 C 
ATOM     23  C   UNL     1       6.609   4.652  18.011  0.00  0.00    +0.000 C 
ATOM     24  C   UNL     1       7.547   5.552  18.814  0.00  0.00    +0.000 C 
ENDBRANCH  13  23
ENDBRANCH  11  15
ENDBRANCH   1  11
BRANCH   7  25
ATOM     25  C   UNL     1      -2.156  12.654  20.076  0.00  0.00    +0.000 C 
BRANCH  25  26
ATOM     26  C   UNL     1      -3.598  12.369  19.696  0.00  0.00    +0.000 A 
ATOM     27  C   UNL     1      -4.647  12.621  20.596  0.00  0.00    +0.000 A 
ATOM     28  C   UNL     1      -5.960  12.255  20.296  0.00  0.00    +0.000 A 
ATOM     29  C   UNL     1      -6.250  11.626  19.091  0.00  0.00    +0.000 A 
ATOM     30  C   UNL     1      -5.237  11.433  18.152  0.00  0.00    +0.000 A 
ATOM     31  C   UNL     1      -3.931  11.856  18.429  0.00  0.00    +0.000 A 
BRANCH  31  32
ATOM     32  O   UNL     1      -2.985  11.623  17.470  0.00  0.00    +0.000 OA
BRANCH  32  33
ATOM     33  C   UNL     1      -2.880  10.251  17.089  0.00  0.00    +0.000 C 
ATOM     34  F   UNL     1      -3.238   9.389  18.067  0.00  0.00    +0.000 F 
ATOM     35  F   UNL     1      -3.704  10.039  16.038  0.00  0.00    +0.000 F 
ATOM     36  F   UNL     1      -1.619   9.962  16.704  0.00  0.00    +0.000 F 
ENDBRANCH  32  33
ENDBRANCH  31  32
ENDBRANCH  25  26
ENDBRANCH   7  25
TORSDOF 7
ENDMDL
MODEL 2
REMARK VINA RESULT:      -9.0      3.407      9.687
REMARK  Name = 
REMARK  9 active torsions:
REMARK  status: ('A' for Active; 'I' for Inactive)
REMARK    1  A    between atoms: C_1  and  C_2
REMARK    2  A    between atoms: C_2  and  C_3
REMARK    3  A    between atoms: C_2  and  N_4
REMARK    4  A    between atoms: C_6  and  C_7
REMARK    5  A    between atoms: C_7  and  C_9
REMARK    6  A    between atoms: C_15  and  C_17
REMARK    7  A    between atoms: C_17  and  C_18
REMARK    8  A    between atoms: C_23  and  O_24
REMARK    9  A    between atoms: O_24  and  C_25
REMARK                            x       y       z     vdW  Elec       q    Type
REMARK                         _______ _______ _______ _____ _____    ______ ____
ROOT
ATOM      1  C   UNL     1      -0.383  11.060  20.787  0.00  0.00    +0.000 A 
ATOM      2  C   UNL     1      -0.549  10.485  22.047  0.00  0.00    +0.000 A 
ATOM      3  C   UNL     1       0.141   9.327  22.323  0.00  0.00    +0.000 A 
ATOM      4  N   UNL     1       0.926   8.704  21.427  0.00  0.00    +0.000 NA
ATOM      5  C   UNL     1       1.043   9.223  20.194  0.00  0.00    +0.000 A 
ATOM      6  N   UNL     1       1.781   8.541  19.216  0.00  0.00    +0.000 N 
ATOM      7  C   UNL     1       2.288   7.258  19.362  0.00  0.00    +0.000 C 
ATOM      8  O   UNL     1       2.251   6.551  20.366  0.00  0.00    +0.000 OA
ATOM      9  C   UNL     1       0.420  10.414  19.838  0.00  0.00    +0.000 A 
ATOM     10  H   UNL     1       1.841   8.972  18.304  0.00  0.00    +0.000 HD
ENDROOT
BRANCH   1  11
ATOM     11  C   UNL     1      -1.100  12.313  20.407  0.00  0.00    +0.000 C 
ATOM     12  O   UNL     1      -0.537  13.389  20.584  0.00  0.00    +0.000 OA
BRANCH  11  15
ATOM     13  N   UNL     1      -4.672  12.259  19.601  0.00  0.00    +0.000 N 
ATOM     14  C   UNL     1      -3.620  12.574  20.426  0.00  0.00    +0.000 A 
ATOM     15  C   UNL     1      -2.436  12.220  19.807  0.00  0.00    +0.000 A 
ATOM     16  C   UNL     1      -2.788  11.797  18.487  0.00  0.00    +0.000 A 
ATOM     17  C   UNL     1      -2.046  11.358  17.378  0.00  0.00    +0.000 A 
ATOM     18  N   UNL     1      -2.667  10.982  16.231  0.00  0.00    +0.000 NA
ATOM     19  C   UNL     1      -4.014  11.038  16.170  0.00  0.00    +0.000 A 
ATOM     20  C   UNL     1      -4.837  11.446  17.210  0.00  0.00    +0.000 A 
ATOM     21  C   UNL     1      -4.184  11.827  18.386  0.00  0.00    +0.000 A 
BRANCH  13  23
ATOM     22  C   UNL     1      -6.708  10.928  20.019  0.00  0.00    +0.000 C 
ATOM     23  C   UNL     1      -6.075  12.324  20.007  0.00  0.00    +0.000 C 
ATOM     24  C   UNL     1      -6.247  13.024  21.355  0.00  0.00    +0.000 C 
ENDBRANCH  13  23
ENDBRANCH  11  15
ENDBRANCH   1  11
BRANCH   7  25
ATOM     25  C   UNL     1       2.904   6.725  18.071  0.00  0.00    +0.000 C 
BRANCH  25  26
ATOM     26  C   UNL     1       2.884   5.213  17.935  0.00  0.00    +0.000 A 
ATOM     27  C   UNL     1       1.669   4.510  17.855  0.00  0.00    +0.000 A 
ATOM     28  C   UNL     1       1.642   3.115  17.845  0.00  0.00    +0.000 A 
ATOM     29  C   UNL     1       2.828   2.394  17.917  0.00  0.00    +0.000 A 
ATOM     30  C   UNL     1       4.047   3.071  17.923  0.00  0.00    +0.000 A 
ATOM     31  C   UNL     1       4.076   4.469  17.872  0.00  0.00    +0.000 A 
BRANCH  31  32
ATOM     32  O   UNL     1       5.305   5.068  17.895  0.00  0.00    +0.000 OA
BRANCH  32  33
ATOM     33  C   UNL     1       5.941   5.123  16.619  0.00  0.00    +0.000 C 
ATOM     34  F   UNL     1       6.642   6.260  16.411  0.00  0.00    +0.000 F 
ATOM     35  F   UNL     1       6.810   4.089  16.535  0.00  0.00    +0.000 F 
ATOM     36  F   UNL     1       5.032   4.992  15.630  0.00  0.00    +0.000 F 
ENDBRANCH  32  33
ENDBRANCH  31  32
ENDBRANCH  25  26
ENDBRANCH   7  25
TORSDOF 7
ENDMDL
MODEL 3
REMARK VINA RESULT:      -8.9      3.572      9.872
REMARK  Name = 
REMARK  9 active torsions:
REMARK  status: ('A' for Active; 'I' for Inactive)
REMARK    1  A    between atoms: C_1  and  C_2
REMARK    2  A    between atoms: C_2  and  C_3
REMARK    3  A    between atoms: C_2  and  N_4
REMARK    4  A    between atoms: C_6  and  C_7
REMARK    5  A    between atoms: C_7  and  C_9
REMARK    6  A    between atoms: C_15  and  C_17
REMARK    7  A    between atoms: C_17  and  C_18
REMARK    8  A    between atoms: C_23  and  O_24
REMARK    9  A    between atoms: O_24  and  C_25
REMARK                            x       y       z     vdW  Elec       q    Type
REMARK                         _______ _______ _______ _____ _____    ______ ____
ROOT
ATOM      1  C   UNL     1       1.863   8.601  18.897  0.00  0.00    +0.000 A 
ATOM      2  C   UNL     1       1.451   8.306  20.197  0.00  0.00    +0.000 A 
ATOM      3  C   UNL     1       1.804   7.084  20.722  0.00  0.00    +0.000 A 
ATOM      4  N   UNL     1       2.482   6.151  20.031  0.00  0.00    +0.000 NA
ATOM      5  C   UNL     1       2.830   6.410  18.760  0.00  0.00    +0.000 A 
ATOM      6  N   UNL     1       3.456   5.417  17.991  0.00  0.00    +0.000 N 
ATOM      7  C   UNL     1       3.612   4.096  18.385  0.00  0.00    +0.000 C 
ATOM      8  O   UNL     1       3.314   3.601  19.469  0.00  0.00    +0.000 OA
ATOM      9  C   UNL     1       2.557   7.633  18.160  0.00  0.00    +0.000 A 
ATOM     10  H   UNL     1       3.698   5.660  17.041  0.00  0.00    +0.000 HD
ENDROOT
BRANCH   1  11
ATOM     11  C   UNL     1       1.516   9.903  18.252  0.00  0.00    +0.000 C 
ATOM     12  O   UNL     1       2.366  10.465  17.569  0.00  0.00    +0.000 OA
BRANCH  11  15
ATOM     13  N   UNL     1      -1.983  10.957  18.019  0.00  0.00    +0.000 N 
ATOM     14  C   UNL     1      -0.916  10.198  17.606  0.00  0.00    +0.000 A 
ATOM     15  C   UNL     1       0.167  10.452  18.428  0.00  0.00    +0.000 A 
ATOM     16  C   UNL     1      -0.317  11.302  19.471  0.00  0.00    +0.000 A 
ATOM     17  C   UNL     1       0.274  11.871  20.611  0.00  0.00    +0.000 A 
ATOM     18  N   UNL     1      -0.439  12.687  21.430  0.00  0.00    +0.000 NA
ATOM     19  C   UNL     1      -1.730  12.942  21.131  0.00  0.00    +0.000 A 
ATOM     20  C   UNL     1      -2.402  12.439  20.027  0.00  0.00    +0.000 A 
ATOM     21  C   UNL     1      -1.655  11.605  19.191  0.00  0.00    +0.000 A 
BRANCH  13  23
ATOM     22  C   UNL     1      -3.002  10.852  15.774  0.00  0.00    +0.000 C 
ATOM     23  C   UNL     1      -3.234  11.081  17.271  0.00  0.00    +0.000 C 
ATOM     24  C   UNL     1      -4.319  10.153  17.814  0.00  0.00    +0.000 C 
ENDBRANCH  13  23
ENDBRANCH  11  15
ENDBRANCH   1  11
BRANCH   7  25
ATOM     25  C   UNL     1       4.183   3.222  17.273  0.00  0.00    +0.000 C 
BRANCH  25  26
ATOM     26  C   UNL     1       5.179   3.920  16.364  0.00  0.00    +0.000 A 
ATOM     27  C   UNL     1       4.901   4.119  15.001  0.00  0.00    +0.000 A 
ATOM     28  C   UNL     1       5.858   4.656  14.139  0.00  0.00    +0.000 A 
ATOM     29  C   UNL     1       7.114   5.003  14.622  0.00  0.00    +0.000 A 
ATOM     30  C   UNL     1       7.387   4.884  15.984  0.00  0.00    +0.000 A 
ATOM     31  C   UNL     1       6.405   4.402  16.858  0.00  0.00    +0.000 A 
BRANCH  31  32
ATOM     32  O   UNL     1       6.745   4.297  18.179  0.00  0.00    +0.000 OA
BRANCH  32  33
ATOM     33  C   UNL     1       6.896   5.556  18.834  0.00  0.00    +0.000 C 
ATOM     34  F   UNL     1       8.184   5.936  18.987  0.00  0.00    +0.000 F 
ATOM     35  F   UNL     1       6.280   6.499  18.085  0.00  0.00    +0.000 F 
ATOM     36  F   UNL     1       6.309   5.531  20.049  0.00  0.00    +0.000 F 
ENDBRANCH  32  33
ENDBRANCH  31  32
ENDBRANCH  25  26
ENDBRANCH   7  25
TORSDOF 7
ENDMDL
MODEL 4
REMARK VINA RESULT:      -8.8      3.514      9.730
REMARK  Name = 
REMARK  9 active torsions:
REMARK  status: ('A' for Active; 'I' for Inactive)
REMARK    1  A    between atoms: C_1  and  C_2
REMARK    2  A    between atoms: C_2  and  C_3
REMARK    3  A    between atoms: C_2  and  N_4
REMARK    4  A    between atoms: C_6  and  C_7
REMARK    5  A    between atoms: C_7  and  C_9
REMARK    6  A    between atoms: C_15  and  C_17
REMARK    7  A    between atoms: C_17  and  C_18
REMARK    8  A    between atoms: C_23  and  O_24
REMARK    9  A    between atoms: O_24  and  C_25
REMARK                            x       y       z     vdW  Elec       q    Type
REMARK                         _______ _______ _______ _____ _____    ______ ____
ROOT
ATOM      1  C   UNL     1      -0.537  11.115  20.849  0.00  0.00    +0.000 A 
ATOM      2  C   UNL     1      -0.720  10.478  22.077  0.00  0.00    +0.000 A 
ATOM      3  C   UNL     1      -0.004   9.329  22.319  0.00  0.00    +0.000 A 
ATOM      4  N   UNL     1       0.823   8.770  21.419  0.00  0.00    +0.000 NA
ATOM      5  C   UNL     1       0.959   9.348  20.215  0.00  0.00    +0.000 A 
ATOM      6  N   UNL     1       1.744   8.734  19.229  0.00  0.00    +0.000 N 
ATOM      7  C   UNL     1       2.285   7.460  19.332  0.00  0.00    +0.000 C 
ATOM      8  O   UNL     1       2.241   6.708  20.302  0.00  0.00    +0.000 OA
ATOM      9  C   UNL     1       0.311  10.536  19.895  0.00  0.00    +0.000 A 
ATOM     10  H   UNL     1       1.815   9.208  18.339  0.00  0.00    +0.000 HD
ENDROOT
BRANCH   1  11
ATOM     11  C   UNL     1      -1.281  12.363  20.505  0.00  0.00    +0.000 C 
ATOM     12  O   UNL     1      -0.763  13.445  20.762  0.00  0.00    +0.000 OA
BRANCH  11  15
ATOM     13  N   UNL     1      -4.812  12.270  19.540  0.00  0.00    +0.000 N 
ATOM     14  C   UNL     1      -3.802  12.589  20.415  0.00  0.00    +0.000 A 
ATOM     15  C   UNL     1      -2.587  12.259  19.845  0.00  0.00    +0.000 A 
ATOM     16  C   UNL     1      -2.874  11.850  18.505  0.00  0.00    +0.000 A 
ATOM     17  C   UNL     1      -2.077  11.437  17.425  0.00  0.00    +0.000 A 
ATOM     18  N   UNL     1      -2.641  11.067  16.246  0.00  0.00    +0.000 NA
ATOM     19  C   UNL     1      -3.984  11.105  16.126  0.00  0.00    +0.000 A 
ATOM     20  C   UNL     1      -4.859  11.488  17.133  0.00  0.00    +0.000 A 
ATOM     21  C   UNL     1      -4.265  11.862  18.342  0.00  0.00    +0.000 A 
BRANCH  13  23
ATOM     22  C   UNL     1      -6.785  10.896  20.099  0.00  0.00    +0.000 C 
ATOM     23  C   UNL     1      -6.233  12.310  19.884  0.00  0.00    +0.000 C 
ATOM     24  C   UNL     1      -6.502  13.203  21.094  0.00  0.00    +0.000 C 
ENDBRANCH  13  23
ENDBRANCH  11  15
ENDBRANCH   1  11
BRANCH   7  25
ATOM     25  C   UNL     1       2.951   7.005  18.037  0.00  0.00    +0.000 C 
BRANCH  25  26
ATOM     26  C   UNL     1       2.945   5.503  17.813  0.00  0.00    +0.000 A 
ATOM     27  C   UNL     1       1.768   4.751  17.979  0.00  0.00    +0.000 A 
ATOM     28  C   UNL     1       1.782   3.359  17.887  0.00  0.00    +0.000 A 
ATOM     29  C   UNL     1       2.972   2.689  17.630  0.00  0.00    +0.000 A 
ATOM     30  C   UNL     1       4.136   3.419  17.389  0.00  0.00    +0.000 A 
ATOM     31  C   UNL     1       4.109   4.818  17.422  0.00  0.00    +0.000 A 
BRANCH  31  32
ATOM     32  O   UNL     1       5.289   5.469  17.191  0.00  0.00    +0.000 OA
BRANCH  32  33
ATOM     33  C   UNL     1       6.208   5.397  18.281  0.00  0.00    +0.000 C 
ATOM     34  F   UNL     1       7.057   4.349  18.205  0.00  0.00    +0.000 F 
ATOM     35  F   UNL     1       6.954   6.526  18.280  0.00  0.00    +0.000 F 
ATOM     36  F   UNL     1       5.546   5.329  19.455  0.00  0.00    +0.000 F 
ENDBRANCH  32  33
ENDBRANCH  31  32
ENDBRANCH  25  26
ENDBRANCH   7  25
TORSDOF 7
ENDMDL
MODEL 5
REMARK VINA RESULT:      -8.7      3.551      9.895
REMARK  Name = 
REMARK  9 active torsions:
REMARK  status: ('A' for Active; 'I' for Inactive)
REMARK    1  A    between atoms: C_1  and  C_2
REMARK    2  A    between atoms: C_2  and  C_3
REMARK    3  A    between atoms: C_2  and  N_4
REMARK    4  A    between atoms: C_6  and  C_7
REMARK    5  A    between atoms: C_7  and  C_9
REMARK    6  A    between atoms: C_15  and  C_17
REMARK    7  A    between atoms: C_17  and  C_18
REMARK    8  A    between atoms: C_23  and  O_24
REMARK    9  A    between atoms: O_24  and  C_25
REMARK                            x       y       z     vdW  Elec       q    Type
REMARK                         _______ _______ _______ _____ _____    ______ ____
ROOT
ATOM      1  C   UNL     1       0.668   9.895  19.848  0.00  0.00    +0.000 A 
ATOM      2  C   UNL     1       0.128   9.435  21.050  0.00  0.00    +0.000 A 
ATOM      3  C   UNL     1       0.546   8.210  21.516  0.00  0.00    +0.000 A 
ATOM      4  N   UNL     1       1.408   7.422  20.852  0.00  0.00    +0.000 NA
ATOM      5  C   UNL     1       1.886   7.835  19.667  0.00  0.00    +0.000 A 
ATOM      6  N   UNL     1       2.713   6.990  18.913  0.00  0.00    +0.000 N 
ATOM      7  C   UNL     1       2.965   5.659  19.215  0.00  0.00    +0.000 C 
ATOM      8  O   UNL     1       2.588   5.034  20.202  0.00  0.00    +0.000 OA
ATOM      9  C   UNL     1       1.556   9.078  19.137  0.00  0.00    +0.000 A 
ATOM     10  H   UNL     1       3.047   7.347  18.029  0.00  0.00    +0.000 HD
ENDROOT
BRANCH   1  11
ATOM     11  C   UNL     1       0.263  11.211  19.271  0.00  0.00    +0.000 C 
ATOM     12  O   UNL     1       1.124  11.915  18.753  0.00  0.00    +0.000 OA
BRANCH  11  15
ATOM     13  N   UNL     1      -3.100  12.416  20.076  0.00  0.00    +0.000 N 
ATOM     14  C   UNL     1      -1.755  12.316  20.333  0.00  0.00    +0.000 A 
ATOM     15  C   UNL     1      -1.149  11.606  19.312  0.00  0.00    +0.000 A 
ATOM     16  C   UNL     1      -2.161  11.390  18.325  0.00  0.00    +0.000 A 
ATOM     17  C   UNL     1      -2.168  10.775  17.062  0.00  0.00    +0.000 A 
ATOM     18  N   UNL     1      -3.314  10.686  16.339  0.00  0.00    +0.000 NA
ATOM     19  C   UNL     1      -4.450  11.201  16.852  0.00  0.00    +0.000 A 
ATOM     20  C   UNL     1      -4.551  11.819  18.091  0.00  0.00    +0.000 A 
ATOM     21  C   UNL     1      -3.365  11.899  18.826  0.00  0.00    +0.000 A 
BRANCH  13  23
ATOM     22  C   UNL     1      -3.652  12.631  22.472  0.00  0.00    +0.000 C 
ATOM     23  C   UNL     1      -4.076  12.938  21.032  0.00  0.00    +0.000 C 
ATOM     24  C   UNL     1      -4.327  14.432  20.833  0.00  0.00    +0.000 C 
ENDBRANCH  13  23
ENDBRANCH  11  15
ENDBRANCH   1  11
BRANCH   7  25
ATOM     25  C   UNL     1       3.770   4.959  18.124  0.00  0.00    +0.000 C 
BRANCH  25  26
ATOM     26  C   UNL     1       5.247   5.309  18.101  0.00  0.00    +0.000 A 
ATOM     27  C   UNL     1       6.002   5.344  19.286  0.00  0.00    +0.000 A 
ATOM     28  C   UNL     1       7.329   5.776  19.285  0.00  0.00    +0.000 A 
ATOM     29  C   UNL     1       7.928   6.185  18.100  0.00  0.00    +0.000 A 
ATOM     30  C   UNL     1       7.222   6.089  16.901  0.00  0.00    +0.000 A 
ATOM     31  C   UNL     1       5.910   5.598  16.895  0.00  0.00    +0.000 A 
BRANCH  31  32
ATOM     32  O   UNL     1       5.272   5.544  15.686  0.00  0.00    +0.000 OA
BRANCH  32  33
ATOM     33  C   UNL     1       5.767   4.523  14.820  0.00  0.00    +0.000 C 
ATOM     34  F   UNL     1       6.940   4.838  14.227  0.00  0.00    +0.000 F 
ATOM     35  F   UNL     1       5.971   3.407  15.557  0.00  0.00    +0.000 F 
ATOM     36  F   UNL     1       4.864   4.237  13.859  0.00  0.00    +0.000 F 
ENDBRANCH  32  33
ENDBRANCH  31  32
ENDBRANCH  25  26
ENDBRANCH   7  25
TORSDOF 7
ENDMDL
MODEL 6
REMARK VINA RESULT:      -8.7      3.460     10.112
REMARK  Name = 
REMARK  9 active torsions:
REMARK  status: ('A' for Active; 'I' for Inactive)
REMARK    1  A    between atoms: C_1  and  C_2
REMARK    2  A    between atoms: C_2  and  C_3
REMARK    3  A    between atoms: C_2  and  N_4
REMARK    4  A    between atoms: C_6  and  C_7
REMARK    5  A    between atoms: C_7  and  C_9
REMARK    6  A    between atoms: C_15  and  C_17
REMARK    7  A    between atoms: C_17  and  C_18
REMARK    8  A    between atoms: C_23  and  O_24
REMARK    9  A    between atoms: O_24  and  C_25
REMARK                            x       y       z     vdW  Elec       q    Type
REMARK                         _______ _______ _______ _____ _____    ______ ____
ROOT
ATOM      1  C   UNL     1      -0.439  11.060  19.512  0.00  0.00    +0.000 A 
ATOM      2  C   UNL     1      -0.516  10.775  20.875  0.00  0.00    +0.000 A 
ATOM      3  C   UNL     1       0.290   9.777  21.371  0.00  0.00    +0.000 A 
ATOM      4  N   UNL     1       1.109   9.039  20.602  0.00  0.00    +0.000 NA
ATOM      5  C   UNL     1       1.144   9.271  19.281  0.00  0.00    +0.000 A 
ATOM      6  N   UNL     1       1.920   8.453  18.447  0.00  0.00    +0.000 N 
ATOM      7  C   UNL     1       2.553   7.287  18.854  0.00  0.00    +0.000 C 
ATOM      8  O   UNL     1       2.611   6.829  19.992  0.00  0.00    +0.000 OA
ATOM      9  C   UNL     1       0.399  10.289  18.696  0.00  0.00    +0.000 A 
ATOM     10  H   UNL     1       1.914   8.668  17.460  0.00  0.00    +0.000 HD
ENDROOT
BRANCH   1  11
ATOM     11  C   UNL     1      -1.285  12.124  18.893  0.00  0.00    +0.000 C 
ATOM     12  O   UNL     1      -0.740  12.984  18.209  0.00  0.00    +0.000 OA
BRANCH  11  15
ATOM     13  N   UNL     1      -4.915  11.669  18.746  0.00  0.00    +0.000 N 
ATOM     14  C   UNL     1      -3.640  11.384  18.323  0.00  0.00    +0.000 A 
ATOM     15  C   UNL     1      -2.738  12.092  19.096  0.00  0.00    +0.000 A 
ATOM     16  C   UNL     1      -3.505  12.725  20.123  0.00  0.00    +0.000 A 
ATOM     17  C   UNL     1      -3.174  13.538  21.220  0.00  0.00    +0.000 A 
ATOM     18  N   UNL     1      -4.141  14.037  22.032  0.00  0.00    +0.000 NA
ATOM     19  C   UNL     1      -5.430  13.737  21.771  0.00  0.00    +0.000 A 
ATOM     20  C   UNL     1      -5.862  12.953  20.711  0.00  0.00    +0.000 A 
ATOM     21  C   UNL     1      -4.857  12.450  19.880  0.00  0.00    +0.000 A 
BRANCH  13  23
ATOM     22  C   UNL     1      -6.925  10.243  18.877  0.00  0.00    +0.000 C 
ATOM     23  C   UNL     1      -6.123  11.244  18.039  0.00  0.00    +0.000 C 
ATOM     24  C   UNL     1      -6.985  12.432  17.616  0.00  0.00    +0.000 C 
ENDBRANCH  13  23
ENDBRANCH  11  15
ENDBRANCH   1  11
BRANCH   7  25
ATOM     25  C   UNL     1       3.185   6.532  17.689  0.00  0.00    +0.000 C 
BRANCH  25  26
ATOM     26  C   UNL     1       2.988   5.027  17.727  0.00  0.00    +0.000 A 
ATOM     27  C   UNL     1       1.707   4.467  17.873  0.00  0.00    +0.000 A 
ATOM     28  C   UNL     1       1.532   3.091  18.023  0.00  0.00    +0.000 A 
ATOM     29  C   UNL     1       2.635   2.246  18.034  0.00  0.00    +0.000 A 
ATOM     30  C   UNL     1       3.909   2.771  17.817  0.00  0.00    +0.000 A 
ATOM     31  C   UNL     1       4.077   4.144  17.606  0.00  0.00    +0.000 A 
BRANCH  31  32
ATOM     32  O   UNL     1       5.355   4.592  17.414  0.00  0.00    +0.000 OA
BRANCH  32  33
ATOM     33  C   UNL     1       5.759   4.606  16.045  0.00  0.00    +0.000 C 
ATOM     34  F   UNL     1       4.787   4.222  15.189  0.00  0.00    +0.000 F 
ATOM     35  F   UNL     1       6.109   5.872  15.721  0.00  0.00    +0.000 F 
ATOM     36  F   UNL     1       6.833   3.810  15.860  0.00  0.00    +0.000 F 
ENDBRANCH  32  33
ENDBRANCH  31  32
ENDBRANCH  25  26
ENDBRANCH   7  25
TORSDOF 7
ENDMDL
MODEL 7
REMARK VINA RESULT:      -8.7      0.874      2.491
REMARK  Name = 
REMARK  9 active torsions:
REMARK  status: ('A' for Active; 'I' for Inactive)
REMARK    1  A    between atoms: C_1  and  C_2
REMARK    2  A    between atoms: C_2  and  C_3
REMARK    3  A    between atoms: C_2  and  N_4
REMARK    4  A    between atoms: C_6  and  C_7
REMARK    5  A    between atoms: C_7  and  C_9
REMARK    6  A    between atoms: C_15  and  C_17
REMARK    7  A    between atoms: C_17  and  C_18
REMARK    8  A    between atoms: C_23  and  O_24
REMARK    9  A    between atoms: O_24  and  C_25
REMARK                            x       y       z     vdW  Elec       q    Type
REMARK                         _______ _______ _______ _____ _____    ______ ____
ROOT
ATOM      1  C   UNL     1       1.606   8.550  19.135  0.00  0.00    +0.000 A 
ATOM      2  C   UNL     1       1.863   8.209  20.463  0.00  0.00    +0.000 A 
ATOM      3  C   UNL     1       1.042   8.736  21.433  0.00  0.00    +0.000 A 
ATOM      4  N   UNL     1       0.041   9.593  21.168  0.00  0.00    +0.000 NA
ATOM      5  C   UNL     1      -0.173   9.968  19.897  0.00  0.00    +0.000 A 
ATOM      6  N   UNL     1      -1.152  10.931  19.608  0.00  0.00    +0.000 N 
ATOM      7  C   UNL     1      -1.834  11.673  20.561  0.00  0.00    +0.000 C 
ATOM      8  O   UNL     1      -1.762  11.563  21.783  0.00  0.00    +0.000 OA
ATOM      9  C   UNL     1       0.575   9.453  18.845  0.00  0.00    +0.000 A 
ATOM     10  H   UNL     1      -1.276  11.180  18.636  0.00  0.00    +0.000 HD
ENDROOT
BRANCH   1  11
ATOM     11  C   UNL     1       2.453   8.026  18.022  0.00  0.00    +0.000 C 
ATOM     12  O   UNL     1       2.704   8.765  17.076  0.00  0.00    +0.000 OA
BRANCH  11  15
ATOM     13  N   UNL     1       3.102   4.458  18.534  0.00  0.00    +0.000 N 
ATOM     14  C   UNL     1       2.257   5.539  18.464  0.00  0.00    +0.000 A 
ATOM     15  C   UNL     1       2.983   6.660  18.110  0.00  0.00    +0.000 A 
ATOM     16  C   UNL     1       4.306   6.201  17.818  0.00  0.00    +0.000 A 
ATOM     17  C   UNL     1       5.478   6.837  17.376  0.00  0.00    +0.000 A 
ATOM     18  N   UNL     1       6.629   6.135  17.209  0.00  0.00    +0.000 NA
ATOM     19  C   UNL     1       6.629   4.812  17.474  0.00  0.00    +0.000 A 
ATOM     20  C   UNL     1       5.531   4.094  17.922  0.00  0.00    +0.000 A 
ATOM     21  C   UNL     1       4.354   4.829  18.093  0.00  0.00    +0.000 A 
BRANCH  13  23
ATOM     22  C   UNL     1       1.611   3.291  20.117  0.00  0.00    +0.000 C 
ATOM     23  C   UNL     1       2.711   3.150  19.060  0.00  0.00    +0.000 C 
ATOM     24  C   UNL     1       2.295   2.189  17.948  0.00  0.00    +0.000 C 
ENDBRANCH  13  23
ENDBRANCH  11  15
ENDBRANCH   1  11
BRANCH   7  25
ATOM     25  C   UNL     1      -2.715  12.752  19.937  0.00  0.00    +0.000 C 
BRANCH  25  26
ATOM     26  C   UNL     1      -4.104  12.285  19.540  0.00  0.00    +0.000 A 
ATOM     27  C   UNL     1      -5.185  12.387  20.433  0.00  0.00    +0.000 A 
ATOM     28  C   UNL     1      -6.436  11.856  20.116  0.00  0.00    +0.000 A 
ATOM     29  C   UNL     1      -6.632  11.210  18.901  0.00  0.00    +0.000 A 
ATOM     30  C   UNL     1      -5.594  11.162  17.971  0.00  0.00    +0.000 A 
ATOM     31  C   UNL     1      -4.357  11.748  18.265  0.00  0.00    +0.000 A 
BRANCH  31  32
ATOM     32  O   UNL     1      -3.381  11.652  17.312  0.00  0.00    +0.000 OA
BRANCH  32  33
ATOM     33  C   UNL     1      -3.102  10.311  16.910  0.00  0.00    +0.000 C 
ATOM     34  F   UNL     1      -3.756   9.935  15.788  0.00  0.00    +0.000 F 
ATOM     35  F   UNL     1      -1.776  10.213  16.660  0.00  0.00    +0.000 F 
ATOM     36  F   UNL     1      -3.412   9.445  17.897  0.00  0.00    +0.000 F 
ENDBRANCH  32  33
ENDBRANCH  31  32
ENDBRANCH  25  26
ENDBRANCH   7  25
TORSDOF 7
ENDMDL
MODEL 8
REMARK VINA RESULT:      -8.6      3.752      9.757
REMARK  Name = 
REMARK  9 active torsions:
REMARK  status: ('A' for Active; 'I' for Inactive)
REMARK    1  A    between atoms: C_1  and  C_2
REMARK    2  A    between atoms: C_2  and  C_3
REMARK    3  A    between atoms: C_2  and  N_4
REMARK    4  A    between atoms: C_6  and  C_7
REMARK    5  A    between atoms: C_7  and  C_9
REMARK    6  A    between atoms: C_15  and  C_17
REMARK    7  A    between atoms: C_17  and  C_18
REMARK    8  A    between atoms: C_23  and  O_24
REMARK    9  A    between atoms: O_24  and  C_25
REMARK                            x       y       z     vdW  Elec       q    Type
REMARK                         _______ _______ _______ _____ _____    ______ ____
ROOT
ATOM      1  C   UNL     1       1.748   8.516  19.089  0.00  0.00    +0.000 A 
ATOM      2  C   UNL     1       1.184   8.247  20.336  0.00  0.00    +0.000 A 
ATOM      3  C   UNL     1       1.532   7.070  20.959  0.00  0.00    +0.000 A 
ATOM      4  N   UNL     1       2.347   6.155  20.407  0.00  0.00    +0.000 NA
ATOM      5  C   UNL     1       2.846   6.384  19.182  0.00  0.00    +0.000 A 
ATOM      6  N   UNL     1       3.623   5.404  18.548  0.00  0.00    +0.000 N 
ATOM      7  C   UNL     1       3.799   4.110  19.020  0.00  0.00    +0.000 C 
ATOM      8  O   UNL     1       3.387   3.640  20.078  0.00  0.00    +0.000 OA
ATOM      9  C   UNL     1       2.587   7.565  18.495  0.00  0.00    +0.000 A 
ATOM     10  H   UNL     1       3.976   5.624  17.627  0.00  0.00    +0.000 HD
ENDROOT
BRANCH   1  11
ATOM     11  C   UNL     1       1.418   9.768  18.344  0.00  0.00    +0.000 C 
ATOM     12  O   UNL     1       2.118  10.083  17.387  0.00  0.00    +0.000 OA
BRANCH  11  15
ATOM     13  N   UNL     1      -1.029  11.981  19.932  0.00  0.00    +0.000 N 
ATOM     14  C   UNL     1       0.252  11.518  19.757  0.00  0.00    +0.000 A 
ATOM     15  C   UNL     1       0.256  10.562  18.758  0.00  0.00    +0.000 A 
ATOM     16  C   UNL     1      -1.066  10.551  18.212  0.00  0.00    +0.000 A 
ATOM     17  C   UNL     1      -1.679   9.839  17.169  0.00  0.00    +0.000 A 
ATOM     18  N   UNL     1      -2.995  10.015  16.885  0.00  0.00    +0.000 NA
ATOM     19  C   UNL     1      -3.708  10.890  17.624  0.00  0.00    +0.000 A 
ATOM     20  C   UNL     1      -3.201  11.634  18.680  0.00  0.00    +0.000 A 
ATOM     21  C   UNL     1      -1.847  11.439  18.962  0.00  0.00    +0.000 A 
BRANCH  13  23
ATOM     22  C   UNL     1      -0.688  12.511  22.318  0.00  0.00    +0.000 C 
ATOM     23  C   UNL     1      -1.436  12.861  21.027  0.00  0.00    +0.000 C 
ATOM     24  C   UNL     1      -1.265  14.336  20.667  0.00  0.00    +0.000 C 
ENDBRANCH  13  23
ENDBRANCH  11  15
ENDBRANCH   1  11
BRANCH   7  25
ATOM     25  C   UNL     1       4.561   3.231  18.034  0.00  0.00    +0.000 C 
BRANCH  25  26
ATOM     26  C   UNL     1       5.283   3.988  16.933  0.00  0.00    +0.000 A 
ATOM     27  C   UNL     1       4.654   4.253  15.704  0.00  0.00    +0.000 A 
ATOM     28  C   UNL     1       5.349   4.847  14.650  0.00  0.00    +0.000 A 
ATOM     29  C   UNL     1       6.689   5.186  14.802  0.00  0.00    +0.000 A 
ATOM     30  C   UNL     1       7.312   4.999  16.036  0.00  0.00    +0.000 A 
ATOM     31  C   UNL     1       6.596   4.460  17.111  0.00  0.00    +0.000 A 
BRANCH  31  32
ATOM     32  O   UNL     1       7.273   4.292  18.287  0.00  0.00    +0.000 OA
BRANCH  32  33
ATOM     33  C   UNL     1       7.438   5.498  19.032  0.00  0.00    +0.000 C 
ATOM     34  F   UNL     1       6.420   5.752  19.884  0.00  0.00    +0.000 F 
ATOM     35  F   UNL     1       8.568   5.388  19.769  0.00  0.00    +0.000 F 
ATOM     36  F   UNL     1       7.576   6.553  18.202  0.00  0.00    +0.000 F 
ENDBRANCH  32  33
ENDBRANCH  31  32
ENDBRANCH  25  26
ENDBRANCH   7  25
TORSDOF 7
ENDMDL
MODEL 9
REMARK VINA RESULT:      -8.6      3.423      9.981
REMARK  Name = 
REMARK  9 active torsions:
REMARK  status: ('A' for Active; 'I' for Inactive)
REMARK    1  A    between atoms: C_1  and  C_2
REMARK    2  A    between atoms: C_2  and  C_3
REMARK    3  A    between atoms: C_2  and  N_4
REMARK    4  A    between atoms: C_6  and  C_7
REMARK    5  A    between atoms: C_7  and  C_9
REMARK    6  A    between atoms: C_15  and  C_17
REMARK    7  A    between atoms: C_17  and  C_18
REMARK    8  A    between atoms: C_23  and  O_24
REMARK    9  A    between atoms: O_24  and  C_25
REMARK                            x       y       z     vdW  Elec       q    Type
REMARK                         _______ _______ _______ _____ _____    ______ ____
ROOT
ATOM      1  C   UNL     1      -0.305  11.114  20.801  0.00  0.00    +0.000 A 
ATOM      2  C   UNL     1      -0.427  10.565  22.078  0.00  0.00    +0.000 A 
ATOM      3  C   UNL     1       0.251   9.398  22.345  0.00  0.00    +0.000 A 
ATOM      4  N   UNL     1       0.983   8.743  21.428  0.00  0.00    +0.000 NA
ATOM      5  C   UNL     1       1.058   9.238  20.182  0.00  0.00    +0.000 A 
ATOM      6  N   UNL     1       1.740   8.524  19.185  0.00  0.00    +0.000 N 
ATOM      7  C   UNL     1       2.227   7.233  19.334  0.00  0.00    +0.000 C 
ATOM      8  O   UNL     1       2.219   6.546  20.352  0.00  0.00    +0.000 OA
ATOM      9  C   UNL     1       0.444  10.435  19.831  0.00  0.00    +0.000 A 
ATOM     10  H   UNL     1       1.768   8.938  18.264  0.00  0.00    +0.000 HD
ENDROOT
BRANCH   1  11
ATOM     11  C   UNL     1      -1.013  12.375  20.428  0.00  0.00    +0.000 C 
ATOM     12  O   UNL     1      -0.353  13.400  20.289  0.00  0.00    +0.000 OA
BRANCH  11  15
ATOM     13  N   UNL     1      -4.445  12.110  19.180  0.00  0.00    +0.000 N 
ATOM     14  C   UNL     1      -3.093  11.901  19.062  0.00  0.00    +0.000 A 
ATOM     15  C   UNL     1      -2.463  12.343  20.211  0.00  0.00    +0.000 A 
ATOM     16  C   UNL     1      -3.505  12.709  21.119  0.00  0.00    +0.000 A 
ATOM     17  C   UNL     1      -3.518  13.187  22.440  0.00  0.00    +0.000 A 
ATOM     18  N   UNL     1      -4.688  13.487  23.060  0.00  0.00    +0.000 NA
ATOM     19  C   UNL     1      -5.845  13.316  22.386  0.00  0.00    +0.000 A 
ATOM     20  C   UNL     1      -5.940  12.859  21.080  0.00  0.00    +0.000 A 
ATOM     21  C   UNL     1      -4.728  12.558  20.453  0.00  0.00    +0.000 A 
BRANCH  13  23
ATOM     22  C   UNL     1      -4.667  11.670  16.761  0.00  0.00    +0.000 C 
ATOM     23  C   UNL     1      -5.396  11.934  18.083  0.00  0.00    +0.000 C 
ATOM     24  C   UNL     1      -6.417  10.838  18.384  0.00  0.00    +0.000 C 
ENDBRANCH  13  23
ENDBRANCH  11  15
ENDBRANCH   1  11
BRANCH   7  25
ATOM     25  C   UNL     1       2.776   6.665  18.028  0.00  0.00    +0.000 C 
BRANCH  25  26
ATOM     26  C   UNL     1       2.800   5.149  17.956  0.00  0.00    +0.000 A 
ATOM     27  C   UNL     1       1.607   4.405  17.930  0.00  0.00    +0.000 A 
ATOM     28  C   UNL     1       1.624   3.011  17.980  0.00  0.00    +0.000 A 
ATOM     29  C   UNL     1       2.833   2.331  18.059  0.00  0.00    +0.000 A 
ATOM     30  C   UNL     1       4.031   3.044  18.013  0.00  0.00    +0.000 A 
ATOM     31  C   UNL     1       4.014   4.440  17.902  0.00  0.00    +0.000 A 
BRANCH  31  32
ATOM     32  O   UNL     1       5.224   5.076  17.875  0.00  0.00    +0.000 OA
BRANCH  32  33
ATOM     33  C   UNL     1       5.828   5.108  16.582  0.00  0.00    +0.000 C 
ATOM     34  F   UNL     1       4.949   4.941  15.569  0.00  0.00    +0.000 F 
ATOM     35  F   UNL     1       6.413   6.317  16.419  0.00  0.00    +0.000 F 
ATOM     36  F   UNL     1       6.783   4.159  16.482  0.00  0.00    +0.000 F 
ENDBRANCH  32  33
ENDBRANCH  31  32
ENDBRANCH  25  26
ENDBRANCH   7  25
TORSDOF 7
ENDMDL
