MODEL 1
REMARK VINA RESULT:      -8.1      0.000      0.000
REMARK  Name = 
REMARK  3 active torsions:
REMARK  status: ('A' for Active; 'I' for Inactive)
REMARK    1  A    between atoms: C_1  and  C_2
REMARK    2  A    between atoms: C_2  and  C_3
REMARK    3  A    between atoms: C_16  and  N_17
REMARK                            x       y       z     vdW  Elec       q    Type
REMARK                         _______ _______ _______ _____ _____    ______ ____
ROOT
ATOM      1  C   UNL     1       5.565   4.440  15.573  0.00  0.00    +0.000 C 
ATOM      2  C   UNL     1       6.382   5.483  15.830  0.00  0.00    +0.000 C 
ATOM      3  C   UNL     1       6.066   6.328  16.998  0.00  0.00    +0.000 C 
ATOM      4  C   UNL     1       4.733   7.071  16.564  0.00  0.00    +0.000 C 
ATOM      5  C   UNL     1       3.729   7.081  17.642  0.00  0.00    +0.000 A 
ATOM      6  N   UNL     1       2.962   8.175  17.824  0.00  0.00    +0.000 NA
ATOM      7  C   UNL     1       2.108   8.285  18.847  0.00  0.00    +0.000 A 
ATOM      8  C   UNL     1       1.315   9.437  18.932  0.00  0.00    +0.000 A 
ATOM      9  C   UNL     1       0.485   9.648  20.025  0.00  0.00    +0.000 A 
ATOM     10  C   UNL     1       0.467   8.719  21.066  0.00  0.00    +0.000 A 
ATOM     11 CL   UNL     1      -0.544   9.027  22.466  0.00  0.00    +0.000 Cl
ATOM     12  C   UNL     1       1.246   7.552  20.993  0.00  0.00    +0.000 A 
ATOM     13  C   UNL     1       2.071   7.295  19.858  0.00  0.00    +0.000 A 
ATOM     14  C   UNL     1       2.861   6.107  19.673  0.00  0.00    +0.000 A 
ATOM     15  C   UNL     1       3.639   5.954  18.463  0.00  0.00    +0.000 A 
ATOM     16  C   UNL     1       4.545   4.738  18.081  0.00  0.00    +0.000 C 
ATOM     17  C   UNL     1       4.435   4.060  16.611  0.00  0.00    +0.000 C 
ATOM     18  C   UNL     1       5.942   5.324  18.191  0.00  0.00    +0.000 C 
ENDROOT
BRANCH  14  19
ATOM     19  N   UNL     1       2.923   5.121  20.710  0.00  0.00    +0.000 N 
ATOM     20  H   UNL     1       3.786   4.603  20.921  0.00  0.00    +0.000 HD
ATOM     21  H   UNL     1       2.084   4.739  21.157  0.00  0.00    +0.000 HD
ENDBRANCH  14  19
BRANCH   1  23
ATOM     22  C   UNL     1       6.796   4.345  13.323  0.00  0.00    +0.000 C 
ATOM     23  C   UNL     1       5.882   3.619  14.330  0.00  0.00    +0.000 C 
ENDBRANCH   1  23
TORSDOF 2
ENDMDL
MODEL 2
REMARK VINA RESULT:      -7.5      1.121      1.442
REMARK  Name = 
REMARK  3 active torsions:
REMARK  status: ('A' for Active; 'I' for Inactive)
REMARK    1  A    between atoms: C_1  and  C_2
REMARK    2  A    between atoms: C_2  and  C_3
REMARK    3  A    between atoms: C_16  and  N_17
REMARK                            x       y       z     vdW  Elec       q    Type
REMARK                         _______ _______ _______ _____ _____    ______ ____
ROOT
ATOM      1  C   UNL     1       6.068   4.031  14.316  0.00  0.00    +0.000 C 
ATOM      2  C   UNL     1       6.973   4.956  14.701  0.00  0.00    +0.000 C 
ATOM      3  C   UNL     1       6.727   5.671  15.967  0.00  0.00    +0.000 C 
ATOM      4  C   UNL     1       5.469   6.580  15.636  0.00  0.00    +0.000 C 
ATOM      5  C   UNL     1       4.462   6.544  16.711  0.00  0.00    +0.000 A 
ATOM      6  N   UNL     1       3.795   7.671  17.033  0.00  0.00    +0.000 NA
ATOM      7  C   UNL     1       2.947   7.727  18.066  0.00  0.00    +0.000 A 
ATOM      8  C   UNL     1       2.260   8.925  18.299  0.00  0.00    +0.000 A 
ATOM      9  C   UNL     1       1.445   9.071  19.414  0.00  0.00    +0.000 A 
ATOM     10  C   UNL     1       1.335   8.023  20.328  0.00  0.00    +0.000 A 
ATOM     11 CL   UNL     1       0.346   8.241  21.760  0.00  0.00    +0.000 Cl
ATOM     12  C   UNL     1       2.006   6.809  20.105  0.00  0.00    +0.000 A 
ATOM     13  C   UNL     1       2.813   6.624  18.943  0.00  0.00    +0.000 A 
ATOM     14  C   UNL     1       3.495   5.403  18.606  0.00  0.00    +0.000 A 
ATOM     15  C   UNL     1       4.265   5.335  17.383  0.00  0.00    +0.000 A 
ATOM     16  C   UNL     1       5.061   4.100  16.846  0.00  0.00    +0.000 C 
ATOM     17  C   UNL     1       4.900   3.626  15.303  0.00  0.00    +0.000 C 
ATOM     18  C   UNL     1       6.503   4.539  17.024  0.00  0.00    +0.000 C 
ENDROOT
BRANCH  14  19
ATOM     19  N   UNL     1       3.460   4.292  19.509  0.00  0.00    +0.000 N 
ATOM     20  H   UNL     1       4.024   4.268  20.368  0.00  0.00    +0.000 HD
ATOM     21  H   UNL     1       3.037   3.393  19.259  0.00  0.00    +0.000 HD
ENDBRANCH  14  19
BRANCH   1  23
ATOM     22  C   UNL     1       5.089   3.336  12.048  0.00  0.00    +0.000 C 
ATOM     23  C   UNL     1       6.319   3.349  12.978  0.00  0.00    +0.000 C 
ENDBRANCH   1  23
TORSDOF 2
ENDMDL
MODEL 3
REMARK VINA RESULT:      -7.0      2.203      3.766
REMARK  Name = 
REMARK  3 active torsions:
REMARK  status: ('A' for Active; 'I' for Inactive)
REMARK    1  A    between atoms: C_1  and  C_2
REMARK    2  A    between atoms: C_2  and  C_3
REMARK    3  A    between atoms: C_16  and  N_17
REMARK                            x       y       z     vdW  Elec       q    Type
REMARK                         _______ _______ _______ _____ _____    ______ ____
ROOT
ATOM      1  C   UNL     1       4.647   5.258  18.370  0.00  0.00    +0.000 C 
ATOM      2  C   UNL     1       3.589   4.465  18.643  0.00  0.00    +0.000 C 
ATOM      3  C   UNL     1       2.287   5.118  18.880  0.00  0.00    +0.000 C 
ATOM      4  C   UNL     1       2.494   5.856  20.269  0.00  0.00    +0.000 C 
ATOM      5  C   UNL     1       1.962   7.230  20.250  0.00  0.00    +0.000 A 
ATOM      6  N   UNL     1       1.347   7.718  21.346  0.00  0.00    +0.000 NA
ATOM      7  C   UNL     1       0.754   8.916  21.356  0.00  0.00    +0.000 A 
ATOM      8  C   UNL     1       0.181   9.366  22.553  0.00  0.00    +0.000 A 
ATOM      9  C   UNL     1      -0.534  10.556  22.595  0.00  0.00    +0.000 A 
ATOM     10  C   UNL     1      -0.712  11.294  21.424  0.00  0.00    +0.000 A 
ATOM     11 CL   UNL     1      -1.665  12.766  21.481  0.00  0.00    +0.000 Cl
ATOM     12  C   UNL     1      -0.134  10.866  20.217  0.00  0.00    +0.000 A 
ATOM     13  C   UNL     1       0.641   9.670  20.163  0.00  0.00    +0.000 A 
ATOM     14  C   UNL     1       1.310   9.181  18.987  0.00  0.00    +0.000 A 
ATOM     15  C   UNL     1       2.089   7.964  19.068  0.00  0.00    +0.000 A 
ATOM     16  C   UNL     1       2.890   7.287  17.908  0.00  0.00    +0.000 C 
ATOM     17  C   UNL     1       4.422   6.806  18.138  0.00  0.00    +0.000 C 
ATOM     18  C   UNL     1       2.073   6.037  17.632  0.00  0.00    +0.000 C 
ENDROOT
BRANCH  14  19
ATOM     19  N   UNL     1       1.151   9.863  17.738  0.00  0.00    +0.000 N 
ATOM     20  H   UNL     1       1.755   9.670  16.928  0.00  0.00    +0.000 HD
ATOM     21  H   UNL     1       0.572  10.702  17.639  0.00  0.00    +0.000 HD
ENDBRANCH  14  19
BRANCH   1  23
ATOM     22  C   UNL     1       7.198   5.517  18.251  0.00  0.00    +0.000 C 
ATOM     23  C   UNL     1       5.989   4.562  18.186  0.00  0.00    +0.000 C 
ENDBRANCH   1  23
TORSDOF 2
ENDMDL
MODEL 4
REMARK VINA RESULT:      -6.6      2.743      4.156
REMARK  Name = 
REMARK  3 active torsions:
REMARK  status: ('A' for Active; 'I' for Inactive)
REMARK    1  A    between atoms: C_1  and  C_2
REMARK    2  A    between atoms: C_2  and  C_3
REMARK    3  A    between atoms: C_16  and  N_17
REMARK                            x       y       z     vdW  Elec       q    Type
REMARK                         _______ _______ _______ _____ _____    ______ ____
ROOT
ATOM      1  C   UNL     1       3.605   3.119  19.234  0.00  0.00    +0.000 C 
ATOM      2  C   UNL     1       2.290   2.824  19.317  0.00  0.00    +0.000 C 
ATOM      3  C   UNL     1       1.331   3.941  19.225  0.00  0.00    +0.000 C 
ATOM      4  C   UNL     1       1.562   4.736  20.578  0.00  0.00    +0.000 C 
ATOM      5  C   UNL     1       1.626   6.192  20.361  0.00  0.00    +0.000 A 
ATOM      6  N   UNL     1       1.070   7.023  21.266  0.00  0.00    +0.000 NA
ATOM      7  C   UNL     1       1.005   8.345  21.073  0.00  0.00    +0.000 A 
ATOM      8  C   UNL     1       0.454   9.139  22.087  0.00  0.00    +0.000 A 
ATOM      9  C   UNL     1       0.269  10.503  21.900  0.00  0.00    +0.000 A 
ATOM     10  C   UNL     1       0.607  11.082  20.677  0.00  0.00    +0.000 A 
ATOM     11 CL   UNL     1       0.317  12.795  20.435  0.00  0.00    +0.000 Cl
ATOM     12  C   UNL     1       1.173  10.304  19.652  0.00  0.00    +0.000 A 
ATOM     13  C   UNL     1       1.411   8.910  19.841  0.00  0.00    +0.000 A 
ATOM     14  C   UNL     1       2.031   8.048  18.870  0.00  0.00    +0.000 A 
ATOM     15  C   UNL     1       2.239   6.652  19.192  0.00  0.00    +0.000 A 
ATOM     16  C   UNL     1       2.900   5.570  18.278  0.00  0.00    +0.000 C 
ATOM     17  C   UNL     1       4.052   4.590  18.865  0.00  0.00    +0.000 C 
ATOM     18  C   UNL     1       1.720   4.690  17.908  0.00  0.00    +0.000 C 
ENDROOT
BRANCH  14  19
ATOM     19  N   UNL     1       2.376   8.557  17.578  0.00  0.00    +0.000 N 
ATOM     20  H   UNL     1       2.026   9.461  17.235  0.00  0.00    +0.000 HD
ATOM     21  H   UNL     1       2.816   7.977  16.857  0.00  0.00    +0.000 HD
ENDBRANCH  14  19
BRANCH   1  23
ATOM     22  C   UNL     1       4.896   1.606  20.855  0.00  0.00    +0.000 C 
ATOM     23  C   UNL     1       4.574   1.954  19.389  0.00  0.00    +0.000 C 
ENDBRANCH   1  23
TORSDOF 2
ENDMDL
MODEL 5
REMARK VINA RESULT:      -6.5      3.931      9.283
REMARK  Name = 
REMARK  3 active torsions:
REMARK  status: ('A' for Active; 'I' for Inactive)
REMARK    1  A    between atoms: C_1  and  C_2
REMARK    2  A    between atoms: C_2  and  C_3
REMARK    3  A    between atoms: C_16  and  N_17
REMARK                            x       y       z     vdW  Elec       q    Type
REMARK                         _______ _______ _______ _____ _____    ______ ____
ROOT
ATOM      1  C   UNL     1      -3.163  12.742  22.319  0.00  0.00    +0.000 C 
ATOM      2  C   UNL     1      -2.165  12.874  23.217  0.00  0.00    +0.000 C 
ATOM      3  C   UNL     1      -0.817  12.427  22.815  0.00  0.00    +0.000 C 
ATOM      4  C   UNL     1      -0.963  10.849  22.736  0.00  0.00    +0.000 C 
ATOM      5  C   UNL     1      -0.332  10.296  21.525  0.00  0.00    +0.000 A 
ATOM      6  N   UNL     1       0.322   9.119  21.597  0.00  0.00    +0.000 NA
ATOM      7  C   UNL     1       1.002   8.617  20.560  0.00  0.00    +0.000 A 
ATOM      8  C   UNL     1       1.612   7.364  20.707  0.00  0.00    +0.000 A 
ATOM      9  C   UNL     1       2.412   6.841  19.700  0.00  0.00    +0.000 A 
ATOM     10  C   UNL     1       2.637   7.587  18.543  0.00  0.00    +0.000 A 
ATOM     11 CL   UNL     1       3.695   6.938  17.303  0.00  0.00    +0.000 Cl
ATOM     12  C   UNL     1       2.024   8.839  18.372  0.00  0.00    +0.000 A 
ATOM     13  C   UNL     1       1.163   9.374  19.375  0.00  0.00    +0.000 A 
ATOM     14  C   UNL     1       0.454  10.621  19.266  0.00  0.00    +0.000 A 
ATOM     15  C   UNL     1      -0.410  11.042  20.347  0.00  0.00    +0.000 A 
ATOM     16  C   UNL     1      -1.265  12.351  20.405  0.00  0.00    +0.000 C 
ATOM     17  C   UNL     1      -2.827  12.295  20.840  0.00  0.00    +0.000 C 
ATOM     18  C   UNL     1      -0.543  13.165  21.464  0.00  0.00    +0.000 C 
ENDROOT
BRANCH  14  19
ATOM     19  N   UNL     1       0.657  11.461  18.124  0.00  0.00    +0.000 N 
ATOM     20  H   UNL     1       0.652  12.487  18.193  0.00  0.00    +0.000 HD
ATOM     21  H   UNL     1       0.621  11.104  17.164  0.00  0.00    +0.000 HD
ENDBRANCH  14  19
BRANCH   1  23
ATOM     22  C   UNL     1      -4.897  12.696  24.210  0.00  0.00    +0.000 C 
ATOM     23  C   UNL     1      -4.553  13.158  22.780  0.00  0.00    +0.000 C 
ENDBRANCH   1  23
TORSDOF 2
ENDMDL
MODEL 6
REMARK VINA RESULT:      -6.4      3.251      8.377
REMARK  Name = 
REMARK  3 active torsions:
REMARK  status: ('A' for Active; 'I' for Inactive)
REMARK    1  A    between atoms: C_1  and  C_2
REMARK    2  A    between atoms: C_2  and  C_3
REMARK    3  A    between atoms: C_16  and  N_17
REMARK                            x       y       z     vdW  Elec       q    Type
REMARK                         _______ _______ _______ _____ _____    ______ ____
ROOT
ATOM      1  C   UNL     1      -2.022  12.263  21.340  0.00  0.00    +0.000 C 
ATOM      2  C   UNL     1      -1.079  12.312  22.305  0.00  0.00    +0.000 C 
ATOM      3  C   UNL     1       0.229  11.693  22.016  0.00  0.00    +0.000 C 
ATOM      4  C   UNL     1      -0.100  10.142  21.976  0.00  0.00    +0.000 C 
ATOM      5  C   UNL     1       0.541   9.469  20.833  0.00  0.00    +0.000 A 
ATOM      6  N   UNL     1       1.041   8.227  20.989  0.00  0.00    +0.000 NA
ATOM      7  C   UNL     1       1.725   7.607  20.021  0.00  0.00    +0.000 A 
ATOM      8  C   UNL     1       2.167   6.297  20.252  0.00  0.00    +0.000 A 
ATOM      9  C   UNL     1       2.966   5.644  19.323  0.00  0.00    +0.000 A 
ATOM     10  C   UNL     1       3.359   6.311  18.162  0.00  0.00    +0.000 A 
ATOM     11 CL   UNL     1       4.413   5.492  17.024  0.00  0.00    +0.000 Cl
ATOM     12  C   UNL     1       2.915   7.619  17.907  0.00  0.00    +0.000 A 
ATOM     13  C   UNL     1       2.058   8.292  18.828  0.00  0.00    +0.000 A 
ATOM     14  C   UNL     1       1.514   9.608  18.628  0.00  0.00    +0.000 A 
ATOM     15  C   UNL     1       0.635  10.172  19.629  0.00  0.00    +0.000 A 
ATOM     16  C   UNL     1      -0.057  11.574  19.584  0.00  0.00    +0.000 C 
ATOM     17  C   UNL     1      -1.640  11.721  19.904  0.00  0.00    +0.000 C 
ATOM     18  C   UNL     1       0.684  12.339  20.666  0.00  0.00    +0.000 C 
ENDROOT
BRANCH  14  19
ATOM     19  N   UNL     1       1.896  10.372  17.479  0.00  0.00    +0.000 N 
ATOM     20  H   UNL     1       1.725  11.384  17.414  0.00  0.00    +0.000 HD
ATOM     21  H   UNL     1       2.172   9.936  16.594  0.00  0.00    +0.000 HD
ENDBRANCH  14  19
BRANCH   1  23
ATOM     22  C   UNL     1      -3.713  12.815  23.190  0.00  0.00    +0.000 C 
ATOM     23  C   UNL     1      -3.379  12.860  21.685  0.00  0.00    +0.000 C 
ENDBRANCH   1  23
TORSDOF 2
ENDMDL
MODEL 7
REMARK VINA RESULT:      -6.4      2.318      3.200
REMARK  Name = 
REMARK  3 active torsions:
REMARK  status: ('A' for Active; 'I' for Inactive)
REMARK    1  A    between atoms: C_1  and  C_2
REMARK    2  A    between atoms: C_2  and  C_3
REMARK    3  A    between atoms: C_16  and  N_17
REMARK                            x       y       z     vdW  Elec       q    Type
REMARK                         _______ _______ _______ _____ _____    ______ ____
ROOT
ATOM      1  C   UNL     1       2.810   4.024  17.983  0.00  0.00    +0.000 C 
ATOM      2  C   UNL     1       3.920   4.703  17.621  0.00  0.00    +0.000 C 
ATOM      3  C   UNL     1       4.093   6.067  18.155  0.00  0.00    +0.000 C 
ATOM      4  C   UNL     1       2.960   6.896  17.416  0.00  0.00    +0.000 C 
ATOM      5  C   UNL     1       2.236   7.789  18.338  0.00  0.00    +0.000 A 
ATOM      6  N   UNL     1       1.857   9.012  17.916  0.00  0.00    +0.000 NA
ATOM      7  C   UNL     1       1.290   9.904  18.735  0.00  0.00    +0.000 A 
ATOM      8  C   UNL     1       0.883  11.134  18.202  0.00  0.00    +0.000 A 
ATOM      9  C   UNL     1       0.381  12.134  19.024  0.00  0.00    +0.000 A 
ATOM     10  C   UNL     1       0.314  11.923  20.402  0.00  0.00    +0.000 A 
ATOM     11 CL   UNL     1      -0.269  13.215  21.435  0.00  0.00    +0.000 Cl
ATOM     12  C   UNL     1       0.706  10.691  20.954  0.00  0.00    +0.000 A 
ATOM     13  C   UNL     1       1.182   9.636  20.121  0.00  0.00    +0.000 A 
ATOM     14  C   UNL     1       1.556   8.329  20.590  0.00  0.00    +0.000 A 
ATOM     15  C   UNL     1       2.002   7.335  19.638  0.00  0.00    +0.000 A 
ATOM     16  C   UNL     1       2.438   5.866  19.954  0.00  0.00    +0.000 C 
ATOM     17  C   UNL     1       1.851   4.629  19.085  0.00  0.00    +0.000 C 
ATOM     18  C   UNL     1       3.935   5.909  19.704  0.00  0.00    +0.000 C 
ENDROOT
BRANCH  14  19
ATOM     19  N   UNL     1       1.547   8.043  21.993  0.00  0.00    +0.000 N 
ATOM     20  H   UNL     1       2.131   8.563  22.661  0.00  0.00    +0.000 HD
ATOM     21  H   UNL     1       1.122   7.195  22.380  0.00  0.00    +0.000 HD
ENDBRANCH  14  19
BRANCH   1  23
ATOM     22  C   UNL     1       3.428   1.535  18.093  0.00  0.00    +0.000 C 
ATOM     23  C   UNL     1       2.630   2.640  17.373  0.00  0.00    +0.000 C 
ENDBRANCH   1  23
TORSDOF 2
ENDMDL
MODEL 8
REMARK VINA RESULT:      -6.4      8.219     11.249
REMARK  Name = 
REMARK  3 active torsions:
REMARK  status: ('A' for Active; 'I' for Inactive)
REMARK    1  A    between atoms: C_1  and  C_2
REMARK    2  A    between atoms: C_2  and  C_3
REMARK    3  A    between atoms: C_16  and  N_17
REMARK                            x       y       z     vdW  Elec       q    Type
REMARK                         _______ _______ _______ _____ _____    ______ ____
ROOT
ATOM      1  C   UNL     1      -2.738  14.458  24.251  0.00  0.00    +0.000 C 
ATOM      2  C   UNL     1      -3.570  13.437  24.547  0.00  0.00    +0.000 C 
ATOM      3  C   UNL     1      -3.691  12.344  23.563  0.00  0.00    +0.000 C 
ATOM      4  C   UNL     1      -4.450  13.027  22.348  0.00  0.00    +0.000 C 
ATOM      5  C   UNL     1      -3.844  12.677  21.052  0.00  0.00    +0.000 A 
ATOM      6  N   UNL     1      -4.640  12.466  19.984  0.00  0.00    +0.000 NA
ATOM      7  C   UNL     1      -4.159  12.046  18.809  0.00  0.00    +0.000 A 
ATOM      8  C   UNL     1      -5.051  11.898  17.738  0.00  0.00    +0.000 A 
ATOM      9  C   UNL     1      -4.624  11.371  16.526  0.00  0.00    +0.000 A 
ATOM     10  C   UNL     1      -3.301  10.953  16.385  0.00  0.00    +0.000 A 
ATOM     11 CL   UNL     1      -2.791  10.237  14.867  0.00  0.00    +0.000 Cl
ATOM     12  C   UNL     1      -2.388  11.105  17.443  0.00  0.00    +0.000 A 
ATOM     13  C   UNL     1      -2.796  11.685  18.680  0.00  0.00    +0.000 A 
ATOM     14  C   UNL     1      -1.923  11.926  19.798  0.00  0.00    +0.000 A 
ATOM     15  C   UNL     1      -2.454  12.545  20.993  0.00  0.00    +0.000 A 
ATOM     16  C   UNL     1      -1.664  12.894  22.296  0.00  0.00    +0.000 C 
ATOM     17  C   UNL     1      -1.806  14.360  22.977  0.00  0.00    +0.000 C 
ATOM     18  C   UNL     1      -2.218  11.891  23.292  0.00  0.00    +0.000 C 
ENDROOT
BRANCH  14  19
ATOM     19  N   UNL     1      -0.558  11.496  19.745  0.00  0.00    +0.000 N 
ATOM     20  H   UNL     1      -0.268  10.558  20.052  0.00  0.00    +0.000 HD
ATOM     21  H   UNL     1       0.219  12.146  19.591  0.00  0.00    +0.000 HD
ENDBRANCH  14  19
BRANCH   1  23
ATOM     22  C   UNL     1      -1.371  15.632  26.078  0.00  0.00    +0.000 C 
ATOM     23  C   UNL     1      -2.676  15.598  25.258  0.00  0.00    +0.000 C 
ENDBRANCH   1  23
TORSDOF 2
ENDMDL
MODEL 9
REMARK VINA RESULT:      -6.3      6.704      8.979
REMARK  Name = 
REMARK  3 active torsions:
REMARK  status: ('A' for Active; 'I' for Inactive)
REMARK    1  A    between atoms: C_1  and  C_2
REMARK    2  A    between atoms: C_2  and  C_3
REMARK    3  A    between atoms: C_16  and  N_17
REMARK                            x       y       z     vdW  Elec       q    Type
REMARK                         _______ _______ _______ _____ _____    ______ ____
ROOT
ATOM      1  C   UNL     1       1.190  12.201  18.688  0.00  0.00    +0.000 C 
ATOM      2  C   UNL     1       1.105  10.932  19.141  0.00  0.00    +0.000 C 
ATOM      3  C   UNL     1      -0.171  10.504  19.745  0.00  0.00    +0.000 C 
ATOM      4  C   UNL     1      -0.230  11.327  21.100  0.00  0.00    +0.000 C 
ATOM      5  C   UNL     1      -1.560  11.917  21.332  0.00  0.00    +0.000 A 
ATOM      6  N   UNL     1      -2.060  11.954  22.584  0.00  0.00    +0.000 NA
ATOM      7  C   UNL     1      -3.300  12.381  22.843  0.00  0.00    +0.000 A 
ATOM      8  C   UNL     1      -3.722  12.432  24.178  0.00  0.00    +0.000 A 
ATOM      9  C   UNL     1      -5.030  12.771  24.497  0.00  0.00    +0.000 A 
ATOM     10  C   UNL     1      -5.943  13.032  23.475  0.00  0.00    +0.000 A 
ATOM     11 CL   UNL     1      -7.605  13.404  23.891  0.00  0.00    +0.000 Cl
ATOM     12  C   UNL     1      -5.535  12.999  22.130  0.00  0.00    +0.000 A 
ATOM     13  C   UNL     1      -4.185  12.695  21.784  0.00  0.00    +0.000 A 
ATOM     14  C   UNL     1      -3.667  12.688  20.442  0.00  0.00    +0.000 A 
ATOM     15  C   UNL     1      -2.269  12.387  20.224  0.00  0.00    +0.000 A 
ATOM     16  C   UNL     1      -1.526  12.341  18.848  0.00  0.00    +0.000 C 
ATOM     17  C   UNL     1      -0.107  13.105  18.654  0.00  0.00    +0.000 C 
ATOM     18  C   UNL     1      -1.254  10.858  18.673  0.00  0.00    +0.000 C 
ENDROOT
BRANCH  14  19
ATOM     19  N   UNL     1      -4.547  12.912  19.335  0.00  0.00    +0.000 N 
ATOM     20  H   UNL     1      -5.559  13.043  19.458  0.00  0.00    +0.000 HD
ATOM     21  H   UNL     1      -4.258  12.760  18.363  0.00  0.00    +0.000 HD
ENDBRANCH  14  19
BRANCH   1  23
ATOM     22  C   UNL     1       2.986  14.031  18.588  0.00  0.00    +0.000 C 
ATOM     23  C   UNL     1       2.536  12.632  18.121  0.00  0.00    +0.000 C 
ENDBRANCH   1  23
TORSDOF 2
ENDMDL
