MODEL 1
REMARK VINA RESULT:      -8.1      0.000      0.000
REMARK  Name = 
REMARK  14 active torsions:
REMARK  status: ('A' for Active; 'I' for Inactive)
REMARK    1  A    between atoms: C_1  and  O_2
REMARK    2  A    between atoms: O_2  and  C_3
REMARK    3  A    between atoms: C_3  and  C_4
REMARK    4  A    between atoms: C_7  and  O_8
REMARK    5  A    between atoms: O_8  and  C_9
REMARK    6  A    between atoms: C_9  and  C_10
REMARK    7  A    between atoms: C_13  and  C_14
REMARK    8  A    between atoms: C_23  and  C_24
REMARK    9  A    between atoms: C_24  and  O_25
REMARK   10  A    between atoms: O_25  and  C_26
REMARK   11  A    between atoms: C_26  and  C_27
REMARK   12  A    between atoms: C_33  and  C_34
REMARK   13  A    between atoms: C_33  and  O_35
REMARK   14  A    between atoms: O_35  and  C_36
REMARK                            x       y       z     vdW  Elec       q    Type
REMARK                         _______ _______ _______ _____ _____    ______ ____
ROOT
ATOM      1  C   UNL     1       6.324   6.145  17.742  0.00  0.00    +0.000 C 
ATOM      2  C   UNL     1       7.101   7.371  17.223  0.00  0.00    +0.000 C 
ATOM      3  O   UNL     1       5.065   6.658  18.229  0.00  0.00    +0.000 OA
ATOM      4  C   UNL     1       4.167   5.604  18.603  0.00  0.00    +0.000 C 
ATOM      5  C   UNL     1       2.803   6.214  19.021  0.00  0.00    +0.000 C 
ATOM      6  C   UNL     1       1.832   5.130  19.380  0.00  0.00    +0.000 C 
ATOM      7  C   UNL     1       1.887   3.872  18.910  0.00  0.00    +0.000 C 
ATOM      8  C   UNL     1       3.039   3.477  18.035  0.00  0.00    +0.000 C 
ATOM      9  O   UNL     1       3.228   2.284  17.801  0.00  0.00    +0.000 OA
ATOM     10  C   UNL     1       3.930   4.602  17.475  0.00  0.00    +0.000 C 
ATOM     11  O   UNL     1       5.153   4.068  16.969  0.00  0.00    +0.000 OA
ATOM     12  C   UNL     1       6.075   5.093  16.548  0.00  0.00    +0.000 C 
ATOM     13  C   UNL     1       7.386   4.355  16.212  0.00  0.00    +0.000 C 
ENDROOT
BRANCH   1  15
ATOM     14  C   UNL     1       8.196   6.170  19.285  0.00  0.00    +0.000 C 
ATOM     15  O   UNL     1       7.051   5.488  18.799  0.00  0.00    +0.000 OA
ENDBRANCH   1  15
BRANCH  12  16
ATOM     16  O   UNL     1       5.595   5.812  15.395  0.00  0.00    +0.000 OA
ATOM     17  C   UNL     1       5.583   5.109  14.164  0.00  0.00    +0.000 C 
ENDBRANCH  12  16
BRANCH   5  18
ATOM     18  O   UNL     1       2.272   6.914  17.894  0.00  0.00    +0.000 OA
BRANCH  18  19
ATOM     19  C   UNL     1       2.614   8.295  17.807  0.00  0.00    +0.000 C 
BRANCH  19  20
ATOM     20  C   UNL     1       1.709   9.117  18.690  0.00  0.00    +0.000 A 
ATOM     21  C   UNL     1       1.502   8.801  20.036  0.00  0.00    +0.000 A 
ATOM     22  C   UNL     1       0.615   9.544  20.816  0.00  0.00    +0.000 A 
ATOM     23  C   UNL     1      -0.090  10.639  20.288  0.00  0.00    +0.000 A 
ATOM     24  C   UNL     1       0.160  10.976  18.947  0.00  0.00    +0.000 A 
ATOM     25  C   UNL     1       1.041  10.226  18.157  0.00  0.00    +0.000 A 
BRANCH  23  26
ATOM     26  C   UNL     1      -1.086  11.364  21.111  0.00  0.00    +0.000 A 
ATOM     27  C   UNL     1      -1.186  11.152  22.501  0.00  0.00    +0.000 A 
ATOM     28  C   UNL     1      -2.181  11.761  23.265  0.00  0.00    +0.000 A 
ATOM     29  C   UNL     1      -3.090  12.625  22.663  0.00  0.00    +0.000 A 
ATOM     30  C   UNL     1      -2.998  12.877  21.298  0.00  0.00    +0.000 A 
ATOM     31  C   UNL     1      -2.012  12.250  20.533  0.00  0.00    +0.000 A 
ENDBRANCH  23  26
ENDBRANCH  19  20
ENDBRANCH  18  19
ENDBRANCH   5  18
BRANCH   7  32
ATOM     32  C   UNL     1       0.833   2.847  19.200  0.00  0.00    +0.000 C 
BRANCH  32  33
ATOM     33  O   UNL     1       1.314   1.850  20.114  0.00  0.00    +0.000 OA
BRANCH  33  34
ATOM     34  C   UNL     1       1.792   2.301  21.302  0.00  0.00    +0.000 C 
ATOM     35  C   UNL     1       3.286   2.168  21.352  0.00  0.00    +0.000 C 
ATOM     36  O   UNL     1       1.112   2.753  22.215  0.00  0.00    +0.000 OA
ENDBRANCH  33  34
ENDBRANCH  32  33
ENDBRANCH   7  32
TORSDOF 9
ENDMDL
MODEL 2
REMARK VINA RESULT:      -8.1      5.112     10.211
REMARK  Name = 
REMARK  14 active torsions:
REMARK  status: ('A' for Active; 'I' for Inactive)
REMARK    1  A    between atoms: C_1  and  O_2
REMARK    2  A    between atoms: O_2  and  C_3
REMARK    3  A    between atoms: C_3  and  C_4
REMARK    4  A    between atoms: C_7  and  O_8
REMARK    5  A    between atoms: O_8  and  C_9
REMARK    6  A    between atoms: C_9  and  C_10
REMARK    7  A    between atoms: C_13  and  C_14
REMARK    8  A    between atoms: C_23  and  C_24
REMARK    9  A    between atoms: C_24  and  O_25
REMARK   10  A    between atoms: O_25  and  C_26
REMARK   11  A    between atoms: C_26  and  C_27
REMARK   12  A    between atoms: C_33  and  C_34
REMARK   13  A    between atoms: C_33  and  O_35
REMARK   14  A    between atoms: O_35  and  C_36
REMARK                            x       y       z     vdW  Elec       q    Type
REMARK                         _______ _______ _______ _____ _____    ______ ____
ROOT
ATOM      1  C   UNL     1       1.654  15.699  19.404  0.00  0.00    +0.000 C 
ATOM      2  C   UNL     1       2.748  15.830  18.326  0.00  0.00    +0.000 C 
ATOM      3  O   UNL     1       0.968  14.461  19.116  0.00  0.00    +0.000 OA
ATOM      4  C   UNL     1       0.017  14.128  20.137  0.00  0.00    +0.000 C 
ATOM      5  C   UNL     1      -0.611  12.744  19.823  0.00  0.00    +0.000 C 
ATOM      6  C   UNL     1      -1.582  12.353  20.897  0.00  0.00    +0.000 C 
ATOM      7  C   UNL     1      -1.532  12.793  22.166  0.00  0.00    +0.000 C 
ATOM      8  C   UNL     1      -0.497  13.814  22.536  0.00  0.00    +0.000 C 
ATOM      9  O   UNL     1      -0.595  14.396  23.616  0.00  0.00    +0.000 OA
ATOM     10  C   UNL     1       0.639  14.077  21.531  0.00  0.00    +0.000 C 
ATOM     11  O   UNL     1       1.324  15.287  21.854  0.00  0.00    +0.000 OA
ATOM     12  C   UNL     1       2.316  15.644  20.872  0.00  0.00    +0.000 C 
ATOM     13  C   UNL     1       2.813  17.045  21.279  0.00  0.00    +0.000 C 
ENDROOT
BRANCH   1  15
ATOM     14  C   UNL     1       0.592  17.430  18.075  0.00  0.00    +0.000 C 
ATOM     15  O   UNL     1       0.741  16.814  19.345  0.00  0.00    +0.000 OA
ENDBRANCH   1  15
BRANCH  12  16
ATOM     16  O   UNL     1       3.413  14.711  20.846  0.00  0.00    +0.000 OA
ATOM     17  C   UNL     1       4.292  14.729  21.958  0.00  0.00    +0.000 C 
ENDBRANCH  12  16
BRANCH   5  18
ATOM     18  O   UNL     1       0.441  11.776  19.818  0.00  0.00    +0.000 OA
BRANCH  18  19
ATOM     19  C   UNL     1       0.071  10.460  20.221  0.00  0.00    +0.000 C 
BRANCH  19  20
ATOM     20  C   UNL     1       0.993   9.442  19.599  0.00  0.00    +0.000 A 
ATOM     21  C   UNL     1       1.478   9.582  18.296  0.00  0.00    +0.000 A 
ATOM     22  C   UNL     1       2.285   8.595  17.725  0.00  0.00    +0.000 A 
ATOM     23  C   UNL     1       2.650   7.440  18.435  0.00  0.00    +0.000 A 
ATOM     24  C   UNL     1       2.194   7.331  19.760  0.00  0.00    +0.000 A 
ATOM     25  C   UNL     1       1.375   8.313  20.334  0.00  0.00    +0.000 A 
BRANCH  23  26
ATOM     26  C   UNL     1       3.440   6.370  17.783  0.00  0.00    +0.000 A 
ATOM     27  C   UNL     1       4.582   6.665  17.012  0.00  0.00    +0.000 A 
ATOM     28  C   UNL     1       5.275   5.672  16.320  0.00  0.00    +0.000 A 
ATOM     29  C   UNL     1       4.860   4.347  16.403  0.00  0.00    +0.000 A 
ATOM     30  C   UNL     1       3.754   4.020  17.181  0.00  0.00    +0.000 A 
ATOM     31  C   UNL     1       3.051   5.021  17.856  0.00  0.00    +0.000 A 
ENDBRANCH  23  26
ENDBRANCH  19  20
ENDBRANCH  18  19
ENDBRANCH   5  18
BRANCH   7  32
ATOM     32  C   UNL     1      -2.449  12.291  23.239  0.00  0.00    +0.000 C 
BRANCH  32  33
ATOM     33  O   UNL     1      -3.808  12.241  22.780  0.00  0.00    +0.000 OA
BRANCH  33  34
ATOM     34  C   UNL     1      -4.709  12.972  23.485  0.00  0.00    +0.000 C 
ATOM     35  C   UNL     1      -5.023  12.302  24.790  0.00  0.00    +0.000 C 
ATOM     36  O   UNL     1      -5.208  14.029  23.120  0.00  0.00    +0.000 OA
ENDBRANCH  33  34
ENDBRANCH  32  33
ENDBRANCH   7  32
TORSDOF 9
ENDMDL
MODEL 3
REMARK VINA RESULT:      -8.1      5.040     10.196
REMARK  Name = 
REMARK  14 active torsions:
REMARK  status: ('A' for Active; 'I' for Inactive)
REMARK    1  A    between atoms: C_1  and  O_2
REMARK    2  A    between atoms: O_2  and  C_3
REMARK    3  A    between atoms: C_3  and  C_4
REMARK    4  A    between atoms: C_7  and  O_8
REMARK    5  A    between atoms: O_8  and  C_9
REMARK    6  A    between atoms: C_9  and  C_10
REMARK    7  A    between atoms: C_13  and  C_14
REMARK    8  A    between atoms: C_23  and  C_24
REMARK    9  A    between atoms: C_24  and  O_25
REMARK   10  A    between atoms: O_25  and  C_26
REMARK   11  A    between atoms: C_26  and  C_27
REMARK   12  A    between atoms: C_33  and  C_34
REMARK   13  A    between atoms: C_33  and  O_35
REMARK   14  A    between atoms: O_35  and  C_36
REMARK                            x       y       z     vdW  Elec       q    Type
REMARK                         _______ _______ _______ _____ _____    ______ ____
ROOT
ATOM      1  C   UNL     1       1.462  15.530  19.475  0.00  0.00    +0.000 C 
ATOM      2  C   UNL     1       2.576  15.705  18.424  0.00  0.00    +0.000 C 
ATOM      3  O   UNL     1       0.894  14.226  19.228  0.00  0.00    +0.000 OA
ATOM      4  C   UNL     1      -0.059  13.858  20.236  0.00  0.00    +0.000 C 
ATOM      5  C   UNL     1      -0.556  12.412  19.971  0.00  0.00    +0.000 C 
ATOM      6  C   UNL     1      -1.525  11.988  21.033  0.00  0.00    +0.000 C 
ATOM      7  C   UNL     1      -1.555  12.489  22.281  0.00  0.00    +0.000 C 
ATOM      8  C   UNL     1      -0.623  13.611  22.631  0.00  0.00    +0.000 C 
ATOM      9  O   UNL     1      -0.805  14.231  23.678  0.00  0.00    +0.000 OA
ATOM     10  C   UNL     1       0.519  13.926  21.648  0.00  0.00    +0.000 C 
ATOM     11  O   UNL     1       1.088  15.203  21.932  0.00  0.00    +0.000 OA
ATOM     12  C   UNL     1       2.077  15.600  20.962  0.00  0.00    +0.000 C 
ATOM     13  C   UNL     1       2.441  17.055  21.315  0.00  0.00    +0.000 C 
ENDROOT
BRANCH   1  15
ATOM     14  C   UNL     1       0.584  17.397  18.198  0.00  0.00    +0.000 C 
ATOM     15  O   UNL     1       0.461  16.558  19.336  0.00  0.00    +0.000 OA
ENDBRANCH   1  15
BRANCH  12  16
ATOM     16  O   UNL     1       3.250  14.764  21.013  0.00  0.00    +0.000 OA
ATOM     17  C   UNL     1       4.138  14.976  22.097  0.00  0.00    +0.000 C 
ENDBRANCH  12  16
BRANCH   5  18
ATOM     18  O   UNL     1       0.573  11.540  20.043  0.00  0.00    +0.000 OA
BRANCH  18  19
ATOM     19  C   UNL     1       0.319  10.244  20.579  0.00  0.00    +0.000 C 
BRANCH  19  20
ATOM     20  C   UNL     1       1.086   9.198  19.810  0.00  0.00    +0.000 A 
ATOM     21  C   UNL     1       1.540   8.021  20.413  0.00  0.00    +0.000 A 
ATOM     22  C   UNL     1       2.297   7.096  19.692  0.00  0.00    +0.000 A 
ATOM     23  C   UNL     1       2.619   7.301  18.340  0.00  0.00    +0.000 A 
ATOM     24  C   UNL     1       2.118   8.465  17.732  0.00  0.00    +0.000 A 
ATOM     25  C   UNL     1       1.367   9.402  18.454  0.00  0.00    +0.000 A 
BRANCH  23  26
ATOM     26  C   UNL     1       3.490   6.346  17.617  0.00  0.00    +0.000 A 
ATOM     27  C   UNL     1       3.283   4.954  17.700  0.00  0.00    +0.000 A 
ATOM     28  C   UNL     1       4.154   4.047  17.097  0.00  0.00    +0.000 A 
ATOM     29  C   UNL     1       5.245   4.509  16.368  0.00  0.00    +0.000 A 
ATOM     30  C   UNL     1       5.459   5.878  16.243  0.00  0.00    +0.000 A 
ATOM     31  C   UNL     1       4.594   6.783  16.864  0.00  0.00    +0.000 A 
ENDBRANCH  23  26
ENDBRANCH  19  20
ENDBRANCH  18  19
ENDBRANCH   5  18
BRANCH   7  32
ATOM     32  C   UNL     1      -2.461  11.960  23.350  0.00  0.00    +0.000 C 
BRANCH  32  33
ATOM     33  O   UNL     1      -3.841  12.152  23.005  0.00  0.00    +0.000 OA
BRANCH  33  34
ATOM     34  C   UNL     1      -4.336  13.404  23.176  0.00  0.00    +0.000 C 
ATOM     35  C   UNL     1      -5.048  13.862  21.937  0.00  0.00    +0.000 C 
ATOM     36  O   UNL     1      -4.225  14.079  24.192  0.00  0.00    +0.000 OA
ENDBRANCH  33  34
ENDBRANCH  32  33
ENDBRANCH   7  32
TORSDOF 9
ENDMDL
MODEL 4
REMARK VINA RESULT:      -8.1      4.447     10.090
REMARK  Name = 
REMARK  14 active torsions:
REMARK  status: ('A' for Active; 'I' for Inactive)
REMARK    1  A    between atoms: C_1  and  O_2
REMARK    2  A    between atoms: O_2  and  C_3
REMARK    3  A    between atoms: C_3  and  C_4
REMARK    4  A    between atoms: C_7  and  O_8
REMARK    5  A    between atoms: O_8  and  C_9
REMARK    6  A    between atoms: C_9  and  C_10
REMARK    7  A    between atoms: C_13  and  C_14
REMARK    8  A    between atoms: C_23  and  C_24
REMARK    9  A    between atoms: C_24  and  O_25
REMARK   10  A    between atoms: O_25  and  C_26
REMARK   11  A    between atoms: C_26  and  C_27
REMARK   12  A    between atoms: C_33  and  C_34
REMARK   13  A    between atoms: C_33  and  O_35
REMARK   14  A    between atoms: O_35  and  C_36
REMARK                            x       y       z     vdW  Elec       q    Type
REMARK                         _______ _______ _______ _____ _____    ______ ____
ROOT
ATOM      1  C   UNL     1      -0.878  14.341  20.909  0.00  0.00    +0.000 C 
ATOM      2  C   UNL     1       0.048  14.832  22.039  0.00  0.00    +0.000 C 
ATOM      3  O   UNL     1      -0.270  13.133  20.404  0.00  0.00    +0.000 OA
ATOM      4  C   UNL     1      -1.109  12.474  19.444  0.00  0.00    +0.000 C 
ATOM      5  C   UNL     1      -0.449  11.136  19.016  0.00  0.00    +0.000 C 
ATOM      6  C   UNL     1      -1.324  10.408  18.041  0.00  0.00    +0.000 C 
ATOM      7  C   UNL     1      -2.659  10.553  17.959  0.00  0.00    +0.000 C 
ATOM      8  C   UNL     1      -3.329  11.572  18.832  0.00  0.00    +0.000 C 
ATOM      9  O   UNL     1      -4.497  11.880  18.598  0.00  0.00    +0.000 OA
ATOM     10  C   UNL     1      -2.507  12.179  19.984  0.00  0.00    +0.000 C 
ATOM     11  O   UNL     1      -3.142  13.353  20.489  0.00  0.00    +0.000 OA
ATOM     12  C   UNL     1      -2.350  14.030  21.484  0.00  0.00    +0.000 C 
ATOM     13  C   UNL     1      -3.093  15.349  21.775  0.00  0.00    +0.000 C 
ENDROOT
BRANCH   1  15
ATOM     14  C   UNL     1       0.235  15.728  19.257  0.00  0.00    +0.000 C 
ATOM     15  O   UNL     1      -0.984  15.333  19.867  0.00  0.00    +0.000 OA
ENDBRANCH   1  15
BRANCH  12  16
ATOM     16  O   UNL     1      -2.216  13.254  22.690  0.00  0.00    +0.000 OA
ATOM     17  C   UNL     1      -3.241  13.400  23.659  0.00  0.00    +0.000 C 
ENDBRANCH  12  16
BRANCH   5  18
ATOM     18  O   UNL     1      -0.325  10.317  20.180  0.00  0.00    +0.000 OA
BRANCH  18  19
ATOM     19  C   UNL     1       1.007  10.078  20.629  0.00  0.00    +0.000 C 
BRANCH  19  20
ATOM     20  C   UNL     1       1.464   8.704  20.209  0.00  0.00    +0.000 A 
ATOM     21  C   UNL     1       2.048   8.468  18.961  0.00  0.00    +0.000 A 
ATOM     22  C   UNL     1       2.410   7.175  18.576  0.00  0.00    +0.000 A 
ATOM     23  C   UNL     1       2.217   6.073  19.424  0.00  0.00    +0.000 A 
ATOM     24  C   UNL     1       1.672   6.329  20.694  0.00  0.00    +0.000 A 
ATOM     25  C   UNL     1       1.297   7.622  21.082  0.00  0.00    +0.000 A 
BRANCH  23  26
ATOM     26  C   UNL     1       2.535   4.701  18.964  0.00  0.00    +0.000 A 
ATOM     27  C   UNL     1       1.575   3.906  18.306  0.00  0.00    +0.000 A 
ATOM     28  C   UNL     1       1.838   2.582  17.953  0.00  0.00    +0.000 A 
ATOM     29  C   UNL     1       3.082   2.023  18.226  0.00  0.00    +0.000 A 
ATOM     30  C   UNL     1       4.060   2.792  18.848  0.00  0.00    +0.000 A 
ATOM     31  C   UNL     1       3.786   4.112  19.216  0.00  0.00    +0.000 A 
ENDBRANCH  23  26
ENDBRANCH  19  20
ENDBRANCH  18  19
ENDBRANCH   5  18
BRANCH   7  32
ATOM     32  C   UNL     1      -3.514   9.724  17.051  0.00  0.00    +0.000 C 
BRANCH  32  33
ATOM     33  O   UNL     1      -2.847   9.455  15.809  0.00  0.00    +0.000 OA
BRANCH  33  34
ATOM     34  C   UNL     1      -3.162  10.267  14.768  0.00  0.00    +0.000 C 
ATOM     35  C   UNL     1      -2.808   9.612  13.465  0.00  0.00    +0.000 C 
ATOM     36  O   UNL     1      -3.663  11.381  14.861  0.00  0.00    +0.000 OA
ENDBRANCH  33  34
ENDBRANCH  32  33
ENDBRANCH   7  32
TORSDOF 9
ENDMDL
MODEL 5
REMARK VINA RESULT:      -7.9      5.016     10.261
REMARK  Name = 
REMARK  14 active torsions:
REMARK  status: ('A' for Active; 'I' for Inactive)
REMARK    1  A    between atoms: C_1  and  O_2
REMARK    2  A    between atoms: O_2  and  C_3
REMARK    3  A    between atoms: C_3  and  C_4
REMARK    4  A    between atoms: C_7  and  O_8
REMARK    5  A    between atoms: O_8  and  C_9
REMARK    6  A    between atoms: C_9  and  C_10
REMARK    7  A    between atoms: C_13  and  C_14
REMARK    8  A    between atoms: C_23  and  C_24
REMARK    9  A    between atoms: C_24  and  O_25
REMARK   10  A    between atoms: O_25  and  C_26
REMARK   11  A    between atoms: C_26  and  C_27
REMARK   12  A    between atoms: C_33  and  C_34
REMARK   13  A    between atoms: C_33  and  O_35
REMARK   14  A    between atoms: O_35  and  C_36
REMARK                            x       y       z     vdW  Elec       q    Type
REMARK                         _______ _______ _______ _____ _____    ______ ____
ROOT
ATOM      1  C   UNL     1       1.220  15.731  19.398  0.00  0.00    +0.000 C 
ATOM      2  C   UNL     1       2.273  15.941  18.294  0.00  0.00    +0.000 C 
ATOM      3  O   UNL     1       0.622  14.445  19.129  0.00  0.00    +0.000 OA
ATOM      4  C   UNL     1      -0.276  14.043  20.173  0.00  0.00    +0.000 C 
ATOM      5  C   UNL     1      -0.805  12.615  19.875  0.00  0.00    +0.000 C 
ATOM      6  C   UNL     1      -1.717  12.154  20.973  0.00  0.00    +0.000 C 
ATOM      7  C   UNL     1      -1.670  12.601  22.240  0.00  0.00    +0.000 C 
ATOM      8  C   UNL     1      -0.706  13.697  22.584  0.00  0.00    +0.000 C 
ATOM      9  O   UNL     1      -0.821  14.273  23.665  0.00  0.00    +0.000 OA
ATOM     10  C   UNL     1       0.382  14.043  21.551  0.00  0.00    +0.000 C 
ATOM     11  O   UNL     1       0.982  15.301  21.856  0.00  0.00    +0.000 OA
ATOM     12  C   UNL     1       1.919  15.730  20.850  0.00  0.00    +0.000 C 
ATOM     13  C   UNL     1       2.320  17.165  21.244  0.00  0.00    +0.000 C 
ENDROOT
BRANCH   1  15
ATOM     14  C   UNL     1      -0.239  17.147  18.073  0.00  0.00    +0.000 C 
ATOM     15  O   UNL     1       0.224  16.774  19.361  0.00  0.00    +0.000 OA
ENDBRANCH   1  15
BRANCH  12  16
ATOM     16  O   UNL     1       3.083  14.882  20.797  0.00  0.00    +0.000 OA
ATOM     17  C   UNL     1       3.963  14.937  21.907  0.00  0.00    +0.000 C 
ENDBRANCH  12  16
BRANCH   5  18
ATOM     18  O   UNL     1       0.316  11.729  19.845  0.00  0.00    +0.000 OA
BRANCH  18  19
ATOM     19  C   UNL     1       0.127  10.472  20.489  0.00  0.00    +0.000 C 
BRANCH  19  20
ATOM     20  C   UNL     1       0.956   9.407  19.817  0.00  0.00    +0.000 A 
ATOM     21  C   UNL     1       1.296   9.480  18.463  0.00  0.00    +0.000 A 
ATOM     22  C   UNL     1       2.016   8.452  17.851  0.00  0.00    +0.000 A 
ATOM     23  C   UNL     1       2.437   7.319  18.569  0.00  0.00    +0.000 A 
ATOM     24  C   UNL     1       2.128   7.278  19.939  0.00  0.00    +0.000 A 
ATOM     25  C   UNL     1       1.396   8.302  20.555  0.00  0.00    +0.000 A 
BRANCH  23  26
ATOM     26  C   UNL     1       3.129   6.205  17.883  0.00  0.00    +0.000 A 
ATOM     27  C   UNL     1       2.654   4.880  17.967  0.00  0.00    +0.000 A 
ATOM     28  C   UNL     1       3.352   3.814  17.401  0.00  0.00    +0.000 A 
ATOM     29  C   UNL     1       4.536   4.046  16.709  0.00  0.00    +0.000 A 
ATOM     30  C   UNL     1       5.016   5.346  16.583  0.00  0.00    +0.000 A 
ATOM     31  C   UNL     1       4.323   6.409  17.168  0.00  0.00    +0.000 A 
ENDBRANCH  23  26
ENDBRANCH  19  20
ENDBRANCH  18  19
ENDBRANCH   5  18
BRANCH   7  32
ATOM     32  C   UNL     1      -2.520  12.034  23.335  0.00  0.00    +0.000 C 
BRANCH  32  33
ATOM     33  O   UNL     1      -3.508  12.980  23.770  0.00  0.00    +0.000 OA
BRANCH  33  34
ATOM     34  C   UNL     1      -4.699  12.949  23.120  0.00  0.00    +0.000 C 
ATOM     35  C   UNL     1      -5.643  13.958  23.705  0.00  0.00    +0.000 C 
ATOM     36  O   UNL     1      -4.980  12.208  22.187  0.00  0.00    +0.000 OA
ENDBRANCH  33  34
ENDBRANCH  32  33
ENDBRANCH   7  32
TORSDOF 9
ENDMDL
MODEL 6
REMARK VINA RESULT:      -7.9      0.555      1.306
REMARK  Name = 
REMARK  14 active torsions:
REMARK  status: ('A' for Active; 'I' for Inactive)
REMARK    1  A    between atoms: C_1  and  O_2
REMARK    2  A    between atoms: O_2  and  C_3
REMARK    3  A    between atoms: C_3  and  C_4
REMARK    4  A    between atoms: C_7  and  O_8
REMARK    5  A    between atoms: O_8  and  C_9
REMARK    6  A    between atoms: C_9  and  C_10
REMARK    7  A    between atoms: C_13  and  C_14
REMARK    8  A    between atoms: C_23  and  C_24
REMARK    9  A    between atoms: C_24  and  O_25
REMARK   10  A    between atoms: O_25  and  C_26
REMARK   11  A    between atoms: C_26  and  C_27
REMARK   12  A    between atoms: C_33  and  C_34
REMARK   13  A    between atoms: C_33  and  O_35
REMARK   14  A    between atoms: O_35  and  C_36
REMARK                            x       y       z     vdW  Elec       q    Type
REMARK                         _______ _______ _______ _____ _____    ______ ____
ROOT
ATOM      1  C   UNL     1       6.518   5.826  17.474  0.00  0.00    +0.000 C 
ATOM      2  C   UNL     1       7.318   7.018  16.915  0.00  0.00    +0.000 C 
ATOM      3  O   UNL     1       5.336   6.397  18.076  0.00  0.00    +0.000 OA
ATOM      4  C   UNL     1       4.413   5.386  18.504  0.00  0.00    +0.000 C 
ATOM      5  C   UNL     1       3.125   6.061  19.047  0.00  0.00    +0.000 C 
ATOM      6  C   UNL     1       2.127   5.024  19.466  0.00  0.00    +0.000 C 
ATOM      7  C   UNL     1       2.070   3.776  18.969  0.00  0.00    +0.000 C 
ATOM      8  C   UNL     1       3.121   3.339  17.993  0.00  0.00    +0.000 C 
ATOM      9  O   UNL     1       3.220   2.144  17.720  0.00  0.00    +0.000 OA
ATOM     10  C   UNL     1       4.025   4.426  17.381  0.00  0.00    +0.000 C 
ATOM     11  O   UNL     1       5.168   3.837  16.763  0.00  0.00    +0.000 OA
ATOM     12  C   UNL     1       6.109   4.818  16.285  0.00  0.00    +0.000 C 
ATOM     13  C   UNL     1       7.343   4.016  15.826  0.00  0.00    +0.000 C 
ENDROOT
BRANCH   1  15
ATOM     14  C   UNL     1       7.869   5.884  19.488  0.00  0.00    +0.000 C 
ATOM     15  O   UNL     1       7.291   5.104  18.453  0.00  0.00    +0.000 OA
ENDBRANCH   1  15
BRANCH  12  16
ATOM     16  O   UNL     1       5.578   5.590  15.191  0.00  0.00    +0.000 OA
ATOM     17  C   UNL     1       5.629   4.994  13.906  0.00  0.00    +0.000 C 
ENDBRANCH  12  16
BRANCH   5  18
ATOM     18  O   UNL     1       2.544   6.816  17.983  0.00  0.00    +0.000 OA
BRANCH  18  19
ATOM     19  C   UNL     1       2.841   8.210  17.979  0.00  0.00    +0.000 C 
BRANCH  19  20
ATOM     20  C   UNL     1       1.771   8.977  18.715  0.00  0.00    +0.000 A 
ATOM     21  C   UNL     1       1.055  10.013  18.109  0.00  0.00    +0.000 A 
ATOM     22  C   UNL     1       0.110  10.745  18.830  0.00  0.00    +0.000 A 
ATOM     23  C   UNL     1      -0.168  10.463  20.178  0.00  0.00    +0.000 A 
ATOM     24  C   UNL     1       0.525   9.389  20.764  0.00  0.00    +0.000 A 
ATOM     25  C   UNL     1       1.483   8.659  20.047  0.00  0.00    +0.000 A 
BRANCH  23  26
ATOM     26  C   UNL     1      -1.116  11.302  20.946  0.00  0.00    +0.000 A 
ATOM     27  C   UNL     1      -2.031  12.158  20.300  0.00  0.00    +0.000 A 
ATOM     28  C   UNL     1      -2.862  13.018  21.017  0.00  0.00    +0.000 A 
ATOM     29  C   UNL     1      -2.819  13.027  22.408  0.00  0.00    +0.000 A 
ATOM     30  C   UNL     1      -1.948  12.173  23.075  0.00  0.00    +0.000 A 
ATOM     31  C   UNL     1      -1.104  11.326  22.352  0.00  0.00    +0.000 A 
ENDBRANCH  23  26
ENDBRANCH  19  20
ENDBRANCH  18  19
ENDBRANCH   5  18
BRANCH   7  32
ATOM     32  C   UNL     1       0.987   2.805  19.328  0.00  0.00    +0.000 C 
BRANCH  32  33
ATOM     33  O   UNL     1       1.478   1.776  20.199  0.00  0.00    +0.000 OA
BRANCH  33  34
ATOM     34  C   UNL     1       2.087   2.191  21.339  0.00  0.00    +0.000 C 
ATOM     35  C   UNL     1       1.067   2.593  22.364  0.00  0.00    +0.000 C 
ATOM     36  O   UNL     1       3.297   2.238  21.520  0.00  0.00    +0.000 OA
ENDBRANCH  33  34
ENDBRANCH  32  33
ENDBRANCH   7  32
TORSDOF 9
ENDMDL
MODEL 7
REMARK VINA RESULT:      -7.9      5.022      9.896
REMARK  Name = 
REMARK  14 active torsions:
REMARK  status: ('A' for Active; 'I' for Inactive)
REMARK    1  A    between atoms: C_1  and  O_2
REMARK    2  A    between atoms: O_2  and  C_3
REMARK    3  A    between atoms: C_3  and  C_4
REMARK    4  A    between atoms: C_7  and  O_8
REMARK    5  A    between atoms: O_8  and  C_9
REMARK    6  A    between atoms: C_9  and  C_10
REMARK    7  A    between atoms: C_13  and  C_14
REMARK    8  A    between atoms: C_23  and  C_24
REMARK    9  A    between atoms: C_24  and  O_25
REMARK   10  A    between atoms: O_25  and  C_26
REMARK   11  A    between atoms: C_26  and  C_27
REMARK   12  A    between atoms: C_33  and  C_34
REMARK   13  A    between atoms: C_33  and  O_35
REMARK   14  A    between atoms: O_35  and  C_36
REMARK                            x       y       z     vdW  Elec       q    Type
REMARK                         _______ _______ _______ _____ _____    ______ ____
ROOT
ATOM      1  C   UNL     1       2.338  15.017  19.844  0.00  0.00    +0.000 C 
ATOM      2  C   UNL     1       3.597  14.942  18.960  0.00  0.00    +0.000 C 
ATOM      3  O   UNL     1       1.500  13.917  19.425  0.00  0.00    +0.000 OA
ATOM      4  C   UNL     1       0.353  13.767  20.273  0.00  0.00    +0.000 C 
ATOM      5  C   UNL     1      -0.450  12.513  19.834  0.00  0.00    +0.000 C 
ATOM      6  C   UNL     1      -1.635  12.310  20.730  0.00  0.00    +0.000 C 
ATOM      7  C   UNL     1      -1.715  12.747  21.999  0.00  0.00    +0.000 C 
ATOM      8  C   UNL     1      -0.591  13.572  22.551  0.00  0.00    +0.000 C 
ATOM      9  O   UNL     1      -0.758  14.172  23.612  0.00  0.00    +0.000 OA
ATOM     10  C   UNL     1       0.722  13.620  21.748  0.00  0.00    +0.000 C 
ATOM     11  O   UNL     1       1.548  14.693  22.200  0.00  0.00    +0.000 OA
ATOM     12  C   UNL     1       2.732  14.860  21.398  0.00  0.00    +0.000 C 
ATOM     13  C   UNL     1       3.396  16.154  21.907  0.00  0.00    +0.000 C 
ENDROOT
BRANCH   1  15
ATOM     14  C   UNL     1       1.948  16.970  18.458  0.00  0.00    +0.000 C 
ATOM     15  O   UNL     1       1.657  16.275  19.660  0.00  0.00    +0.000 OA
ENDBRANCH   1  15
BRANCH  12  16
ATOM     16  O   UNL     1       3.638  13.747  21.531  0.00  0.00    +0.000 OA
ATOM     17  C   UNL     1       4.810  13.966  22.297  0.00  0.00    +0.000 C 
ENDBRANCH  12  16
BRANCH   5  18
ATOM     18  O   UNL     1       0.402  11.375  19.981  0.00  0.00    +0.000 OA
BRANCH  18  19
ATOM     19  C   UNL     1       0.729  10.689  18.774  0.00  0.00    +0.000 C 
BRANCH  19  20
ATOM     20  C   UNL     1       1.307   9.331  19.082  0.00  0.00    +0.000 A 
ATOM     21  C   UNL     1       1.981   8.577  18.117  0.00  0.00    +0.000 A 
ATOM     22  C   UNL     1       2.456   7.298  18.413  0.00  0.00    +0.000 A 
ATOM     23  C   UNL     1       2.291   6.728  19.686  0.00  0.00    +0.000 A 
ATOM     24  C   UNL     1       1.652   7.512  20.662  0.00  0.00    +0.000 A 
ATOM     25  C   UNL     1       1.164   8.792  20.367  0.00  0.00    +0.000 A 
BRANCH  23  26
ATOM     26  C   UNL     1       2.732   5.340  19.955  0.00  0.00    +0.000 A 
ATOM     27  C   UNL     1       3.759   4.736  19.203  0.00  0.00    +0.000 A 
ATOM     28  C   UNL     1       4.116   3.400  19.389  0.00  0.00    +0.000 A 
ATOM     29  C   UNL     1       3.470   2.636  20.356  0.00  0.00    +0.000 A 
ATOM     30  C   UNL     1       2.472   3.213  21.135  0.00  0.00    +0.000 A 
ATOM     31  C   UNL     1       2.106   4.545  20.932  0.00  0.00    +0.000 A 
ENDBRANCH  23  26
ENDBRANCH  19  20
ENDBRANCH  18  19
ENDBRANCH   5  18
BRANCH   7  32
ATOM     32  C   UNL     1      -2.868  12.425  22.899  0.00  0.00    +0.000 C 
BRANCH  32  33
ATOM     33  O   UNL     1      -3.691  13.580  23.125  0.00  0.00    +0.000 OA
BRANCH  33  34
ATOM     34  C   UNL     1      -5.010  13.347  23.341  0.00  0.00    +0.000 C 
ATOM     35  C   UNL     1      -5.198  12.459  24.536  0.00  0.00    +0.000 C 
ATOM     36  O   UNL     1      -5.930  13.790  22.665  0.00  0.00    +0.000 OA
ENDBRANCH  33  34
ENDBRANCH  32  33
ENDBRANCH   7  32
TORSDOF 9
ENDMDL
MODEL 8
REMARK VINA RESULT:      -7.9      1.322      1.727
REMARK  Name = 
REMARK  14 active torsions:
REMARK  status: ('A' for Active; 'I' for Inactive)
REMARK    1  A    between atoms: C_1  and  O_2
REMARK    2  A    between atoms: O_2  and  C_3
REMARK    3  A    between atoms: C_3  and  C_4
REMARK    4  A    between atoms: C_7  and  O_8
REMARK    5  A    between atoms: O_8  and  C_9
REMARK    6  A    between atoms: C_9  and  C_10
REMARK    7  A    between atoms: C_13  and  C_14
REMARK    8  A    between atoms: C_23  and  C_24
REMARK    9  A    between atoms: C_24  and  O_25
REMARK   10  A    between atoms: O_25  and  C_26
REMARK   11  A    between atoms: C_26  and  C_27
REMARK   12  A    between atoms: C_33  and  C_34
REMARK   13  A    between atoms: C_33  and  O_35
REMARK   14  A    between atoms: O_35  and  C_36
REMARK                            x       y       z     vdW  Elec       q    Type
REMARK                         _______ _______ _______ _____ _____    ______ ____
ROOT
ATOM      1  C   UNL     1       6.523   6.074  17.734  0.00  0.00    +0.000 C 
ATOM      2  C   UNL     1       7.492   7.212  17.362  0.00  0.00    +0.000 C 
ATOM      3  O   UNL     1       5.314   6.722  18.186  0.00  0.00    +0.000 OA
ATOM      4  C   UNL     1       4.258   5.779  18.421  0.00  0.00    +0.000 C 
ATOM      5  C   UNL     1       2.963   6.542  18.804  0.00  0.00    +0.000 C 
ATOM      6  C   UNL     1       1.832   5.581  19.018  0.00  0.00    +0.000 C 
ATOM      7  C   UNL     1       1.750   4.364  18.453  0.00  0.00    +0.000 C 
ATOM      8  C   UNL     1       2.897   3.875  17.620  0.00  0.00    +0.000 C 
ATOM      9  O   UNL     1       2.939   2.687  17.303  0.00  0.00    +0.000 OA
ATOM     10  C   UNL     1       3.967   4.902  17.205  0.00  0.00    +0.000 C 
ATOM     11  O   UNL     1       5.140   4.240  16.731  0.00  0.00    +0.000 OA
ATOM     12  C   UNL     1       6.218   5.153  16.448  0.00  0.00    +0.000 C 
ATOM     13  C   UNL     1       7.438   4.265  16.133  0.00  0.00    +0.000 C 
ENDROOT
BRANCH   1  15
ATOM     14  C   UNL     1       8.047   5.867  19.611  0.00  0.00    +0.000 C 
ATOM     15  O   UNL     1       7.079   5.249  18.778  0.00  0.00    +0.000 OA
ENDBRANCH   1  15
BRANCH  12  16
ATOM     16  O   UNL     1       5.921   6.012  15.330  0.00  0.00    +0.000 OA
ATOM     17  C   UNL     1       5.719   5.380  14.077  0.00  0.00    +0.000 C 
ENDBRANCH  12  16
BRANCH   5  18
ATOM     18  O   UNL     1       2.610   7.387  17.707  0.00  0.00    +0.000 OA
BRANCH  18  19
ATOM     19  C   UNL     1       2.842   8.780  17.900  0.00  0.00    +0.000 C 
BRANCH  19  20
ATOM     20  C   UNL     1       1.535   9.511  18.077  0.00  0.00    +0.000 A 
ATOM     21  C   UNL     1       1.443  10.691  18.820  0.00  0.00    +0.000 A 
ATOM     22  C   UNL     1       0.210  11.316  19.016  0.00  0.00    +0.000 A 
ATOM     23  C   UNL     1      -0.974  10.797  18.468  0.00  0.00    +0.000 A 
ATOM     24  C   UNL     1      -0.863   9.635  17.685  0.00  0.00    +0.000 A 
ATOM     25  C   UNL     1       0.370   8.998  17.494  0.00  0.00    +0.000 A 
BRANCH  23  26
ATOM     26  C   UNL     1      -2.282  11.431  18.755  0.00  0.00    +0.000 A 
ATOM     27  C   UNL     1      -2.477  12.227  19.902  0.00  0.00    +0.000 A 
ATOM     28  C   UNL     1      -3.728  12.751  20.226  0.00  0.00    +0.000 A 
ATOM     29  C   UNL     1      -4.818  12.515  19.394  0.00  0.00    +0.000 A 
ATOM     30  C   UNL     1      -4.650  11.758  18.239  0.00  0.00    +0.000 A 
ATOM     31  C   UNL     1      -3.399  11.220  17.928  0.00  0.00    +0.000 A 
ENDBRANCH  23  26
ENDBRANCH  19  20
ENDBRANCH  18  19
ENDBRANCH   5  18
BRANCH   7  32
ATOM     32  C   UNL     1       0.551   3.478  18.598  0.00  0.00    +0.000 C 
BRANCH  32  33
ATOM     33  O   UNL     1       0.377   3.054  19.959  0.00  0.00    +0.000 OA
BRANCH  33  34
ATOM     34  C   UNL     1       1.424   2.401  20.525  0.00  0.00    +0.000 C 
ATOM     35  C   UNL     1       1.747   2.990  21.866  0.00  0.00    +0.000 C 
ATOM     36  O   UNL     1       2.031   1.463  20.023  0.00  0.00    +0.000 OA
ENDBRANCH  33  34
ENDBRANCH  32  33
ENDBRANCH   7  32
TORSDOF 9
ENDMDL
MODEL 9
REMARK VINA RESULT:      -7.9      5.336     10.257
REMARK  Name = 
REMARK  14 active torsions:
REMARK  status: ('A' for Active; 'I' for Inactive)
REMARK    1  A    between atoms: C_1  and  O_2
REMARK    2  A    between atoms: O_2  and  C_3
REMARK    3  A    between atoms: C_3  and  C_4
REMARK    4  A    between atoms: C_7  and  O_8
REMARK    5  A    between atoms: O_8  and  C_9
REMARK    6  A    between atoms: C_9  and  C_10
REMARK    7  A    between atoms: C_13  and  C_14
REMARK    8  A    between atoms: C_23  and  C_24
REMARK    9  A    between atoms: C_24  and  O_25
REMARK   10  A    between atoms: O_25  and  C_26
REMARK   11  A    between atoms: C_26  and  C_27
REMARK   12  A    between atoms: C_33  and  C_34
REMARK   13  A    between atoms: C_33  and  O_35
REMARK   14  A    between atoms: O_35  and  C_36
REMARK                            x       y       z     vdW  Elec       q    Type
REMARK                         _______ _______ _______ _____ _____    ______ ____
ROOT
ATOM      1  C   UNL     1       2.153  15.686  18.977  0.00  0.00    +0.000 C 
ATOM      2  C   UNL     1       3.184  15.504  17.847  0.00  0.00    +0.000 C 
ATOM      3  O   UNL     1       1.312  14.513  18.931  0.00  0.00    +0.000 OA
ATOM      4  C   UNL     1       0.395  14.469  20.033  0.00  0.00    +0.000 C 
ATOM      5  C   UNL     1      -0.407  13.141  19.983  0.00  0.00    +0.000 C 
ATOM      6  C   UNL     1      -1.347  13.052  21.147  0.00  0.00    +0.000 C 
ATOM      7  C   UNL     1      -1.167  13.682  22.321  0.00  0.00    +0.000 C 
ATOM      8  C   UNL     1      -0.001  14.613  22.470  0.00  0.00    +0.000 C 
ATOM      9  O   UNL     1       0.037  15.369  23.440  0.00  0.00    +0.000 OA
ATOM     10  C   UNL     1       1.093  14.568  21.388  0.00  0.00    +0.000 C 
ATOM     11  O   UNL     1       1.932  15.719  21.474  0.00  0.00    +0.000 OA
ATOM     12  C   UNL     1       2.894  15.788  20.403  0.00  0.00    +0.000 C 
ATOM     13  C   UNL     1       3.574  17.163  20.548  0.00  0.00    +0.000 C 
ENDROOT
BRANCH   1  15
ATOM     14  C   UNL     1       1.624  17.588  17.567  0.00  0.00    +0.000 C 
ATOM     15  O   UNL     1       1.372  16.881  18.771  0.00  0.00    +0.000 OA
ENDBRANCH   1  15
BRANCH  12  16
ATOM     16  O   UNL     1       3.873  14.733  20.488  0.00  0.00    +0.000 OA
ATOM     17  C   UNL     1       5.029  14.998  21.264  0.00  0.00    +0.000 C 
ENDBRANCH  12  16
BRANCH   5  18
ATOM     18  O   UNL     1       0.524  12.063  20.096  0.00  0.00    +0.000 OA
BRANCH  18  19
ATOM     19  C   UNL     1      -0.048  10.770  20.284  0.00  0.00    +0.000 C 
BRANCH  19  20
ATOM     20  C   UNL     1       0.831   9.712  19.665  0.00  0.00    +0.000 A 
ATOM     21  C   UNL     1       1.228   9.770  18.326  0.00  0.00    +0.000 A 
ATOM     22  C   UNL     1       1.994   8.747  17.764  0.00  0.00    +0.000 A 
ATOM     23  C   UNL     1       2.406   7.636  18.518  0.00  0.00    +0.000 A 
ATOM     24  C   UNL     1       2.041   7.611  19.875  0.00  0.00    +0.000 A 
ATOM     25  C   UNL     1       1.262   8.630  20.441  0.00  0.00    +0.000 A 
BRANCH  23  26
ATOM     26  C   UNL     1       3.151   6.525  17.882  0.00  0.00    +0.000 A 
ATOM     27  C   UNL     1       2.698   5.193  17.968  0.00  0.00    +0.000 A 
ATOM     28  C   UNL     1       3.442   4.132  17.451  0.00  0.00    +0.000 A 
ATOM     29  C   UNL     1       4.650   4.378  16.807  0.00  0.00    +0.000 A 
ATOM     30  C   UNL     1       5.109   5.685  16.680  0.00  0.00    +0.000 A 
ATOM     31  C   UNL     1       4.370   6.742  17.216  0.00  0.00    +0.000 A 
ENDBRANCH  23  26
ENDBRANCH  19  20
ENDBRANCH  18  19
ENDBRANCH   5  18
BRANCH   7  32
ATOM     32  C   UNL     1      -2.067  13.478  23.501  0.00  0.00    +0.000 C 
BRANCH  32  33
ATOM     33  O   UNL     1      -3.261  14.268  23.389  0.00  0.00    +0.000 OA
BRANCH  33  34
ATOM     34  C   UNL     1      -4.434  13.623  23.611  0.00  0.00    +0.000 C 
ATOM     35  C   UNL     1      -4.251  12.534  24.628  0.00  0.00    +0.000 C 
ATOM     36  O   UNL     1      -5.500  13.879  23.066  0.00  0.00    +0.000 OA
ENDBRANCH  33  34
ENDBRANCH  32  33
ENDBRANCH   7  32
TORSDOF 9
ENDMDL
