MODEL 1
REMARK VINA RESULT:      -8.3      0.000      0.000
REMARK  Name = 
REMARK  10 active torsions:
REMARK  status: ('A' for Active; 'I' for Inactive)
REMARK    1  A    between atoms: C_1  and  C_2
REMARK    2  A    between atoms: C_2  and  C_3
REMARK    3  A    between atoms: C_2  and  C_4
REMARK    4  A    between atoms: C_7  and  C_8
REMARK    5  A    between atoms: C_10  and  S_11
REMARK    6  A    between atoms: S_11  and  C_12
REMARK    7  A    between atoms: C_12  and  C_13
REMARK    8  A    between atoms: C_16  and  O_17
REMARK    9  A    between atoms: O_17  and  C_18
REMARK   10  A    between atoms: C_27  and  C_28
REMARK                            x       y       z     vdW  Elec       q    Type
REMARK                         _______ _______ _______ _____ _____    ______ ____
ROOT
ATOM      1  C   UNL     1       3.608   5.675  19.489  0.00  0.00    +0.000 A 
ATOM      2  N   UNL     1       4.941   6.033  19.372  0.00  0.00    +0.000 NA
ATOM      3  C   UNL     1       5.795   5.073  19.299  0.00  0.00    +0.000 A 
ATOM      4  N   UNL     1       5.459   3.760  19.346  0.00  0.00    +0.000 N 
ATOM      5  C   UNL     1       4.166   3.340  19.438  0.00  0.00    +0.000 A 
ATOM      6  O   UNL     1       3.884   2.148  19.460  0.00  0.00    +0.000 OA
ATOM      7  C   UNL     1       3.148   4.407  19.508  0.00  0.00    +0.000 A 
ATOM      8  H   UNL     1       6.183   3.060  19.288  0.00  0.00    +0.000 HD
ENDROOT
BRANCH   1  12
ATOM      9  C   UNL     1       0.824   8.925  19.808  0.00  0.00    +0.000 A 
ATOM     10  C   UNL     1       1.542   8.708  18.623  0.00  0.00    +0.000 A 
ATOM     11  C   UNL     1       2.449   7.651  18.523  0.00  0.00    +0.000 A 
ATOM     12  C   UNL     1       2.659   6.796  19.611  0.00  0.00    +0.000 A 
ATOM     13  C   UNL     1       1.966   7.018  20.803  0.00  0.00    +0.000 A 
ATOM     14  C   UNL     1       1.054   8.072  20.897  0.00  0.00    +0.000 A 
BRANCH   9  16
ATOM     15  C   UNL     1       0.340  11.270  20.455  0.00  0.00    +0.000 C 
ATOM     16  C   UNL     1      -0.253   9.997  19.843  0.00  0.00    +0.000 C 
ATOM     17  C   UNL     1      -0.879  10.296  18.478  0.00  0.00    +0.000 C 
ENDBRANCH   9  16
ENDBRANCH   1  12
BRANCH   7  18
ATOM     18  C   UNL     1       1.777   4.044  19.606  0.00  0.00    +0.000 C 
ATOM     19  N   UNL     1       0.650   3.767  19.693  0.00  0.00    +0.000 NA
ENDBRANCH   7  18
BRANCH   3  20
ATOM     20  S   UNL     1       7.498   5.284  19.088  0.00  0.00    +0.000 S 
BRANCH  20  21
ATOM     21  C   UNL     1       7.571   6.394  17.651  0.00  0.00    +0.000 C 
BRANCH  21  22
ATOM     22  C   UNL     1       6.905   5.738  16.460  0.00  0.00    +0.000 A 
ATOM     23  C   UNL     1       5.756   6.291  15.879  0.00  0.00    +0.000 A 
ATOM     24  C   UNL     1       5.101   5.631  14.832  0.00  0.00    +0.000 A 
ATOM     25  C   UNL     1       5.582   4.413  14.344  0.00  0.00    +0.000 A 
ATOM     26  C   UNL     1       6.702   3.841  14.942  0.00  0.00    +0.000 A 
ATOM     27  C   UNL     1       7.374   4.511  15.971  0.00  0.00    +0.000 A 
BRANCH  25  28
ATOM     28  O   UNL     1       4.842   3.856  13.346  0.00  0.00    +0.000 OA
BRANCH  28  29
ATOM     29  C   UNL     1       5.477   3.451  12.139  0.00  0.00    +0.000 C 
ATOM     30  F   UNL     1       6.612   4.119  11.845  0.00  0.00    +0.000 F 
ATOM     31  F   UNL     1       5.759   2.132  12.206  0.00  0.00    +0.000 F 
ATOM     32  F   UNL     1       4.613   3.643  11.115  0.00  0.00    +0.000 F 
ENDBRANCH  28  29
ENDBRANCH  25  28
ENDBRANCH  21  22
ENDBRANCH  20  21
ENDBRANCH   3  20
TORSDOF 8
ENDMDL
MODEL 2
REMARK VINA RESULT:      -8.0      0.303      1.420
REMARK  Name = 
REMARK  10 active torsions:
REMARK  status: ('A' for Active; 'I' for Inactive)
REMARK    1  A    between atoms: C_1  and  C_2
REMARK    2  A    between atoms: C_2  and  C_3
REMARK    3  A    between atoms: C_2  and  C_4
REMARK    4  A    between atoms: C_7  and  C_8
REMARK    5  A    between atoms: C_10  and  S_11
REMARK    6  A    between atoms: S_11  and  C_12
REMARK    7  A    between atoms: C_12  and  C_13
REMARK    8  A    between atoms: C_16  and  O_17
REMARK    9  A    between atoms: O_17  and  C_18
REMARK   10  A    between atoms: C_27  and  C_28
REMARK                            x       y       z     vdW  Elec       q    Type
REMARK                         _______ _______ _______ _____ _____    ______ ____
ROOT
ATOM      1  C   UNL     1       3.667   5.746  19.330  0.00  0.00    +0.000 A 
ATOM      2  N   UNL     1       4.999   6.118  19.258  0.00  0.00    +0.000 NA
ATOM      3  C   UNL     1       5.867   5.167  19.263  0.00  0.00    +0.000 A 
ATOM      4  N   UNL     1       5.544   3.852  19.350  0.00  0.00    +0.000 N 
ATOM      5  C   UNL     1       4.253   3.419  19.402  0.00  0.00    +0.000 A 
ATOM      6  O   UNL     1       3.985   2.225  19.461  0.00  0.00    +0.000 OA
ATOM      7  C   UNL     1       3.222   4.474  19.382  0.00  0.00    +0.000 A 
ATOM      8  H   UNL     1       6.278   3.161  19.353  0.00  0.00    +0.000 HD
ENDROOT
BRANCH   1  12
ATOM      9  C   UNL     1       0.877   9.004  19.462  0.00  0.00    +0.000 A 
ATOM     10  C   UNL     1       1.148   8.243  20.609  0.00  0.00    +0.000 A 
ATOM     11  C   UNL     1       2.054   7.182  20.563  0.00  0.00    +0.000 A 
ATOM     12  C   UNL     1       2.700   6.859  19.364  0.00  0.00    +0.000 A 
ATOM     13  C   UNL     1       2.420   7.596  18.211  0.00  0.00    +0.000 A 
ATOM     14  C   UNL     1       1.518   8.661  18.263  0.00  0.00    +0.000 A 
BRANCH   9  16
ATOM     15  C   UNL     1       0.873  11.483  19.517  0.00  0.00    +0.000 C 
ATOM     16  C   UNL     1      -0.010  10.234  19.574  0.00  0.00    +0.000 C 
ATOM     17  C   UNL     1      -1.114  10.305  18.515  0.00  0.00    +0.000 C 
ENDBRANCH   9  16
ENDBRANCH   1  12
BRANCH   7  18
ATOM     18  C   UNL     1       1.851   4.097  19.434  0.00  0.00    +0.000 C 
ATOM     19  N   UNL     1       0.733   3.783  19.497  0.00  0.00    +0.000 NA
ENDBRANCH   7  18
BRANCH   3  20
ATOM     20  S   UNL     1       7.575   5.392  19.119  0.00  0.00    +0.000 S 
BRANCH  20  21
ATOM     21  C   UNL     1       7.712   6.291  17.547  0.00  0.00    +0.000 C 
BRANCH  21  22
ATOM     22  C   UNL     1       6.882   5.599  16.485  0.00  0.00    +0.000 A 
ATOM     23  C   UNL     1       7.186   4.298  16.063  0.00  0.00    +0.000 A 
ATOM     24  C   UNL     1       6.464   3.701  15.023  0.00  0.00    +0.000 A 
ATOM     25  C   UNL     1       5.424   4.388  14.389  0.00  0.00    +0.000 A 
ATOM     26  C   UNL     1       5.141   5.694  14.781  0.00  0.00    +0.000 A 
ATOM     27  C   UNL     1       5.844   6.284  15.838  0.00  0.00    +0.000 A 
BRANCH  25  28
ATOM     28  O   UNL     1       4.818   3.713  13.374  0.00  0.00    +0.000 OA
BRANCH  28  29
ATOM     29  C   UNL     1       5.516   3.497  12.154  0.00  0.00    +0.000 C 
ATOM     30  F   UNL     1       4.812   3.786  11.040  0.00  0.00    +0.000 F 
ATOM     31  F   UNL     1       6.646   4.237  12.152  0.00  0.00    +0.000 F 
ATOM     32  F   UNL     1       5.869   2.192  12.087  0.00  0.00    +0.000 F 
ENDBRANCH  28  29
ENDBRANCH  25  28
ENDBRANCH  21  22
ENDBRANCH  20  21
ENDBRANCH   3  20
TORSDOF 8
ENDMDL
MODEL 3
REMARK VINA RESULT:      -8.0      1.287      1.746
REMARK  Name = 
REMARK  10 active torsions:
REMARK  status: ('A' for Active; 'I' for Inactive)
REMARK    1  A    between atoms: C_1  and  C_2
REMARK    2  A    between atoms: C_2  and  C_3
REMARK    3  A    between atoms: C_2  and  C_4
REMARK    4  A    between atoms: C_7  and  C_8
REMARK    5  A    between atoms: C_10  and  S_11
REMARK    6  A    between atoms: S_11  and  C_12
REMARK    7  A    between atoms: C_12  and  C_13
REMARK    8  A    between atoms: C_16  and  O_17
REMARK    9  A    between atoms: O_17  and  C_18
REMARK   10  A    between atoms: C_27  and  C_28
REMARK                            x       y       z     vdW  Elec       q    Type
REMARK                         _______ _______ _______ _____ _____    ______ ____
ROOT
ATOM      1  C   UNL     1       3.680   5.554  18.897  0.00  0.00    +0.000 A 
ATOM      2  N   UNL     1       4.943   5.741  18.360  0.00  0.00    +0.000 NA
ATOM      3  C   UNL     1       5.701   4.703  18.285  0.00  0.00    +0.000 A 
ATOM      4  N   UNL     1       5.333   3.469  18.713  0.00  0.00    +0.000 N 
ATOM      5  C   UNL     1       4.099   3.214  19.230  0.00  0.00    +0.000 A 
ATOM      6  O   UNL     1       3.783   2.087  19.592  0.00  0.00    +0.000 OA
ATOM      7  C   UNL     1       3.189   4.372  19.321  0.00  0.00    +0.000 A 
ATOM      8  H   UNL     1       5.982   2.702  18.628  0.00  0.00    +0.000 HD
ENDROOT
BRANCH   1  12
ATOM      9  C   UNL     1       1.245   9.075  19.182  0.00  0.00    +0.000 A 
ATOM     10  C   UNL     1       1.850   8.717  17.968  0.00  0.00    +0.000 A 
ATOM     11  C   UNL     1       2.644   7.572  17.879  0.00  0.00    +0.000 A 
ATOM     12  C   UNL     1       2.853   6.769  19.007  0.00  0.00    +0.000 A 
ATOM     13  C   UNL     1       2.272   7.130  20.225  0.00  0.00    +0.000 A 
ATOM     14  C   UNL     1       1.473   8.272  20.308  0.00  0.00    +0.000 A 
BRANCH   9  16
ATOM     15  C   UNL     1      -0.758  10.066  18.105  0.00  0.00    +0.000 C 
ATOM     16  C   UNL     1       0.279  10.249  19.216  0.00  0.00    +0.000 C 
ATOM     17  C   UNL     1      -0.410  10.449  20.569  0.00  0.00    +0.000 C 
ENDBRANCH   9  16
ENDBRANCH   1  12
BRANCH   7  18
ATOM     18  C   UNL     1       1.883   4.180  19.851  0.00  0.00    +0.000 C 
ATOM     19  N   UNL     1       0.809   4.043  20.276  0.00  0.00    +0.000 NA
ENDBRANCH   7  18
BRANCH   3  20
ATOM     20  S   UNL     1       7.286   4.689  17.597  0.00  0.00    +0.000 S 
BRANCH  20  21
ATOM     21  C   UNL     1       7.080   5.753  16.138  0.00  0.00    +0.000 C 
BRANCH  21  22
ATOM     22  C   UNL     1       6.778   4.904  14.921  0.00  0.00    +0.000 A 
ATOM     23  C   UNL     1       7.511   5.053  13.736  0.00  0.00    +0.000 A 
ATOM     24  C   UNL     1       7.169   4.322  12.592  0.00  0.00    +0.000 A 
ATOM     25  C   UNL     1       6.095   3.427  12.611  0.00  0.00    +0.000 A 
ATOM     26  C   UNL     1       5.342   3.302  13.776  0.00  0.00    +0.000 A 
ATOM     27  C   UNL     1       5.697   4.012  14.928  0.00  0.00    +0.000 A 
BRANCH  25  28
ATOM     28  O   UNL     1       5.843   2.798  11.430  0.00  0.00    +0.000 OA
BRANCH  28  29
ATOM     29  C   UNL     1       6.526   1.591  11.113  0.00  0.00    +0.000 C 
ATOM     30  F   UNL     1       7.742   1.462  11.684  0.00  0.00    +0.000 F 
ATOM     31  F   UNL     1       5.764   0.539  11.483  0.00  0.00    +0.000 F 
ATOM     32  F   UNL     1       6.698   1.534   9.772  0.00  0.00    +0.000 F 
ENDBRANCH  28  29
ENDBRANCH  25  28
ENDBRANCH  21  22
ENDBRANCH  20  21
ENDBRANCH   3  20
TORSDOF 8
ENDMDL
MODEL 4
REMARK VINA RESULT:      -8.0      1.212      1.936
REMARK  Name = 
REMARK  10 active torsions:
REMARK  status: ('A' for Active; 'I' for Inactive)
REMARK    1  A    between atoms: C_1  and  C_2
REMARK    2  A    between atoms: C_2  and  C_3
REMARK    3  A    between atoms: C_2  and  C_4
REMARK    4  A    between atoms: C_7  and  C_8
REMARK    5  A    between atoms: C_10  and  S_11
REMARK    6  A    between atoms: S_11  and  C_12
REMARK    7  A    between atoms: C_12  and  C_13
REMARK    8  A    between atoms: C_16  and  O_17
REMARK    9  A    between atoms: O_17  and  C_18
REMARK   10  A    between atoms: C_27  and  C_28
REMARK                            x       y       z     vdW  Elec       q    Type
REMARK                         _______ _______ _______ _____ _____    ______ ____
ROOT
ATOM      1  C   UNL     1       3.670   5.558  18.920  0.00  0.00    +0.000 A 
ATOM      2  N   UNL     1       4.939   5.752  18.401  0.00  0.00    +0.000 NA
ATOM      3  C   UNL     1       5.714   4.724  18.364  0.00  0.00    +0.000 A 
ATOM      4  N   UNL     1       5.358   3.496  18.814  0.00  0.00    +0.000 N 
ATOM      5  C   UNL     1       4.119   3.233  19.316  0.00  0.00    +0.000 A 
ATOM      6  O   UNL     1       3.813   2.110  19.700  0.00  0.00    +0.000 OA
ATOM      7  C   UNL     1       3.189   4.378  19.363  0.00  0.00    +0.000 A 
ATOM      8  H   UNL     1       6.019   2.737  18.759  0.00  0.00    +0.000 HD
ENDROOT
BRANCH   1  12
ATOM      9  C   UNL     1       1.228   9.079  19.147  0.00  0.00    +0.000 A 
ATOM     10  C   UNL     1       1.460   8.291  20.284  0.00  0.00    +0.000 A 
ATOM     11  C   UNL     1       2.254   7.145  20.207  0.00  0.00    +0.000 A 
ATOM     12  C   UNL     1       2.822   6.762  18.987  0.00  0.00    +0.000 A 
ATOM     13  C   UNL     1       2.577   7.527  17.844  0.00  0.00    +0.000 A 
ATOM     14  C   UNL     1       1.789   8.677  17.926  0.00  0.00    +0.000 A 
BRANCH   9  16
ATOM     15  C   UNL     1      -0.727  10.374  18.339  0.00  0.00    +0.000 C 
ATOM     16  C   UNL     1       0.474  10.391  19.288  0.00  0.00    +0.000 C 
ATOM     17  C   UNL     1       0.025  10.701  20.720  0.00  0.00    +0.000 C 
ENDBRANCH   9  16
ENDBRANCH   1  12
BRANCH   7  18
ATOM     18  C   UNL     1       1.878   4.179  19.876  0.00  0.00    +0.000 C 
ATOM     19  N   UNL     1       0.811   3.996  20.302  0.00  0.00    +0.000 NA
ENDBRANCH   7  18
BRANCH   3  20
ATOM     20  S   UNL     1       7.311   4.719  17.703  0.00  0.00    +0.000 S 
BRANCH  20  21
ATOM     21  C   UNL     1       7.134   5.814  16.264  0.00  0.00    +0.000 C 
BRANCH  21  22
ATOM     22  C   UNL     1       6.819   4.995  15.030  0.00  0.00    +0.000 A 
ATOM     23  C   UNL     1       7.532   5.179  13.838  0.00  0.00    +0.000 A 
ATOM     24  C   UNL     1       7.177   4.475  12.682  0.00  0.00    +0.000 A 
ATOM     25  C   UNL     1       6.109   3.573  12.693  0.00  0.00    +0.000 A 
ATOM     26  C   UNL     1       5.375   3.413  13.866  0.00  0.00    +0.000 A 
ATOM     27  C   UNL     1       5.744   4.095  15.031  0.00  0.00    +0.000 A 
BRANCH  25  28
ATOM     28  O   UNL     1       5.843   2.973  11.501  0.00  0.00    +0.000 OA
BRANCH  28  29
ATOM     29  C   UNL     1       6.454   1.728  11.185  0.00  0.00    +0.000 C 
ATOM     30  F   UNL     1       6.376   1.373   9.885  0.00  0.00    +0.000 F 
ATOM     31  F   UNL     1       7.755   1.768  11.543  0.00  0.00    +0.000 F 
ATOM     32  F   UNL     1       5.850   0.758  11.909  0.00  0.00    +0.000 F 
ENDBRANCH  28  29
ENDBRANCH  25  28
ENDBRANCH  21  22
ENDBRANCH  20  21
ENDBRANCH   3  20
TORSDOF 8
ENDMDL
MODEL 5
REMARK VINA RESULT:      -7.8      1.081      1.583
REMARK  Name = 
REMARK  10 active torsions:
REMARK  status: ('A' for Active; 'I' for Inactive)
REMARK    1  A    between atoms: C_1  and  C_2
REMARK    2  A    between atoms: C_2  and  C_3
REMARK    3  A    between atoms: C_2  and  C_4
REMARK    4  A    between atoms: C_7  and  C_8
REMARK    5  A    between atoms: C_10  and  S_11
REMARK    6  A    between atoms: S_11  and  C_12
REMARK    7  A    between atoms: C_12  and  C_13
REMARK    8  A    between atoms: C_16  and  O_17
REMARK    9  A    between atoms: O_17  and  C_18
REMARK   10  A    between atoms: C_27  and  C_28
REMARK                            x       y       z     vdW  Elec       q    Type
REMARK                         _______ _______ _______ _____ _____    ______ ____
ROOT
ATOM      1  C   UNL     1       3.665   5.565  19.080  0.00  0.00    +0.000 A 
ATOM      2  N   UNL     1       4.957   5.763  18.623  0.00  0.00    +0.000 NA
ATOM      3  C   UNL     1       5.733   4.736  18.616  0.00  0.00    +0.000 A 
ATOM      4  N   UNL     1       5.357   3.504  19.041  0.00  0.00    +0.000 N 
ATOM      5  C   UNL     1       4.096   3.237  19.481  0.00  0.00    +0.000 A 
ATOM      6  O   UNL     1       3.773   2.112  19.843  0.00  0.00    +0.000 OA
ATOM      7  C   UNL     1       3.164   4.382  19.492  0.00  0.00    +0.000 A 
ATOM      8  H   UNL     1       6.021   2.745  19.012  0.00  0.00    +0.000 HD
ENDROOT
BRANCH   1  12
ATOM      9  C   UNL     1       1.214   9.084  19.211  0.00  0.00    +0.000 A 
ATOM     10  C   UNL     1       1.442   8.324  20.368  0.00  0.00    +0.000 A 
ATOM     11  C   UNL     1       2.238   7.178  20.322  0.00  0.00    +0.000 A 
ATOM     12  C   UNL     1       2.814   6.768  19.114  0.00  0.00    +0.000 A 
ATOM     13  C   UNL     1       2.574   7.506  17.952  0.00  0.00    +0.000 A 
ATOM     14  C   UNL     1       1.783   8.656  18.004  0.00  0.00    +0.000 A 
BRANCH   9  16
ATOM     15  C   UNL     1       1.294  11.504  18.670  0.00  0.00    +0.000 C 
ATOM     16  C   UNL     1       0.456  10.398  19.319  0.00  0.00    +0.000 C 
ATOM     17  C   UNL     1      -0.949  10.359  18.710  0.00  0.00    +0.000 C 
ENDBRANCH   9  16
ENDBRANCH   1  12
BRANCH   7  18
ATOM     18  C   UNL     1       1.830   4.179  19.940  0.00  0.00    +0.000 C 
ATOM     19  N   UNL     1       0.737   4.034  20.310  0.00  0.00    +0.000 NA
ENDBRANCH   7  18
BRANCH   3  20
ATOM     20  S   UNL     1       7.361   4.735  18.032  0.00  0.00    +0.000 S 
BRANCH  20  21
ATOM     21  C   UNL     1       7.276   5.927  16.663  0.00  0.00    +0.000 C 
BRANCH  21  22
ATOM     22  C   UNL     1       6.878   5.216  15.387  0.00  0.00    +0.000 A 
ATOM     23  C   UNL     1       5.948   4.168  15.403  0.00  0.00    +0.000 A 
ATOM     24  C   UNL     1       5.651   3.464  14.230  0.00  0.00    +0.000 A 
ATOM     25  C   UNL     1       6.269   3.795  13.021  0.00  0.00    +0.000 A 
ATOM     26  C   UNL     1       7.220   4.813  13.007  0.00  0.00    +0.000 A 
ATOM     27  C   UNL     1       7.500   5.536  14.172  0.00  0.00    +0.000 A 
BRANCH  25  28
ATOM     28  O   UNL     1       5.919   3.019  11.958  0.00  0.00    +0.000 OA
BRANCH  28  29
ATOM     29  C   UNL     1       4.604   3.106  11.423  0.00  0.00    +0.000 C 
ATOM     30  F   UNL     1       4.409   4.130  10.566  0.00  0.00    +0.000 F 
ATOM     31  F   UNL     1       4.305   1.952  10.789  0.00  0.00    +0.000 F 
ATOM     32  F   UNL     1       3.734   3.260  12.448  0.00  0.00    +0.000 F 
ENDBRANCH  28  29
ENDBRANCH  25  28
ENDBRANCH  21  22
ENDBRANCH  20  21
ENDBRANCH   3  20
TORSDOF 8
ENDMDL
MODEL 6
REMARK VINA RESULT:      -7.8      1.095      1.595
REMARK  Name = 
REMARK  10 active torsions:
REMARK  status: ('A' for Active; 'I' for Inactive)
REMARK    1  A    between atoms: C_1  and  C_2
REMARK    2  A    between atoms: C_2  and  C_3
REMARK    3  A    between atoms: C_2  and  C_4
REMARK    4  A    between atoms: C_7  and  C_8
REMARK    5  A    between atoms: C_10  and  S_11
REMARK    6  A    between atoms: S_11  and  C_12
REMARK    7  A    between atoms: C_12  and  C_13
REMARK    8  A    between atoms: C_16  and  O_17
REMARK    9  A    between atoms: O_17  and  C_18
REMARK   10  A    between atoms: C_27  and  C_28
REMARK                            x       y       z     vdW  Elec       q    Type
REMARK                         _______ _______ _______ _____ _____    ______ ____
ROOT
ATOM      1  C   UNL     1       3.678   5.556  19.107  0.00  0.00    +0.000 A 
ATOM      2  N   UNL     1       4.976   5.776  18.679  0.00  0.00    +0.000 NA
ATOM      3  C   UNL     1       5.760   4.756  18.657  0.00  0.00    +0.000 A 
ATOM      4  N   UNL     1       5.387   3.509  19.039  0.00  0.00    +0.000 N 
ATOM      5  C   UNL     1       4.120   3.221  19.449  0.00  0.00    +0.000 A 
ATOM      6  O   UNL     1       3.799   2.083  19.772  0.00  0.00    +0.000 OA
ATOM      7  C   UNL     1       3.179   4.358  19.476  0.00  0.00    +0.000 A 
ATOM      8  H   UNL     1       6.057   2.757  19.001  0.00  0.00    +0.000 HD
ENDROOT
BRANCH   1  12
ATOM      9  C   UNL     1       1.197   9.052  19.295  0.00  0.00    +0.000 A 
ATOM     10  C   UNL     1       1.422   8.268  20.437  0.00  0.00    +0.000 A 
ATOM     11  C   UNL     1       2.228   7.130  20.372  0.00  0.00    +0.000 A 
ATOM     12  C   UNL     1       2.817   6.751  19.160  0.00  0.00    +0.000 A 
ATOM     13  C   UNL     1       2.580   7.512  18.013  0.00  0.00    +0.000 A 
ATOM     14  C   UNL     1       1.780   8.655  18.083  0.00  0.00    +0.000 A 
BRANCH   9  16
ATOM     15  C   UNL     1       0.173  10.633  20.910  0.00  0.00    +0.000 C 
ATOM     16  C   UNL     1       0.428  10.357  19.425  0.00  0.00    +0.000 C 
ATOM     17  C   UNL     1       1.117  11.555  18.765  0.00  0.00    +0.000 C 
ENDBRANCH   9  16
ENDBRANCH   1  12
BRANCH   7  18
ATOM     18  C   UNL     1       1.839   4.132  19.893  0.00  0.00    +0.000 C 
ATOM     19  N   UNL     1       0.735   3.960  20.218  0.00  0.00    +0.000 NA
ENDBRANCH   7  18
BRANCH   3  20
ATOM     20  S   UNL     1       7.398   4.784  18.103  0.00  0.00    +0.000 S 
BRANCH  20  21
ATOM     21  C   UNL     1       7.299   5.901  16.673  0.00  0.00    +0.000 C 
BRANCH  21  22
ATOM     22  C   UNL     1       6.963   5.110  15.426  0.00  0.00    +0.000 A 
ATOM     23  C   UNL     1       7.532   5.436  14.188  0.00  0.00    +0.000 A 
ATOM     24  C   UNL     1       7.150   4.752  13.028  0.00  0.00    +0.000 A 
ATOM     25  C   UNL     1       6.200   3.728  13.082  0.00  0.00    +0.000 A 
ATOM     26  C   UNL     1       5.605   3.425  14.304  0.00  0.00    +0.000 A 
ATOM     27  C   UNL     1       6.004   4.089  15.470  0.00  0.00    +0.000 A 
BRANCH  25  28
ATOM     28  O   UNL     1       5.891   3.160  11.884  0.00  0.00    +0.000 OA
BRANCH  28  29
ATOM     29  C   UNL     1       4.545   3.168  11.425  0.00  0.00    +0.000 C 
ATOM     30  F   UNL     1       4.251   4.155  10.553  0.00  0.00    +0.000 F 
ATOM     31  F   UNL     1       4.267   1.982  10.841  0.00  0.00    +0.000 F 
ATOM     32  F   UNL     1       3.727   3.312  12.493  0.00  0.00    +0.000 F 
ENDBRANCH  28  29
ENDBRANCH  25  28
ENDBRANCH  21  22
ENDBRANCH  20  21
ENDBRANCH   3  20
TORSDOF 8
ENDMDL
MODEL 7
REMARK VINA RESULT:      -7.6      6.289      9.901
REMARK  Name = 
REMARK  10 active torsions:
REMARK  status: ('A' for Active; 'I' for Inactive)
REMARK    1  A    between atoms: C_1  and  C_2
REMARK    2  A    between atoms: C_2  and  C_3
REMARK    3  A    between atoms: C_2  and  C_4
REMARK    4  A    between atoms: C_7  and  C_8
REMARK    5  A    between atoms: C_10  and  S_11
REMARK    6  A    between atoms: S_11  and  C_12
REMARK    7  A    between atoms: C_12  and  C_13
REMARK    8  A    between atoms: C_16  and  O_17
REMARK    9  A    between atoms: O_17  and  C_18
REMARK   10  A    between atoms: C_27  and  C_28
REMARK                            x       y       z     vdW  Elec       q    Type
REMARK                         _______ _______ _______ _____ _____    ______ ____
ROOT
ATOM      1  C   UNL     1       3.692   5.500  18.642  0.00  0.00    +0.000 A 
ATOM      2  N   UNL     1       3.103   6.752  18.586  0.00  0.00    +0.000 NA
ATOM      3  C   UNL     1       2.304   7.059  19.548  0.00  0.00    +0.000 A 
ATOM      4  N   UNL     1       2.008   6.227  20.578  0.00  0.00    +0.000 N 
ATOM      5  C   UNL     1       2.571   4.993  20.703  0.00  0.00    +0.000 A 
ATOM      6  O   UNL     1       2.304   4.265  21.652  0.00  0.00    +0.000 OA
ATOM      7  C   UNL     1       3.507   4.602  19.631  0.00  0.00    +0.000 A 
ATOM      8  H   UNL     1       1.369   6.533  21.294  0.00  0.00    +0.000 HD
ENDROOT
BRANCH   1  12
ATOM      9  C   UNL     1       6.211   4.523  15.307  0.00  0.00    +0.000 A 
ATOM     10  C   UNL     1       5.020   3.818  15.540  0.00  0.00    +0.000 A 
ATOM     11  C   UNL     1       4.204   4.136  16.627  0.00  0.00    +0.000 A 
ATOM     12  C   UNL     1       4.570   5.163  17.506  0.00  0.00    +0.000 A 
ATOM     13  C   UNL     1       5.764   5.855  17.296  0.00  0.00    +0.000 A 
ATOM     14  C   UNL     1       6.575   5.539  16.203  0.00  0.00    +0.000 A 
BRANCH   9  16
ATOM     15  C   UNL     1       6.071   3.648  12.991  0.00  0.00    +0.000 C 
ATOM     16  C   UNL     1       7.008   4.246  14.043  0.00  0.00    +0.000 C 
ATOM     17  C   UNL     1       7.736   5.472  13.483  0.00  0.00    +0.000 C 
ENDBRANCH   9  16
ENDBRANCH   1  12
BRANCH   7  18
ATOM     18  C   UNL     1       4.133   3.327  19.695  0.00  0.00    +0.000 C 
ATOM     19  N   UNL     1       4.626   2.274  19.742  0.00  0.00    +0.000 NA
ENDBRANCH   7  18
BRANCH   3  20
ATOM     20  S   UNL     1       1.507   8.584  19.716  0.00  0.00    +0.000 S 
BRANCH  20  21
ATOM     21  C   UNL     1       0.727   8.430  21.350  0.00  0.00    +0.000 C 
BRANCH  21  22
ATOM     22  C   UNL     1      -0.130   9.648  21.627  0.00  0.00    +0.000 A 
ATOM     23  C   UNL     1      -0.375  10.602  20.631  0.00  0.00    +0.000 A 
ATOM     24  C   UNL     1      -1.098  11.765  20.923  0.00  0.00    +0.000 A 
ATOM     25  C   UNL     1      -1.594  11.994  22.209  0.00  0.00    +0.000 A 
ATOM     26  C   UNL     1      -1.323  11.066  23.212  0.00  0.00    +0.000 A 
ATOM     27  C   UNL     1      -0.623   9.890  22.917  0.00  0.00    +0.000 A 
BRANCH  25  28
ATOM     28  O   UNL     1      -2.255  13.173  22.375  0.00  0.00    +0.000 OA
BRANCH  28  29
ATOM     29  C   UNL     1      -3.673  13.178  22.483  0.00  0.00    +0.000 C 
ATOM     30  F   UNL     1      -4.264  14.333  22.113  0.00  0.00    +0.000 F 
ATOM     31  F   UNL     1      -4.179  12.176  21.731  0.00  0.00    +0.000 F 
ATOM     32  F   UNL     1      -4.006  12.944  23.773  0.00  0.00    +0.000 F 
ENDBRANCH  28  29
ENDBRANCH  25  28
ENDBRANCH  21  22
ENDBRANCH  20  21
ENDBRANCH   3  20
TORSDOF 8
ENDMDL
MODEL 8
REMARK VINA RESULT:      -7.5      6.407      9.971
REMARK  Name = 
REMARK  10 active torsions:
REMARK  status: ('A' for Active; 'I' for Inactive)
REMARK    1  A    between atoms: C_1  and  C_2
REMARK    2  A    between atoms: C_2  and  C_3
REMARK    3  A    between atoms: C_2  and  C_4
REMARK    4  A    between atoms: C_7  and  C_8
REMARK    5  A    between atoms: C_10  and  S_11
REMARK    6  A    between atoms: S_11  and  C_12
REMARK    7  A    between atoms: C_12  and  C_13
REMARK    8  A    between atoms: C_16  and  O_17
REMARK    9  A    between atoms: O_17  and  C_18
REMARK   10  A    between atoms: C_27  and  C_28
REMARK                            x       y       z     vdW  Elec       q    Type
REMARK                         _______ _______ _______ _____ _____    ______ ____
ROOT
ATOM      1  C   UNL     1       3.723   5.550  18.587  0.00  0.00    +0.000 A 
ATOM      2  N   UNL     1       3.122   6.794  18.510  0.00  0.00    +0.000 NA
ATOM      3  C   UNL     1       2.319   7.110  19.466  0.00  0.00    +0.000 A 
ATOM      4  N   UNL     1       2.032   6.293  20.509  0.00  0.00    +0.000 N 
ATOM      5  C   UNL     1       2.606   5.067  20.656  0.00  0.00    +0.000 A 
ATOM      6  O   UNL     1       2.346   4.353  21.617  0.00  0.00    +0.000 OA
ATOM      7  C   UNL     1       3.547   4.667  19.591  0.00  0.00    +0.000 A 
ATOM      8  H   UNL     1       1.388   6.605  21.221  0.00  0.00    +0.000 HD
ENDROOT
BRANCH   1  12
ATOM      9  C   UNL     1       6.253   4.543  15.270  0.00  0.00    +0.000 A 
ATOM     10  C   UNL     1       5.049   3.857  15.489  0.00  0.00    +0.000 A 
ATOM     11  C   UNL     1       4.229   4.186  16.570  0.00  0.00    +0.000 A 
ATOM     12  C   UNL     1       4.605   5.202  17.457  0.00  0.00    +0.000 A 
ATOM     13  C   UNL     1       5.813   5.874  17.260  0.00  0.00    +0.000 A 
ATOM     14  C   UNL     1       6.627   5.548  16.173  0.00  0.00    +0.000 A 
BRANCH   9  16
ATOM     15  C   UNL     1       6.127   3.639  12.964  0.00  0.00    +0.000 C 
ATOM     16  C   UNL     1       7.057   4.256  14.012  0.00  0.00    +0.000 C 
ATOM     17  C   UNL     1       7.776   5.482  13.439  0.00  0.00    +0.000 C 
ENDBRANCH   9  16
ENDBRANCH   1  12
BRANCH   7  18
ATOM     18  C   UNL     1       4.185   3.399  19.677  0.00  0.00    +0.000 C 
ATOM     19  N   UNL     1       4.711   2.365  19.769  0.00  0.00    +0.000 NA
ENDBRANCH   7  18
BRANCH   3  20
ATOM     20  S   UNL     1       1.507   8.630  19.608  0.00  0.00    +0.000 S 
BRANCH  20  21
ATOM     21  C   UNL     1       1.110   8.688  21.380  0.00  0.00    +0.000 C 
BRANCH  21  22
ATOM     22  C   UNL     1       0.110   9.793  21.647  0.00  0.00    +0.000 A 
ATOM     23  C   UNL     1      -0.137  10.790  20.694  0.00  0.00    +0.000 A 
ATOM     24  C   UNL     1      -1.001  11.853  20.985  0.00  0.00    +0.000 A 
ATOM     25  C   UNL     1      -1.637  11.937  22.227  0.00  0.00    +0.000 A 
ATOM     26  C   UNL     1      -1.366  10.968  23.190  0.00  0.00    +0.000 A 
ATOM     27  C   UNL     1      -0.524   9.891  22.893  0.00  0.00    +0.000 A 
BRANCH  25  28
ATOM     28  O   UNL     1      -2.429  13.031  22.400  0.00  0.00    +0.000 OA
BRANCH  28  29
ATOM     29  C   UNL     1      -2.059  14.027  23.346  0.00  0.00    +0.000 C 
ATOM     30  F   UNL     1      -2.633  13.895  24.560  0.00  0.00    +0.000 F 
ATOM     31  F   UNL     1      -0.718  14.017  23.501  0.00  0.00    +0.000 F 
ATOM     32  F   UNL     1      -2.416  15.237  22.856  0.00  0.00    +0.000 F 
ENDBRANCH  28  29
ENDBRANCH  25  28
ENDBRANCH  21  22
ENDBRANCH  20  21
ENDBRANCH   3  20
TORSDOF 8
ENDMDL
MODEL 9
REMARK VINA RESULT:      -7.4      4.312      7.057
REMARK  Name = 
REMARK  10 active torsions:
REMARK  status: ('A' for Active; 'I' for Inactive)
REMARK    1  A    between atoms: C_1  and  C_2
REMARK    2  A    between atoms: C_2  and  C_3
REMARK    3  A    between atoms: C_2  and  C_4
REMARK    4  A    between atoms: C_7  and  C_8
REMARK    5  A    between atoms: C_10  and  S_11
REMARK    6  A    between atoms: S_11  and  C_12
REMARK    7  A    between atoms: C_12  and  C_13
REMARK    8  A    between atoms: C_16  and  O_17
REMARK    9  A    between atoms: O_17  and  C_18
REMARK   10  A    between atoms: C_27  and  C_28
REMARK                            x       y       z     vdW  Elec       q    Type
REMARK                         _______ _______ _______ _____ _____    ______ ____
ROOT
ATOM      1  C   UNL     1       6.221   5.280  17.695  0.00  0.00    +0.000 A 
ATOM      2  N   UNL     1       5.483   4.820  18.773  0.00  0.00    +0.000 NA
ATOM      3  C   UNL     1       4.815   3.733  18.596  0.00  0.00    +0.000 A 
ATOM      4  N   UNL     1       4.790   3.045  17.427  0.00  0.00    +0.000 N 
ATOM      5  C   UNL     1       5.511   3.432  16.338  0.00  0.00    +0.000 A 
ATOM      6  O   UNL     1       5.488   2.784  15.298  0.00  0.00    +0.000 OA
ATOM      7  C   UNL     1       6.306   4.665  16.498  0.00  0.00    +0.000 A 
ATOM      8  H   UNL     1       4.240   2.203  17.360  0.00  0.00    +0.000 HD
ENDROOT
BRANCH   1  12
ATOM      9  C   UNL     1       8.356   8.948  18.330  0.00  0.00    +0.000 A 
ATOM     10  C   UNL     1       8.698   7.786  19.038  0.00  0.00    +0.000 A 
ATOM     11  C   UNL     1       8.000   6.595  18.831  0.00  0.00    +0.000 A 
ATOM     12  C   UNL     1       6.941   6.547  17.916  0.00  0.00    +0.000 A 
ATOM     13  C   UNL     1       6.578   7.705  17.224  0.00  0.00    +0.000 A 
ATOM     14  C   UNL     1       7.284   8.893  17.428  0.00  0.00    +0.000 A 
BRANCH   9  16
ATOM     15  C   UNL     1       8.534  11.353  17.749  0.00  0.00    +0.000 C 
ATOM     16  C   UNL     1       9.218  10.192  18.475  0.00  0.00    +0.000 C 
ATOM     17  C   UNL     1       9.525  10.570  19.927  0.00  0.00    +0.000 C 
ENDBRANCH   9  16
ENDBRANCH   1  12
BRANCH   7  18
ATOM     18  C   UNL     1       7.083   5.130  15.402  0.00  0.00    +0.000 C 
ATOM     19  N   UNL     1       7.731   5.523  14.519  0.00  0.00    +0.000 NA
ENDBRANCH   7  18
BRANCH   3  20
ATOM     20  S   UNL     1       3.877   2.945  19.816  0.00  0.00    +0.000 S 
BRANCH  20  21
ATOM     21  C   UNL     1       2.184   3.431  19.370  0.00  0.00    +0.000 C 
BRANCH  21  22
ATOM     22  C   UNL     1       2.106   4.936  19.215  0.00  0.00    +0.000 A 
ATOM     23  C   UNL     1       2.224   5.540  17.956  0.00  0.00    +0.000 A 
ATOM     24  C   UNL     1       2.234   6.935  17.835  0.00  0.00    +0.000 A 
ATOM     25  C   UNL     1       2.121   7.751  18.965  0.00  0.00    +0.000 A 
ATOM     26  C   UNL     1       2.039   7.156  20.221  0.00  0.00    +0.000 A 
ATOM     27  C   UNL     1       2.003   5.761  20.343  0.00  0.00    +0.000 A 
BRANCH  25  28
ATOM     28  O   UNL     1       2.173   9.089  18.721  0.00  0.00    +0.000 OA
BRANCH  28  29
ATOM     29  C   UNL     1       0.967   9.837  18.630  0.00  0.00    +0.000 C 
ATOM     30  F   UNL     1       0.149   9.473  17.620  0.00  0.00    +0.000 F 
ATOM     31  F   UNL     1       0.287   9.729  19.792  0.00  0.00    +0.000 F 
ATOM     32  F   UNL     1       1.282  11.140  18.449  0.00  0.00    +0.000 F 
ENDBRANCH  28  29
ENDBRANCH  25  28
ENDBRANCH  21  22
ENDBRANCH  20  21
ENDBRANCH   3  20
TORSDOF 8
ENDMDL
