MODEL 1
REMARK VINA RESULT:      -7.4      0.000      0.000
REMARK  Name = 
REMARK  12 active torsions:
REMARK  status: ('A' for Active; 'I' for Inactive)
REMARK    1  A    between atoms: C_1  and  C_2
REMARK    2  A    between atoms: C_2  and  C_3
REMARK    3  A    between atoms: C_2  and  C_4
REMARK    4  A    between atoms: C_14  and  O_15
REMARK    5  A    between atoms: C_14  and  C_16
REMARK    6  A    between atoms: C_16  and  C_17
REMARK    7  A    between atoms: C_17  and  N_18
REMARK    8  A    between atoms: N_18  and  C_19
REMARK    9  A    between atoms: N_18  and  C_20
REMARK   10  A    between atoms: C_20  and  C_21
REMARK   11  A    between atoms: C_21  and  C_22
REMARK   12  A    between atoms: C_22  and  C_23
REMARK                            x       y       z     vdW  Elec       q    Type
REMARK                         _______ _______ _______ _____ _____    ______ ____
ROOT
ATOM      1  C   UNL     1       2.468   6.774  20.426  0.00  0.00    +0.000 C 
ENDROOT
BRANCH   1  12
ATOM      2  C   UNL     1       3.737   4.636  19.597  0.00  0.00    +0.000 C 
ATOM      3  C   UNL     1       4.860   5.387  18.893  0.00  0.00    +0.000 A 
ATOM      4  C   UNL     1       6.190   5.201  19.324  0.00  0.00    +0.000 A 
ATOM      5  C   UNL     1       7.255   5.834  18.672  0.00  0.00    +0.000 A 
ATOM      6  C   UNL     1       6.977   6.669  17.602  0.00  0.00    +0.000 A 
ATOM      7  F   UNL     1       7.989   7.275  16.968  0.00  0.00    +0.000 F 
ATOM      8  C   UNL     1       5.675   6.910  17.184  0.00  0.00    +0.000 A 
ATOM      9  C   UNL     1       4.599   6.279  17.835  0.00  0.00    +0.000 A 
ATOM     10  C   UNL     1       3.201   6.683  17.433  0.00  0.00    +0.000 C 
ATOM     11  C   UNL     1       2.075   5.905  18.111  0.00  0.00    +0.000 C 
ATOM     12  C   UNL     1       2.412   5.481  19.551  0.00  0.00    +0.000 C 
BRANCH   2  14
ATOM     13  C   UNL     1       3.948   2.801  17.702  0.00  0.00    +0.000 C 
ATOM     14  C   UNL     1       3.616   3.124  19.160  0.00  0.00    +0.000 C 
ATOM     15  C   UNL     1       4.451   2.188  20.053  0.00  0.00    +0.000 C 
ENDBRANCH   2  14
BRANCH  12  16
ATOM     16  O   UNL     1       1.314   4.710  20.064  0.00  0.00    +0.000 OA
ATOM     17  H   UNL     1       1.161   3.953  19.474  0.00  0.00    +0.000 HD
ENDBRANCH  12  16
ENDBRANCH   1  12
BRANCH   1  18
ATOM     18  C   UNL     1       1.137   7.161  21.085  0.00  0.00    +0.000 C 
BRANCH  18  19
ATOM     19  N   UNL     1       0.668   8.522  20.741  0.00  0.00    +0.000 NA
ATOM     20  C   UNL     1       0.556   9.374  21.930  0.00  0.00    +0.000 C 
BRANCH  19  21
ATOM     21  C   UNL     1       1.576   9.159  19.763  0.00  0.00    +0.000 C 
BRANCH  21  22
ATOM     22  C   UNL     1       0.880   9.745  18.523  0.00  0.00    +0.000 C 
BRANCH  22  23
ATOM     23  C   UNL     1       0.533  11.221  18.713  0.00  0.00    +0.000 C 
BRANCH  23  24
ATOM     24  C   UNL     1      -0.920  11.494  18.522  0.00  0.00    +0.000 A 
ATOM     25  N   UNL     1      -1.743  12.032  19.398  0.00  0.00    +0.000 NA
ATOM     26  C   UNL     1      -2.993  11.926  18.839  0.00  0.00    +0.000 A 
ATOM     27  C   UNL     1      -4.251  12.200  19.393  0.00  0.00    +0.000 A 
ATOM     28  C   UNL     1      -5.392  11.957  18.616  0.00  0.00    +0.000 A 
ATOM     29  C   UNL     1      -5.277  11.537  17.287  0.00  0.00    +0.000 A 
ATOM     30  C   UNL     1      -4.029  11.272  16.713  0.00  0.00    +0.000 A 
ATOM     31  C   UNL     1      -2.918  11.424  17.546  0.00  0.00    +0.000 A 
ATOM     32  N   UNL     1      -1.598  11.086  17.398  0.00  0.00    +0.000 N 
ATOM     33  H   UNL     1      -1.213  10.521  16.655  0.00  0.00    +0.000 HD
ENDBRANCH  23  24
ENDBRANCH  22  23
ENDBRANCH  21  22
ENDBRANCH  19  21
ENDBRANCH  18  19
ENDBRANCH   1  18
TORSDOF 9
ENDMDL
MODEL 2
REMARK VINA RESULT:      -7.3      3.286      9.172
REMARK  Name = 
REMARK  12 active torsions:
REMARK  status: ('A' for Active; 'I' for Inactive)
REMARK    1  A    between atoms: C_1  and  C_2
REMARK    2  A    between atoms: C_2  and  C_3
REMARK    3  A    between atoms: C_2  and  C_4
REMARK    4  A    between atoms: C_14  and  O_15
REMARK    5  A    between atoms: C_14  and  C_16
REMARK    6  A    between atoms: C_16  and  C_17
REMARK    7  A    between atoms: C_17  and  N_18
REMARK    8  A    between atoms: N_18  and  C_19
REMARK    9  A    between atoms: N_18  and  C_20
REMARK   10  A    between atoms: C_20  and  C_21
REMARK   11  A    between atoms: C_21  and  C_22
REMARK   12  A    between atoms: C_22  and  C_23
REMARK                            x       y       z     vdW  Elec       q    Type
REMARK                         _______ _______ _______ _____ _____    ______ ____
ROOT
ATOM      1  C   UNL     1       0.133   8.925  20.853  0.00  0.00    +0.000 C 
ENDROOT
BRANCH   1  12
ATOM      2  C   UNL     1      -0.855  11.257  20.176  0.00  0.00    +0.000 C 
ATOM      3  C   UNL     1      -1.580  10.761  18.931  0.00  0.00    +0.000 A 
ATOM      4  C   UNL     1      -2.982  10.887  18.855  0.00  0.00    +0.000 A 
ATOM      5  C   UNL     1      -3.681  10.490  17.707  0.00  0.00    +0.000 A 
ATOM      6  C   UNL     1      -2.968   9.948  16.650  0.00  0.00    +0.000 A 
ATOM      7  F   UNL     1      -3.625   9.571  15.546  0.00  0.00    +0.000 F 
ATOM      8  C   UNL     1      -1.592   9.769  16.714  0.00  0.00    +0.000 A 
ATOM      9  C   UNL     1      -0.884  10.163  17.863  0.00  0.00    +0.000 A 
ATOM     10  C   UNL     1       0.584   9.818  17.936  0.00  0.00    +0.000 C 
ATOM     11  C   UNL     1       1.320  10.346  19.166  0.00  0.00    +0.000 C 
ATOM     12  C   UNL     1       0.437  10.397  20.426  0.00  0.00    +0.000 C 
BRANCH   2  14
ATOM     13  C   UNL     1      -0.488  13.532  18.875  0.00  0.00    +0.000 C 
ATOM     14  C   UNL     1      -0.670  12.824  20.219  0.00  0.00    +0.000 C 
ATOM     15  C   UNL     1      -1.813  13.528  20.973  0.00  0.00    +0.000 C 
ENDBRANCH   2  14
BRANCH  12  16
ATOM     16  O   UNL     1       1.210  10.962  21.496  0.00  0.00    +0.000 OA
ATOM     17  H   UNL     1       1.954  11.459  21.117  0.00  0.00    +0.000 HD
ENDBRANCH  12  16
ENDBRANCH   1  12
BRANCH   1  18
ATOM     18  C   UNL     1       1.375   8.063  21.117  0.00  0.00    +0.000 C 
BRANCH  18  19
ATOM     19  N   UNL     1       1.530   6.928  20.180  0.00  0.00    +0.000 NA
ATOM     20  C   UNL     1       2.629   7.154  19.234  0.00  0.00    +0.000 C 
BRANCH  19  21
ATOM     21  C   UNL     1       1.766   5.668  20.917  0.00  0.00    +0.000 C 
BRANCH  21  22
ATOM     22  C   UNL     1       1.177   4.412  20.251  0.00  0.00    +0.000 C 
BRANCH  22  23
ATOM     23  C   UNL     1       2.189   3.268  20.208  0.00  0.00    +0.000 C 
BRANCH  23  24
ATOM     24  C   UNL     1       3.332   3.551  19.294  0.00  0.00    +0.000 A 
ATOM     25  N   UNL     1       4.572   3.825  19.644  0.00  0.00    +0.000 NA
ATOM     26  C   UNL     1       5.212   4.175  18.480  0.00  0.00    +0.000 A 
ATOM     27  C   UNL     1       6.497   4.699  18.284  0.00  0.00    +0.000 A 
ATOM     28  C   UNL     1       6.897   5.022  16.981  0.00  0.00    +0.000 A 
ATOM     29  C   UNL     1       6.069   4.745  15.889  0.00  0.00    +0.000 A 
ATOM     30  C   UNL     1       4.788   4.208  16.063  0.00  0.00    +0.000 A 
ATOM     31  C   UNL     1       4.380   3.996  17.382  0.00  0.00    +0.000 A 
ATOM     32  N   UNL     1       3.168   3.672  17.935  0.00  0.00    +0.000 N 
ATOM     33  H   UNL     1       2.284   3.655  17.448  0.00  0.00    +0.000 HD
ENDBRANCH  23  24
ENDBRANCH  22  23
ENDBRANCH  21  22
ENDBRANCH  19  21
ENDBRANCH  18  19
ENDBRANCH   1  18
TORSDOF 9
ENDMDL
MODEL 3
REMARK VINA RESULT:      -7.3      0.772      1.180
REMARK  Name = 
REMARK  12 active torsions:
REMARK  status: ('A' for Active; 'I' for Inactive)
REMARK    1  A    between atoms: C_1  and  C_2
REMARK    2  A    between atoms: C_2  and  C_3
REMARK    3  A    between atoms: C_2  and  C_4
REMARK    4  A    between atoms: C_14  and  O_15
REMARK    5  A    between atoms: C_14  and  C_16
REMARK    6  A    between atoms: C_16  and  C_17
REMARK    7  A    between atoms: C_17  and  N_18
REMARK    8  A    between atoms: N_18  and  C_19
REMARK    9  A    between atoms: N_18  and  C_20
REMARK   10  A    between atoms: C_20  and  C_21
REMARK   11  A    between atoms: C_21  and  C_22
REMARK   12  A    between atoms: C_22  and  C_23
REMARK                            x       y       z     vdW  Elec       q    Type
REMARK                         _______ _______ _______ _____ _____    ______ ____
ROOT
ATOM      1  C   UNL     1       2.436   6.819  20.412  0.00  0.00    +0.000 C 
ENDROOT
BRANCH   1  12
ATOM      2  C   UNL     1       3.689   4.655  19.625  0.00  0.00    +0.000 C 
ATOM      3  C   UNL     1       4.825   5.384  18.919  0.00  0.00    +0.000 A 
ATOM      4  C   UNL     1       6.149   5.190  19.364  0.00  0.00    +0.000 A 
ATOM      5  C   UNL     1       7.226   5.801  18.710  0.00  0.00    +0.000 A 
ATOM      6  C   UNL     1       6.966   6.623  17.625  0.00  0.00    +0.000 A 
ATOM      7  F   UNL     1       7.989   7.208  16.990  0.00  0.00    +0.000 F 
ATOM      8  C   UNL     1       5.670   6.871  17.193  0.00  0.00    +0.000 A 
ATOM      9  C   UNL     1       4.582   6.261  17.845  0.00  0.00    +0.000 A 
ATOM     10  C   UNL     1       3.191   6.674  17.426  0.00  0.00    +0.000 C 
ATOM     11  C   UNL     1       2.052   5.919  18.107  0.00  0.00    +0.000 C 
ATOM     12  C   UNL     1       2.373   5.513  19.556  0.00  0.00    +0.000 C 
BRANCH   2  14
ATOM     13  C   UNL     1       3.871   2.792  17.754  0.00  0.00    +0.000 C 
ATOM     14  C   UNL     1       3.555   3.138  19.211  0.00  0.00    +0.000 C 
ATOM     15  C   UNL     1       4.393   2.209  20.109  0.00  0.00    +0.000 C 
ENDBRANCH   2  14
BRANCH  12  16
ATOM     16  O   UNL     1       1.263   4.762  20.072  0.00  0.00    +0.000 OA
ATOM     17  H   UNL     1       1.574   4.210  20.808  0.00  0.00    +0.000 HD
ENDBRANCH  12  16
ENDBRANCH   1  12
BRANCH   1  18
ATOM     18  C   UNL     1       1.096   7.551  20.565  0.00  0.00    +0.000 C 
BRANCH  18  19
ATOM     19  N   UNL     1       1.176   9.010  20.327  0.00  0.00    +0.000 NA
ATOM     20  C   UNL     1       1.501   9.313  18.929  0.00  0.00    +0.000 C 
BRANCH  19  21
ATOM     21  C   UNL     1      -0.094   9.672  20.693  0.00  0.00    +0.000 C 
BRANCH  21  22
ATOM     22  C   UNL     1       0.065  11.054  21.351  0.00  0.00    +0.000 C 
BRANCH  22  23
ATOM     23  C   UNL     1      -0.010  12.182  20.323  0.00  0.00    +0.000 C 
BRANCH  23  24
ATOM     24  C   UNL     1      -1.161  12.027  19.389  0.00  0.00    +0.000 A 
ATOM     25  N   UNL     1      -2.439  12.130  19.688  0.00  0.00    +0.000 NA
ATOM     26  C   UNL     1      -3.113  11.745  18.555  0.00  0.00    +0.000 A 
ATOM     27  C   UNL     1      -4.483  11.522  18.356  0.00  0.00    +0.000 A 
ATOM     28  C   UNL     1      -4.913  11.080  17.099  0.00  0.00    +0.000 A 
ATOM     29  C   UNL     1      -4.011  10.949  16.038  0.00  0.00    +0.000 A 
ATOM     30  C   UNL     1      -2.642  11.180  16.214  0.00  0.00    +0.000 A 
ATOM     31  C   UNL     1      -2.232  11.518  17.506  0.00  0.00    +0.000 A 
ATOM     32  N   UNL     1      -0.994  11.630  18.084  0.00  0.00    +0.000 N 
ATOM     33  H   UNL     1      -0.120  11.346  17.665  0.00  0.00    +0.000 HD
ENDBRANCH  23  24
ENDBRANCH  22  23
ENDBRANCH  21  22
ENDBRANCH  19  21
ENDBRANCH  18  19
ENDBRANCH   1  18
TORSDOF 9
ENDMDL
MODEL 4
REMARK VINA RESULT:      -7.1      2.016      3.206
REMARK  Name = 
REMARK  12 active torsions:
REMARK  status: ('A' for Active; 'I' for Inactive)
REMARK    1  A    between atoms: C_1  and  C_2
REMARK    2  A    between atoms: C_2  and  C_3
REMARK    3  A    between atoms: C_2  and  C_4
REMARK    4  A    between atoms: C_14  and  O_15
REMARK    5  A    between atoms: C_14  and  C_16
REMARK    6  A    between atoms: C_16  and  C_17
REMARK    7  A    between atoms: C_17  and  N_18
REMARK    8  A    between atoms: N_18  and  C_19
REMARK    9  A    between atoms: N_18  and  C_20
REMARK   10  A    between atoms: C_20  and  C_21
REMARK   11  A    between atoms: C_21  and  C_22
REMARK   12  A    between atoms: C_22  and  C_23
REMARK                            x       y       z     vdW  Elec       q    Type
REMARK                         _______ _______ _______ _____ _____    ______ ____
ROOT
ATOM      1  C   UNL     1       2.465   6.903  20.342  0.00  0.00    +0.000 C 
ENDROOT
BRANCH   1  12
ATOM      2  C   UNL     1       3.719   4.745  19.542  0.00  0.00    +0.000 C 
ATOM      3  C   UNL     1       4.867   5.478  18.860  0.00  0.00    +0.000 A 
ATOM      4  C   UNL     1       6.185   5.273  19.319  0.00  0.00    +0.000 A 
ATOM      5  C   UNL     1       7.273   5.888  18.688  0.00  0.00    +0.000 A 
ATOM      6  C   UNL     1       7.029   6.726  17.611  0.00  0.00    +0.000 A 
ATOM      7  F   UNL     1       8.063   7.316  16.997  0.00  0.00    +0.000 F 
ATOM      8  C   UNL     1       5.740   6.985  17.166  0.00  0.00    +0.000 A 
ATOM      9  C   UNL     1       4.641   6.371  17.796  0.00  0.00    +0.000 A 
ATOM     10  C   UNL     1       3.258   6.796  17.364  0.00  0.00    +0.000 C 
ATOM     11  C   UNL     1       2.107   6.036  18.020  0.00  0.00    +0.000 C 
ATOM     12  C   UNL     1       2.408   5.609  19.468  0.00  0.00    +0.000 C 
BRANCH   2  14
ATOM     13  C   UNL     1       3.956   2.901  17.658  0.00  0.00    +0.000 C 
ATOM     14  C   UNL     1       3.585   3.234  19.105  0.00  0.00    +0.000 C 
ATOM     15  C   UNL     1       4.375   2.285  20.025  0.00  0.00    +0.000 C 
ENDBRANCH   2  14
BRANCH  12  16
ATOM     16  O   UNL     1       1.288   4.856  19.959  0.00  0.00    +0.000 OA
ATOM     17  H   UNL     1       0.469   5.326  19.729  0.00  0.00    +0.000 HD
ENDBRANCH  12  16
ENDBRANCH   1  12
BRANCH   1  18
ATOM     18  C   UNL     1       1.175   7.214  21.113  0.00  0.00    +0.000 C 
BRANCH  18  19
ATOM     19  N   UNL     1       0.602   8.546  20.815  0.00  0.00    +0.000 NA
ATOM     20  C   UNL     1       0.461   9.359  22.028  0.00  0.00    +0.000 C 
BRANCH  19  21
ATOM     21  C   UNL     1       1.438   9.269  19.833  0.00  0.00    +0.000 C 
BRANCH  21  22
ATOM     22  C   UNL     1       0.729   9.616  18.513  0.00  0.00    +0.000 C 
BRANCH  22  23
ATOM     23  C   UNL     1      -0.283  10.747  18.693  0.00  0.00    +0.000 C 
BRANCH  23  24
ATOM     24  C   UNL     1       0.364  12.088  18.744  0.00  0.00    +0.000 A 
ATOM     25  N   UNL     1      -0.169  13.206  19.192  0.00  0.00    +0.000 NA
ATOM     26  C   UNL     1       0.733  14.193  18.881  0.00  0.00    +0.000 A 
ATOM     27  C   UNL     1       0.615  15.585  18.992  0.00  0.00    +0.000 A 
ATOM     28  C   UNL     1       1.679  16.384  18.553  0.00  0.00    +0.000 A 
ATOM     29  C   UNL     1       2.869  15.807  18.098  0.00  0.00    +0.000 A 
ATOM     30  C   UNL     1       3.010  14.418  17.994  0.00  0.00    +0.000 A 
ATOM     31  C   UNL     1       1.894  13.653  18.341  0.00  0.00    +0.000 A 
ATOM     32  N   UNL     1       1.602  12.322  18.194  0.00  0.00    +0.000 N 
ATOM     33  H   UNL     1       2.141  11.656  17.660  0.00  0.00    +0.000 HD
ENDBRANCH  23  24
ENDBRANCH  22  23
ENDBRANCH  21  22
ENDBRANCH  19  21
ENDBRANCH  18  19
ENDBRANCH   1  18
TORSDOF 9
ENDMDL
MODEL 5
REMARK VINA RESULT:      -7.0      6.212      9.818
REMARK  Name = 
REMARK  12 active torsions:
REMARK  status: ('A' for Active; 'I' for Inactive)
REMARK    1  A    between atoms: C_1  and  C_2
REMARK    2  A    between atoms: C_2  and  C_3
REMARK    3  A    between atoms: C_2  and  C_4
REMARK    4  A    between atoms: C_14  and  O_15
REMARK    5  A    between atoms: C_14  and  C_16
REMARK    6  A    between atoms: C_16  and  C_17
REMARK    7  A    between atoms: C_17  and  N_18
REMARK    8  A    between atoms: N_18  and  C_19
REMARK    9  A    between atoms: N_18  and  C_20
REMARK   10  A    between atoms: C_20  and  C_21
REMARK   11  A    between atoms: C_21  and  C_22
REMARK   12  A    between atoms: C_22  and  C_23
REMARK                            x       y       z     vdW  Elec       q    Type
REMARK                         _______ _______ _______ _____ _____    ______ ____
ROOT
ATOM      1  C   UNL     1       9.137  10.596  17.970  0.00  0.00    +0.000 C 
ENDROOT
BRANCH   1  12
ATOM      2  C   UNL     1       9.167  12.505  19.767  0.00  0.00    +0.000 C 
ATOM      3  C   UNL     1       9.603  13.609  18.811  0.00  0.00    +0.000 A 
ATOM      4  C   UNL     1       8.756  14.718  18.609  0.00  0.00    +0.000 A 
ATOM      5  C   UNL     1       9.142  15.778  17.778  0.00  0.00    +0.000 A 
ATOM      6  C   UNL     1      10.369  15.706  17.136  0.00  0.00    +0.000 A 
ATOM      7  F   UNL     1      10.749  16.717  16.344  0.00  0.00    +0.000 F 
ATOM      8  C   UNL     1      11.203  14.606  17.279  0.00  0.00    +0.000 A 
ATOM      9  C   UNL     1      10.822  13.537  18.111  0.00  0.00    +0.000 A 
ATOM     10  C   UNL     1      11.698  12.307  18.119  0.00  0.00    +0.000 C 
ATOM     11  C   UNL     1      11.283  11.215  19.103  0.00  0.00    +0.000 C 
ATOM     12  C   UNL     1       9.759  11.125  19.302  0.00  0.00    +0.000 C 
BRANCH   2  14
ATOM     13  C   UNL     1      10.172  14.134  21.594  0.00  0.00    +0.000 C 
ATOM     14  C   UNL     1       9.363  12.872  21.289  0.00  0.00    +0.000 C 
ATOM     15  C   UNL     1       8.025  12.975  22.044  0.00  0.00    +0.000 C 
ENDBRANCH   2  14
BRANCH  12  16
ATOM     16  O   UNL     1       9.492  10.113  20.286  0.00  0.00    +0.000 OA
ATOM     17  H   UNL     1       9.939   9.292  20.020  0.00  0.00    +0.000 HD
ENDBRANCH  12  16
ENDBRANCH   1  12
BRANCH   1  18
ATOM     18  C   UNL     1       7.888   9.723  18.147  0.00  0.00    +0.000 C 
BRANCH  18  19
ATOM     19  N   UNL     1       8.084   8.307  17.764  0.00  0.00    +0.000 NA
ATOM     20  C   UNL     1       8.441   7.478  18.921  0.00  0.00    +0.000 C 
BRANCH  19  21
ATOM     21  C   UNL     1       6.867   7.762  17.125  0.00  0.00    +0.000 C 
BRANCH  21  22
ATOM     22  C   UNL     1       6.832   6.228  17.009  0.00  0.00    +0.000 C 
BRANCH  22  23
ATOM     23  C   UNL     1       5.423   5.716  16.709  0.00  0.00    +0.000 C 
BRANCH  23  24
ATOM     24  C   UNL     1       4.765   5.124  17.908  0.00  0.00    +0.000 A 
ATOM     25  N   UNL     1       5.014   3.948  18.446  0.00  0.00    +0.000 NA
ATOM     26  C   UNL     1       4.055   3.776  19.413  0.00  0.00    +0.000 A 
ATOM     27  C   UNL     1       3.755   2.649  20.191  0.00  0.00    +0.000 A 
ATOM     28  C   UNL     1       2.678   2.720  21.085  0.00  0.00    +0.000 A 
ATOM     29  C   UNL     1       1.974   3.915  21.265  0.00  0.00    +0.000 A 
ATOM     30  C   UNL     1       2.269   5.055  20.508  0.00  0.00    +0.000 A 
ATOM     31  C   UNL     1       3.278   4.920  19.552  0.00  0.00    +0.000 A 
ATOM     32  N   UNL     1       3.701   5.732  18.531  0.00  0.00    +0.000 N 
ATOM     33  H   UNL     1       3.232   6.566  18.210  0.00  0.00    +0.000 HD
ENDBRANCH  23  24
ENDBRANCH  22  23
ENDBRANCH  21  22
ENDBRANCH  19  21
ENDBRANCH  18  19
ENDBRANCH   1  18
TORSDOF 9
ENDMDL
MODEL 6
REMARK VINA RESULT:      -7.0      6.138      9.371
REMARK  Name = 
REMARK  12 active torsions:
REMARK  status: ('A' for Active; 'I' for Inactive)
REMARK    1  A    between atoms: C_1  and  C_2
REMARK    2  A    between atoms: C_2  and  C_3
REMARK    3  A    between atoms: C_2  and  C_4
REMARK    4  A    between atoms: C_14  and  O_15
REMARK    5  A    between atoms: C_14  and  C_16
REMARK    6  A    between atoms: C_16  and  C_17
REMARK    7  A    between atoms: C_17  and  N_18
REMARK    8  A    between atoms: N_18  and  C_19
REMARK    9  A    between atoms: N_18  and  C_20
REMARK   10  A    between atoms: C_20  and  C_21
REMARK   11  A    between atoms: C_21  and  C_22
REMARK   12  A    between atoms: C_22  and  C_23
REMARK                            x       y       z     vdW  Elec       q    Type
REMARK                         _______ _______ _______ _____ _____    ______ ____
ROOT
ATOM      1  C   UNL     1       9.030  10.560  17.885  0.00  0.00    +0.000 C 
ENDROOT
BRANCH   1  12
ATOM      2  C   UNL     1       9.150  12.408  19.741  0.00  0.00    +0.000 C 
ATOM      3  C   UNL     1       9.527  13.546  18.801  0.00  0.00    +0.000 A 
ATOM      4  C   UNL     1       8.665  14.656  18.684  0.00  0.00    +0.000 A 
ATOM      5  C   UNL     1       9.000  15.745  17.869  0.00  0.00    +0.000 A 
ATOM      6  C   UNL     1      10.189  15.704  17.159  0.00  0.00    +0.000 A 
ATOM      7  F   UNL     1      10.521  16.743  16.382  0.00  0.00    +0.000 F 
ATOM      8  C   UNL     1      11.035  14.605  17.218  0.00  0.00    +0.000 A 
ATOM      9  C   UNL     1      10.706  13.505  18.033  0.00  0.00    +0.000 A 
ATOM     10  C   UNL     1      11.587  12.283  17.951  0.00  0.00    +0.000 C 
ATOM     11  C   UNL     1      11.232  11.155  18.919  0.00  0.00    +0.000 C 
ATOM     12  C   UNL     1       9.723  11.048  19.198  0.00  0.00    +0.000 C 
BRANCH   2  14
ATOM     13  C   UNL     1      10.077  14.074  21.577  0.00  0.00    +0.000 C 
ATOM     14  C   UNL     1       9.428  12.724  21.262  0.00  0.00    +0.000 C 
ATOM     15  C   UNL     1       8.161  12.597  22.128  0.00  0.00    +0.000 C 
ENDBRANCH   2  14
BRANCH  12  16
ATOM     16  O   UNL     1       9.514  10.002  20.160  0.00  0.00    +0.000 OA
ATOM     17  H   UNL     1       8.686   9.540  19.947  0.00  0.00    +0.000 HD
ENDBRANCH  12  16
ENDBRANCH   1  12
BRANCH   1  18
ATOM     18  C   UNL     1       7.875   9.572  18.097  0.00  0.00    +0.000 C 
BRANCH  18  19
ATOM     19  N   UNL     1       8.192   8.182  17.699  0.00  0.00    +0.000 NA
ATOM     20  C   UNL     1       8.441   7.329  18.865  0.00  0.00    +0.000 C 
BRANCH  19  21
ATOM     21  C   UNL     1       7.096   7.605  16.892  0.00  0.00    +0.000 C 
BRANCH  21  22
ATOM     22  C   UNL     1       5.943   6.999  17.710  0.00  0.00    +0.000 C 
BRANCH  22  23
ATOM     23  C   UNL     1       4.808   6.508  16.811  0.00  0.00    +0.000 C 
BRANCH  23  24
ATOM     24  C   UNL     1       3.750   5.786  17.573  0.00  0.00    +0.000 A 
ATOM     25  N   UNL     1       3.147   6.196  18.669  0.00  0.00    +0.000 NA
ATOM     26  C   UNL     1       2.385   5.133  19.089  0.00  0.00    +0.000 A 
ATOM     27  C   UNL     1       1.657   4.962  20.274  0.00  0.00    +0.000 A 
ATOM     28  C   UNL     1       0.995   3.745  20.483  0.00  0.00    +0.000 A 
ATOM     29  C   UNL     1       0.985   2.756  19.494  0.00  0.00    +0.000 A 
ATOM     30  C   UNL     1       1.694   2.915  18.298  0.00  0.00    +0.000 A 
ATOM     31  C   UNL     1       2.429   4.096  18.165  0.00  0.00    +0.000 A 
ATOM     32  N   UNL     1       3.363   4.507  17.250  0.00  0.00    +0.000 N 
ATOM     33  H   UNL     1       3.790   3.926  16.543  0.00  0.00    +0.000 HD
ENDBRANCH  23  24
ENDBRANCH  22  23
ENDBRANCH  21  22
ENDBRANCH  19  21
ENDBRANCH  18  19
ENDBRANCH   1  18
TORSDOF 9
ENDMDL
MODEL 7
REMARK VINA RESULT:      -7.0      1.386      2.098
REMARK  Name = 
REMARK  12 active torsions:
REMARK  status: ('A' for Active; 'I' for Inactive)
REMARK    1  A    between atoms: C_1  and  C_2
REMARK    2  A    between atoms: C_2  and  C_3
REMARK    3  A    between atoms: C_2  and  C_4
REMARK    4  A    between atoms: C_14  and  O_15
REMARK    5  A    between atoms: C_14  and  C_16
REMARK    6  A    between atoms: C_16  and  C_17
REMARK    7  A    between atoms: C_17  and  N_18
REMARK    8  A    between atoms: N_18  and  C_19
REMARK    9  A    between atoms: N_18  and  C_20
REMARK   10  A    between atoms: C_20  and  C_21
REMARK   11  A    between atoms: C_21  and  C_22
REMARK   12  A    between atoms: C_22  and  C_23
REMARK                            x       y       z     vdW  Elec       q    Type
REMARK                         _______ _______ _______ _____ _____    ______ ____
ROOT
ATOM      1  C   UNL     1       1.853   5.787  18.260  0.00  0.00    +0.000 C 
ENDROOT
BRANCH   1  12
ATOM      2  C   UNL     1       3.551   4.308  19.602  0.00  0.00    +0.000 C 
ATOM      3  C   UNL     1       4.663   4.369  18.562  0.00  0.00    +0.000 A 
ATOM      4  C   UNL     1       5.903   4.942  18.913  0.00  0.00    +0.000 A 
ATOM      5  C   UNL     1       6.967   4.972  18.003  0.00  0.00    +0.000 A 
ATOM      6  C   UNL     1       6.772   4.446  16.736  0.00  0.00    +0.000 A 
ATOM      7  F   UNL     1       7.785   4.464  15.860  0.00  0.00    +0.000 F 
ATOM      8  C   UNL     1       5.549   3.917  16.346  0.00  0.00    +0.000 A 
ATOM      9  C   UNL     1       4.475   3.885  17.254  0.00  0.00    +0.000 A 
ATOM     10  C   UNL     1       3.131   3.431  16.736  0.00  0.00    +0.000 C 
ATOM     11  C   UNL     1       2.025   3.334  17.785  0.00  0.00    +0.000 C 
ATOM     12  C   UNL     1       2.148   4.391  18.896  0.00  0.00    +0.000 C 
BRANCH   2  14
ATOM     13  C   UNL     1       2.490   2.734  21.446  0.00  0.00    +0.000 C 
ATOM     14  C   UNL     1       3.734   3.149  20.658  0.00  0.00    +0.000 C 
ATOM     15  C   UNL     1       4.342   1.880  20.034  0.00  0.00    +0.000 C 
ENDBRANCH   2  14
BRANCH  12  16
ATOM     16  O   UNL     1       1.099   4.167  19.851  0.00  0.00    +0.000 OA
ATOM     17  H   UNL     1       1.340   4.597  20.688  0.00  0.00    +0.000 HD
ENDBRANCH  12  16
ENDBRANCH   1  12
BRANCH   1  18
ATOM     18  C   UNL     1       2.314   6.986  19.099  0.00  0.00    +0.000 C 
BRANCH  18  19
ATOM     19  N   UNL     1       3.014   8.032  18.320  0.00  0.00    +0.000 NA
ATOM     20  C   UNL     1       3.804   7.454  17.227  0.00  0.00    +0.000 C 
BRANCH  19  21
ATOM     21  C   UNL     1       2.052   9.009  17.769  0.00  0.00    +0.000 C 
BRANCH  21  22
ATOM     22  C   UNL     1       0.901   9.387  18.717  0.00  0.00    +0.000 C 
BRANCH  22  23
ATOM     23  C   UNL     1       0.666  10.897  18.748  0.00  0.00    +0.000 C 
BRANCH  23  24
ATOM     24  C   UNL     1      -0.760  11.256  18.506  0.00  0.00    +0.000 A 
ATOM     25  N   UNL     1      -1.580  11.847  19.351  0.00  0.00    +0.000 NA
ATOM     26  C   UNL     1      -2.814  11.814  18.749  0.00  0.00    +0.000 A 
ATOM     27  C   UNL     1      -4.071  12.166  19.258  0.00  0.00    +0.000 A 
ATOM     28  C   UNL     1      -5.197  11.989  18.444  0.00  0.00    +0.000 A 
ATOM     29  C   UNL     1      -5.063  11.555  17.121  0.00  0.00    +0.000 A 
ATOM     30  C   UNL     1      -3.814  11.212  16.590  0.00  0.00    +0.000 A 
ATOM     31  C   UNL     1      -2.725  11.301  17.461  0.00  0.00    +0.000 A 
ATOM     32  N   UNL     1      -1.423  10.883  17.361  0.00  0.00    +0.000 N 
ATOM     33  H   UNL     1      -1.048  10.292  16.633  0.00  0.00    +0.000 HD
ENDBRANCH  23  24
ENDBRANCH  22  23
ENDBRANCH  21  22
ENDBRANCH  19  21
ENDBRANCH  18  19
ENDBRANCH   1  18
TORSDOF 9
ENDMDL
MODEL 8
REMARK VINA RESULT:      -7.0      0.901      1.188
REMARK  Name = 
REMARK  12 active torsions:
REMARK  status: ('A' for Active; 'I' for Inactive)
REMARK    1  A    between atoms: C_1  and  C_2
REMARK    2  A    between atoms: C_2  and  C_3
REMARK    3  A    between atoms: C_2  and  C_4
REMARK    4  A    between atoms: C_14  and  O_15
REMARK    5  A    between atoms: C_14  and  C_16
REMARK    6  A    between atoms: C_16  and  C_17
REMARK    7  A    between atoms: C_17  and  N_18
REMARK    8  A    between atoms: N_18  and  C_19
REMARK    9  A    between atoms: N_18  and  C_20
REMARK   10  A    between atoms: C_20  and  C_21
REMARK   11  A    between atoms: C_21  and  C_22
REMARK   12  A    between atoms: C_22  and  C_23
REMARK                            x       y       z     vdW  Elec       q    Type
REMARK                         _______ _______ _______ _____ _____    ______ ____
ROOT
ATOM      1  C   UNL     1       2.386   6.841  20.363  0.00  0.00    +0.000 C 
ENDROOT
BRANCH   1  12
ATOM      2  C   UNL     1       3.670   4.693  19.585  0.00  0.00    +0.000 C 
ATOM      3  C   UNL     1       4.810   5.435  18.898  0.00  0.00    +0.000 A 
ATOM      4  C   UNL     1       6.129   5.251  19.362  0.00  0.00    +0.000 A 
ATOM      5  C   UNL     1       7.210   5.876  18.726  0.00  0.00    +0.000 A 
ATOM      6  C   UNL     1       6.957   6.700  17.642  0.00  0.00    +0.000 A 
ATOM      7  F   UNL     1       7.984   7.298  17.024  0.00  0.00    +0.000 F 
ATOM      8  C   UNL     1       5.665   6.938  17.192  0.00  0.00    +0.000 A 
ATOM      9  C   UNL     1       4.574   6.316  17.826  0.00  0.00    +0.000 A 
ATOM     10  C   UNL     1       3.186   6.718  17.388  0.00  0.00    +0.000 C 
ATOM     11  C   UNL     1       2.044   5.948  18.049  0.00  0.00    +0.000 C 
ATOM     12  C   UNL     1       2.348   5.539  19.501  0.00  0.00    +0.000 C 
BRANCH   2  14
ATOM     13  C   UNL     1       3.910   2.839  17.711  0.00  0.00    +0.000 C 
ATOM     14  C   UNL     1       3.556   3.177  19.161  0.00  0.00    +0.000 C 
ATOM     15  C   UNL     1       4.379   2.250  20.075  0.00  0.00    +0.000 C 
ENDBRANCH   2  14
BRANCH  12  16
ATOM     16  O   UNL     1       1.237   4.775  19.997  0.00  0.00    +0.000 OA
ATOM     17  H   UNL     1       0.443   5.335  19.989  0.00  0.00    +0.000 HD
ENDBRANCH  12  16
ENDBRANCH   1  12
BRANCH   1  18
ATOM     18  C   UNL     1       1.811   8.086  19.673  0.00  0.00    +0.000 C 
BRANCH  18  19
ATOM     19  N   UNL     1       0.883   8.868  20.519  0.00  0.00    +0.000 NA
ATOM     20  C   UNL     1       1.269   8.821  21.934  0.00  0.00    +0.000 C 
BRANCH  19  21
ATOM     21  C   UNL     1       0.825  10.276  20.072  0.00  0.00    +0.000 C 
BRANCH  21  22
ATOM     22  C   UNL     1      -0.438  10.649  19.276  0.00  0.00    +0.000 C 
BRANCH  22  23
ATOM     23  C   UNL     1      -1.037  11.972  19.753  0.00  0.00    +0.000 C 
BRANCH  23  24
ATOM     24  C   UNL     1      -2.501  12.063  19.486  0.00  0.00    +0.000 A 
ATOM     25  N   UNL     1      -3.415  12.594  20.271  0.00  0.00    +0.000 NA
ATOM     26  C   UNL     1      -4.620  12.296  19.686  0.00  0.00    +0.000 A 
ATOM     27  C   UNL     1      -5.924  12.485  20.165  0.00  0.00    +0.000 A 
ATOM     28  C   UNL     1      -6.996  12.041  19.381  0.00  0.00    +0.000 A 
ATOM     29  C   UNL     1      -6.779  11.502  18.109  0.00  0.00    +0.000 A 
ATOM     30  C   UNL     1      -5.486  11.319  17.608  0.00  0.00    +0.000 A 
ATOM     31  C   UNL     1      -4.435  11.675  18.456  0.00  0.00    +0.000 A 
ATOM     32  N   UNL     1      -3.081  11.471  18.390  0.00  0.00    +0.000 N 
ATOM     33  H   UNL     1      -2.607  10.878  17.724  0.00  0.00    +0.000 HD
ENDBRANCH  23  24
ENDBRANCH  22  23
ENDBRANCH  21  22
ENDBRANCH  19  21
ENDBRANCH  18  19
ENDBRANCH   1  18
TORSDOF 9
ENDMDL
MODEL 9
REMARK VINA RESULT:      -7.0      0.687      1.285
REMARK  Name = 
REMARK  12 active torsions:
REMARK  status: ('A' for Active; 'I' for Inactive)
REMARK    1  A    between atoms: C_1  and  C_2
REMARK    2  A    between atoms: C_2  and  C_3
REMARK    3  A    between atoms: C_2  and  C_4
REMARK    4  A    between atoms: C_14  and  O_15
REMARK    5  A    between atoms: C_14  and  C_16
REMARK    6  A    between atoms: C_16  and  C_17
REMARK    7  A    between atoms: C_17  and  N_18
REMARK    8  A    between atoms: N_18  and  C_19
REMARK    9  A    between atoms: N_18  and  C_20
REMARK   10  A    between atoms: C_20  and  C_21
REMARK   11  A    between atoms: C_21  and  C_22
REMARK   12  A    between atoms: C_22  and  C_23
REMARK                            x       y       z     vdW  Elec       q    Type
REMARK                         _______ _______ _______ _____ _____    ______ ____
ROOT
ATOM      1  C   UNL     1       2.353   7.035  20.188  0.00  0.00    +0.000 C 
ENDROOT
BRANCH   1  12
ATOM      2  C   UNL     1       3.622   4.850  19.492  0.00  0.00    +0.000 C 
ATOM      3  C   UNL     1       4.799   5.558  18.833  0.00  0.00    +0.000 A 
ATOM      4  C   UNL     1       6.097   5.358  19.345  0.00  0.00    +0.000 A 
ATOM      5  C   UNL     1       7.212   5.950  18.738  0.00  0.00    +0.000 A 
ATOM      6  C   UNL     1       7.013   6.761  17.632  0.00  0.00    +0.000 A 
ATOM      7  F   UNL     1       8.072   7.328  17.040  0.00  0.00    +0.000 F 
ATOM      8  C   UNL     1       5.742   7.015  17.133  0.00  0.00    +0.000 A 
ATOM      9  C   UNL     1       4.618   6.424  17.738  0.00  0.00    +0.000 A 
ATOM     10  C   UNL     1       3.254   6.845  17.245  0.00  0.00    +0.000 C 
ATOM     11  C   UNL     1       2.075   6.109  17.878  0.00  0.00    +0.000 C 
ATOM     12  C   UNL     1       2.320   5.720  19.347  0.00  0.00    +0.000 C 
BRANCH   2  14
ATOM     13  C   UNL     1       3.853   2.965  17.648  0.00  0.00    +0.000 C 
ATOM     14  C   UNL     1       3.493   3.329  19.090  0.00  0.00    +0.000 C 
ATOM     15  C   UNL     1       4.298   2.406  20.024  0.00  0.00    +0.000 C 
ENDBRANCH   2  14
BRANCH  12  16
ATOM     16  O   UNL     1       1.178   4.986  19.816  0.00  0.00    +0.000 OA
ATOM     17  H   UNL     1       1.470   4.350  20.492  0.00  0.00    +0.000 HD
ENDBRANCH  12  16
ENDBRANCH   1  12
BRANCH   1  18
ATOM     18  C   UNL     1       1.322   7.099  21.323  0.00  0.00    +0.000 C 
BRANCH  18  19
ATOM     19  N   UNL     1       0.540   8.355  21.356  0.00  0.00    +0.000 NA
ATOM     20  C   UNL     1       0.795   9.118  22.583  0.00  0.00    +0.000 C 
BRANCH  19  21
ATOM     21  C   UNL     1       0.848   9.196  20.180  0.00  0.00    +0.000 C 
BRANCH  21  22
ATOM     22  C   UNL     1       0.948  10.703  20.474  0.00  0.00    +0.000 C 
BRANCH  22  23
ATOM     23  C   UNL     1       0.715  11.541  19.217  0.00  0.00    +0.000 C 
BRANCH  23  24
ATOM     24  C   UNL     1      -0.613  11.277  18.594  0.00  0.00    +0.000 A 
ATOM     25  N   UNL     1      -0.861  10.490  17.567  0.00  0.00    +0.000 NA
ATOM     26  C   UNL     1      -2.182  10.698  17.256  0.00  0.00    +0.000 A 
ATOM     27  C   UNL     1      -2.931  10.236  16.165  0.00  0.00    +0.000 A 
ATOM     28  C   UNL     1      -4.268  10.639  16.052  0.00  0.00    +0.000 A 
ATOM     29  C   UNL     1      -4.870  11.411  17.051  0.00  0.00    +0.000 A 
ATOM     30  C   UNL     1      -4.141  11.869  18.155  0.00  0.00    +0.000 A 
ATOM     31  C   UNL     1      -2.785  11.537  18.184  0.00  0.00    +0.000 A 
ATOM     32  N   UNL     1      -1.748  11.951  18.979  0.00  0.00    +0.000 N 
ATOM     33  H   UNL     1      -1.780  12.712  19.641  0.00  0.00    +0.000 HD
ENDBRANCH  23  24
ENDBRANCH  22  23
ENDBRANCH  21  22
ENDBRANCH  19  21
ENDBRANCH  18  19
ENDBRANCH   1  18
TORSDOF 9
ENDMDL
