MODEL 1
REMARK VINA RESULT:      -7.9      0.000      0.000
REMARK  Name = 
REMARK  2 active torsions:
REMARK  status: ('A' for Active; 'I' for Inactive)
REMARK    1  A    between atoms: O_1  and  C_2
REMARK    2  A    between atoms: C_4  and  C_5
REMARK                            x       y       z     vdW  Elec       q    Type
REMARK                         _______ _______ _______ _____ _____    ______ ____
ROOT
ATOM      1  C   UNL     1       2.837   4.851  18.794  0.00  0.00    +0.000 A 
ATOM      2  N   UNL     1       2.194   5.804  19.467  0.00  0.00    +0.000 NA
ATOM      3  C   UNL     1       2.444   7.064  19.072  0.00  0.00    +0.000 A 
ATOM      4  N   UNL     1       3.278   7.401  18.064  0.00  0.00    +0.000 NA
ATOM      5  C   UNL     1       3.917   6.410  17.417  0.00  0.00    +0.000 A 
ATOM      6  C   UNL     1       4.813   6.702  16.390  0.00  0.00    +0.000 A 
ATOM      7  C   UNL     1       5.495   5.673  15.767  0.00  0.00    +0.000 A 
ATOM      8  C   UNL     1       5.295   4.361  16.110  0.00  0.00    +0.000 A 
ATOM      9  C   UNL     1       4.405   4.014  17.094  0.00  0.00    +0.000 A 
ATOM     10  C   UNL     1       3.726   5.058  17.757  0.00  0.00    +0.000 A 
ATOM     11  O   UNL     1       6.067   3.504  15.396  0.00  0.00    +0.000 OA
ATOM     12  C   UNL     1       6.848   4.433  14.618  0.00  0.00    +0.000 C 
ATOM     13  O   UNL     1       6.427   5.807  14.782  0.00  0.00    +0.000 OA
ENDROOT
BRANCH   3  14
ATOM     14  C   UNL     1       1.737   8.138  19.808  0.00  0.00    +0.000 A 
ATOM     15  C   UNL     1       1.451   8.000  21.183  0.00  0.00    +0.000 A 
ATOM     16  C   UNL     1       0.750   8.977  21.895  0.00  0.00    +0.000 A 
ATOM     17  C   UNL     1       0.319  10.125  21.241  0.00  0.00    +0.000 A 
ATOM     18 CL   UNL     1      -0.572  11.316  22.106  0.00  0.00    +0.000 Cl
ATOM     19  C   UNL     1       0.602  10.307  19.890  0.00  0.00    +0.000 A 
ATOM     20  C   UNL     1       1.307   9.324  19.182  0.00  0.00    +0.000 A 
ENDBRANCH   3  14
BRANCH   1  21
ATOM     21  O   UNL     1       2.546   3.601  19.240  0.00  0.00    +0.000 OA
ATOM     22  H   UNL     1       3.428   3.187  19.197  0.00  0.00    +0.000 HD
ENDBRANCH   1  21
TORSDOF 2
ENDMDL
MODEL 2
REMARK VINA RESULT:      -7.8      4.084      7.808
REMARK  Name = 
REMARK  2 active torsions:
REMARK  status: ('A' for Active; 'I' for Inactive)
REMARK    1  A    between atoms: O_1  and  C_2
REMARK    2  A    between atoms: C_4  and  C_5
REMARK                            x       y       z     vdW  Elec       q    Type
REMARK                         _______ _______ _______ _____ _____    ______ ____
ROOT
ATOM      1  C   UNL     1       1.906   9.702  18.141  0.00  0.00    +0.000 A 
ATOM      2  N   UNL     1       2.651   8.771  17.548  0.00  0.00    +0.000 NA
ATOM      3  C   UNL     1       2.787   7.617  18.224  0.00  0.00    +0.000 A 
ATOM      4  N   UNL     1       2.222   7.360  19.423  0.00  0.00    +0.000 NA
ATOM      5  C   UNL     1       1.484   8.330  19.994  0.00  0.00    +0.000 A 
ATOM      6  C   UNL     1       0.904   8.131  21.245  0.00  0.00    +0.000 A 
ATOM      7  C   UNL     1       0.188   9.156  21.836  0.00  0.00    +0.000 A 
ATOM      8  C   UNL     1       0.004  10.362  21.212  0.00  0.00    +0.000 A 
ATOM      9  C   UNL     1       0.528  10.603  19.968  0.00  0.00    +0.000 A 
ATOM     10  C   UNL     1       1.286   9.576  19.369  0.00  0.00    +0.000 A 
ATOM     11  O   UNL     1      -0.713  11.240  21.959  0.00  0.00    +0.000 OA
ATOM     12  C   UNL     1      -0.886  10.479  23.172  0.00  0.00    +0.000 C 
ATOM     13  O   UNL     1      -0.396   9.122  23.067  0.00  0.00    +0.000 OA
ENDROOT
BRANCH   3  14
ATOM     14  C   UNL     1       3.612   6.569  17.580  0.00  0.00    +0.000 A 
ATOM     15  C   UNL     1       4.718   6.918  16.775  0.00  0.00    +0.000 A 
ATOM     16  C   UNL     1       5.492   5.954  16.122  0.00  0.00    +0.000 A 
ATOM     17  C   UNL     1       5.174   4.609  16.264  0.00  0.00    +0.000 A 
ATOM     18 CL   UNL     1       6.103   3.422  15.437  0.00  0.00    +0.000 Cl
ATOM     19  C   UNL     1       4.104   4.225  17.068  0.00  0.00    +0.000 A 
ATOM     20  C   UNL     1       3.333   5.197  17.721  0.00  0.00    +0.000 A 
ENDBRANCH   3  14
BRANCH   1  21
ATOM     21  O   UNL     1       1.809  10.846  17.412  0.00  0.00    +0.000 OA
ATOM     22  H   UNL     1       2.478  10.676  16.724  0.00  0.00    +0.000 HD
ENDBRANCH   1  21
TORSDOF 2
ENDMDL
MODEL 3
REMARK VINA RESULT:      -7.8      0.328      1.099
REMARK  Name = 
REMARK  2 active torsions:
REMARK  status: ('A' for Active; 'I' for Inactive)
REMARK    1  A    between atoms: O_1  and  C_2
REMARK    2  A    between atoms: C_4  and  C_5
REMARK                            x       y       z     vdW  Elec       q    Type
REMARK                         _______ _______ _______ _____ _____    ______ ____
ROOT
ATOM      1  C   UNL     1       2.955   4.994  19.206  0.00  0.00    +0.000 A 
ATOM      2  N   UNL     1       2.277   5.952  19.835  0.00  0.00    +0.000 NA
ATOM      3  C   UNL     1       2.401   7.187  19.317  0.00  0.00    +0.000 A 
ATOM      4  N   UNL     1       3.143   7.492  18.231  0.00  0.00    +0.000 NA
ATOM      5  C   UNL     1       3.821   6.497  17.631  0.00  0.00    +0.000 A 
ATOM      6  C   UNL     1       4.628   6.760  16.525  0.00  0.00    +0.000 A 
ATOM      7  C   UNL     1       5.354   5.733  15.950  0.00  0.00    +0.000 A 
ATOM      8  C   UNL     1       5.282   4.447  16.418  0.00  0.00    +0.000 A 
ATOM      9  C   UNL     1       4.482   4.126  17.485  0.00  0.00    +0.000 A 
ATOM     10  C   UNL     1       3.761   5.171  18.099  0.00  0.00    +0.000 A 
ATOM     11  O   UNL     1       6.077   3.589  15.730  0.00  0.00    +0.000 OA
ATOM     12  C   UNL     1       6.733   4.500  14.826  0.00  0.00    +0.000 C 
ATOM     13  O   UNL     1       6.212   5.848  14.898  0.00  0.00    +0.000 OA
ENDROOT
BRANCH   3  14
ATOM     14  C   UNL     1       1.654   8.266  20.002  0.00  0.00    +0.000 A 
ATOM     15  C   UNL     1       1.206   9.398  19.286  0.00  0.00    +0.000 A 
ATOM     16  C   UNL     1       0.534  10.452  19.911  0.00  0.00    +0.000 A 
ATOM     17  C   UNL     1       0.291  10.395  21.278  0.00  0.00    +0.000 A 
ATOM     18 CL   UNL     1      -0.506  11.704  22.058  0.00  0.00    +0.000 Cl
ATOM     19  C   UNL     1       0.698   9.285  22.014  0.00  0.00    +0.000 A 
ATOM     20  C   UNL     1       1.370   8.231  21.381  0.00  0.00    +0.000 A 
ENDBRANCH   3  14
BRANCH   1  21
ATOM     21  O   UNL     1       2.794   3.770  19.777  0.00  0.00    +0.000 OA
ATOM     22  H   UNL     1       3.710   3.578  20.047  0.00  0.00    +0.000 HD
ENDBRANCH   1  21
TORSDOF 2
ENDMDL
MODEL 4
REMARK VINA RESULT:      -7.7      2.365      3.637
REMARK  Name = 
REMARK  2 active torsions:
REMARK  status: ('A' for Active; 'I' for Inactive)
REMARK    1  A    between atoms: O_1  and  C_2
REMARK    2  A    between atoms: C_4  and  C_5
REMARK                            x       y       z     vdW  Elec       q    Type
REMARK                         _______ _______ _______ _____ _____    ______ ____
ROOT
ATOM      1  C   UNL     1       2.355   7.906  18.460  0.00  0.00    +0.000 A 
ATOM      2  N   UNL     1       1.675   8.838  19.126  0.00  0.00    +0.000 NA
ATOM      3  C   UNL     1       1.228   8.475  20.341  0.00  0.00    +0.000 A 
ATOM      4  N   UNL     1       1.430   7.263  20.902  0.00  0.00    +0.000 NA
ATOM      5  C   UNL     1       2.112   6.346  20.192  0.00  0.00    +0.000 A 
ATOM      6  C   UNL     1       2.323   5.068  20.709  0.00  0.00    +0.000 A 
ATOM      7  C   UNL     1       2.986   4.124  19.946  0.00  0.00    +0.000 A 
ATOM      8  C   UNL     1       3.474   4.416  18.699  0.00  0.00    +0.000 A 
ATOM      9  C   UNL     1       3.320   5.665  18.153  0.00  0.00    +0.000 A 
ATOM     10  C   UNL     1       2.618   6.627  18.909  0.00  0.00    +0.000 A 
ATOM     11  O   UNL     1       4.079   3.356  18.106  0.00  0.00    +0.000 OA
ATOM     12  C   UNL     1       3.839   2.329  19.089  0.00  0.00    +0.000 C 
ATOM     13  O   UNL     1       3.227   2.831  20.299  0.00  0.00    +0.000 OA
ENDROOT
BRANCH   3  14
ATOM     14  C   UNL     1       0.470   9.498  21.097  0.00  0.00    +0.000 A 
ATOM     15  C   UNL     1      -0.032   9.214  22.386  0.00  0.00    +0.000 A 
ATOM     16  C   UNL     1      -0.786  10.145  23.108  0.00  0.00    +0.000 A 
ATOM     17  C   UNL     1      -1.052  11.390  22.552  0.00  0.00    +0.000 A 
ATOM     18 CL   UNL     1      -2.005  12.526  23.424  0.00  0.00    +0.000 Cl
ATOM     19  C   UNL     1      -0.555  11.714  21.293  0.00  0.00    +0.000 A 
ATOM     20  C   UNL     1       0.201  10.777  20.575  0.00  0.00    +0.000 A 
ENDBRANCH   3  14
BRANCH   1  21
ATOM     21  O   UNL     1       2.778   8.330  17.240  0.00  0.00    +0.000 OA
ATOM     22  H   UNL     1       2.301   7.708  16.660  0.00  0.00    +0.000 HD
ENDBRANCH   1  21
TORSDOF 2
ENDMDL
MODEL 5
REMARK VINA RESULT:      -7.6      4.093      7.757
REMARK  Name = 
REMARK  2 active torsions:
REMARK  status: ('A' for Active; 'I' for Inactive)
REMARK    1  A    between atoms: O_1  and  C_2
REMARK    2  A    between atoms: C_4  and  C_5
REMARK                            x       y       z     vdW  Elec       q    Type
REMARK                         _______ _______ _______ _____ _____    ______ ____
ROOT
ATOM      1  C   UNL     1       1.890   9.763  18.135  0.00  0.00    +0.000 A 
ATOM      2  N   UNL     1       2.624   8.841  17.515  0.00  0.00    +0.000 NA
ATOM      3  C   UNL     1       2.759   7.672  18.165  0.00  0.00    +0.000 A 
ATOM      4  N   UNL     1       2.204   7.393  19.365  0.00  0.00    +0.000 NA
ATOM      5  C   UNL     1       1.479   8.356  19.963  0.00  0.00    +0.000 A 
ATOM      6  C   UNL     1       0.910   8.134  21.216  0.00  0.00    +0.000 A 
ATOM      7  C   UNL     1       0.206   9.151  21.835  0.00  0.00    +0.000 A 
ATOM      8  C   UNL     1       0.023  10.371  21.238  0.00  0.00    +0.000 A 
ATOM      9  C   UNL     1       0.536  10.635  19.994  0.00  0.00    +0.000 A 
ATOM     10  C   UNL     1       1.282   9.615  19.366  0.00  0.00    +0.000 A 
ATOM     11  O   UNL     1      -0.681  11.237  22.010  0.00  0.00    +0.000 OA
ATOM     12  C   UNL     1      -0.847  10.452  23.208  0.00  0.00    +0.000 C 
ATOM     13  O   UNL     1      -0.366   9.095  23.070  0.00  0.00    +0.000 OA
ENDROOT
BRANCH   3  14
ATOM     14  C   UNL     1       3.571   6.633  17.492  0.00  0.00    +0.000 A 
ATOM     15  C   UNL     1       3.312   5.262  17.711  0.00  0.00    +0.000 A 
ATOM     16  C   UNL     1       4.086   4.259  17.122  0.00  0.00    +0.000 A 
ATOM     17  C   UNL     1       5.145   4.608  16.292  0.00  0.00    +0.000 A 
ATOM     18 CL   UNL     1       6.121   3.377  15.592  0.00  0.00    +0.000 Cl
ATOM     19  C   UNL     1       5.418   5.949  16.035  0.00  0.00    +0.000 A 
ATOM     20  C   UNL     1       4.636   6.950  16.628  0.00  0.00    +0.000 A 
ENDBRANCH   3  14
BRANCH   1  21
ATOM     21  O   UNL     1       1.793  10.922  17.431  0.00  0.00    +0.000 OA
ATOM     22  H   UNL     1       1.512  11.535  18.136  0.00  0.00    +0.000 HD
ENDBRANCH   1  21
TORSDOF 2
ENDMDL
MODEL 6
REMARK VINA RESULT:      -7.6      2.357      3.776
REMARK  Name = 
REMARK  2 active torsions:
REMARK  status: ('A' for Active; 'I' for Inactive)
REMARK    1  A    between atoms: O_1  and  C_2
REMARK    2  A    between atoms: C_4  and  C_5
REMARK                            x       y       z     vdW  Elec       q    Type
REMARK                         _______ _______ _______ _____ _____    ______ ____
ROOT
ATOM      1  C   UNL     1       2.341   7.922  18.443  0.00  0.00    +0.000 A 
ATOM      2  N   UNL     1       1.669   8.853  19.117  0.00  0.00    +0.000 NA
ATOM      3  C   UNL     1       1.215   8.482  20.327  0.00  0.00    +0.000 A 
ATOM      4  N   UNL     1       1.405   7.263  20.876  0.00  0.00    +0.000 NA
ATOM      5  C   UNL     1       2.081   6.346  20.159  0.00  0.00    +0.000 A 
ATOM      6  C   UNL     1       2.279   5.062  20.663  0.00  0.00    +0.000 A 
ATOM      7  C   UNL     1       2.935   4.120  19.892  0.00  0.00    +0.000 A 
ATOM      8  C   UNL     1       3.428   4.420  18.649  0.00  0.00    +0.000 A 
ATOM      9  C   UNL     1       3.287   5.675  18.115  0.00  0.00    +0.000 A 
ATOM     10  C   UNL     1       2.592   6.635  18.880  0.00  0.00    +0.000 A 
ATOM     11  O   UNL     1       4.025   3.360  18.047  0.00  0.00    +0.000 OA
ATOM     12  C   UNL     1       3.774   2.325  19.020  0.00  0.00    +0.000 C 
ATOM     13  O   UNL     1       3.163   2.821  20.233  0.00  0.00    +0.000 OA
ENDROOT
BRANCH   3  14
ATOM     14  C   UNL     1       0.465   9.504  21.092  0.00  0.00    +0.000 A 
ATOM     15  C   UNL     1       0.286  10.805  20.572  0.00  0.00    +0.000 A 
ATOM     16  C   UNL     1      -0.381  11.803  21.287  0.00  0.00    +0.000 A 
ATOM     17  C   UNL     1      -0.891  11.518  22.548  0.00  0.00    +0.000 A 
ATOM     18 CL   UNL     1      -1.685  12.752  23.445  0.00  0.00    +0.000 Cl
ATOM     19  C   UNL     1      -0.753  10.241  23.085  0.00  0.00    +0.000 A 
ATOM     20  C   UNL     1      -0.084   9.244  22.361  0.00  0.00    +0.000 A 
ENDBRANCH   3  14
BRANCH   1  21
ATOM     21  O   UNL     1       2.770   8.354  17.228  0.00  0.00    +0.000 OA
ATOM     22  H   UNL     1       1.979   8.177  16.686  0.00  0.00    +0.000 HD
ENDBRANCH   1  21
TORSDOF 2
ENDMDL
MODEL 7
REMARK VINA RESULT:      -7.5      3.886      7.306
REMARK  Name = 
REMARK  2 active torsions:
REMARK  status: ('A' for Active; 'I' for Inactive)
REMARK    1  A    between atoms: O_1  and  C_2
REMARK    2  A    between atoms: C_4  and  C_5
REMARK                            x       y       z     vdW  Elec       q    Type
REMARK                         _______ _______ _______ _____ _____    ______ ____
ROOT
ATOM      1  C   UNL     1       2.440   6.326  20.240  0.00  0.00    +0.000 A 
ATOM      2  N   UNL     1       3.183   5.728  19.311  0.00  0.00    +0.000 NA
ATOM      3  C   UNL     1       3.355   6.417  18.171  0.00  0.00    +0.000 A 
ATOM      4  N   UNL     1       2.839   7.642  17.929  0.00  0.00    +0.000 NA
ATOM      5  C   UNL     1       2.084   8.208  18.889  0.00  0.00    +0.000 A 
ATOM      6  C   UNL     1       1.500   9.456  18.681  0.00  0.00    +0.000 A 
ATOM      7  C   UNL     1       0.690  10.001  19.661  0.00  0.00    +0.000 A 
ATOM      8  C   UNL     1       0.465   9.362  20.852  0.00  0.00    +0.000 A 
ATOM      9  C   UNL     1       1.038   8.145  21.121  0.00  0.00    +0.000 A 
ATOM     10  C   UNL     1       1.841   7.565  20.117  0.00  0.00    +0.000 A 
ATOM     11  O   UNL     1      -0.367  10.051  21.673  0.00  0.00    +0.000 OA
ATOM     12  C   UNL     1      -0.717  11.164  20.826  0.00  0.00    +0.000 C 
ATOM     13  O   UNL     1       0.021  11.186  19.582  0.00  0.00    +0.000 OA
ENDROOT
BRANCH   3  14
ATOM     14  C   UNL     1       4.180   5.768  17.126  0.00  0.00    +0.000 A 
ATOM     15  C   UNL     1       4.869   6.544  16.168  0.00  0.00    +0.000 A 
ATOM     16  C   UNL     1       5.622   5.959  15.145  0.00  0.00    +0.000 A 
ATOM     17  C   UNL     1       5.705   4.575  15.061  0.00  0.00    +0.000 A 
ATOM     18 CL   UNL     1       6.604   3.852  13.785  0.00  0.00    +0.000 Cl
ATOM     19  C   UNL     1       5.057   3.777  16.000  0.00  0.00    +0.000 A 
ATOM     20  C   UNL     1       4.305   4.370  17.024  0.00  0.00    +0.000 A 
ENDBRANCH   3  14
BRANCH   1  21
ATOM     21  O   UNL     1       2.299   5.580  21.367  0.00  0.00    +0.000 OA
ATOM     22  H   UNL     1       3.031   4.946  21.254  0.00  0.00    +0.000 HD
ENDBRANCH   1  21
TORSDOF 2
ENDMDL
MODEL 8
REMARK VINA RESULT:      -7.5      4.346      7.823
REMARK  Name = 
REMARK  2 active torsions:
REMARK  status: ('A' for Active; 'I' for Inactive)
REMARK    1  A    between atoms: O_1  and  C_2
REMARK    2  A    between atoms: C_4  and  C_5
REMARK                            x       y       z     vdW  Elec       q    Type
REMARK                         _______ _______ _______ _____ _____    ______ ____
ROOT
ATOM      1  C   UNL     1       1.614   9.272  18.632  0.00  0.00    +0.000 A 
ATOM      2  N   UNL     1       2.149   8.053  18.611  0.00  0.00    +0.000 NA
ATOM      3  C   UNL     1       2.072   7.364  19.762  0.00  0.00    +0.000 A 
ATOM      4  N   UNL     1       1.497   7.823  20.894  0.00  0.00    +0.000 NA
ATOM      5  C   UNL     1       0.977   9.065  20.878  0.00  0.00    +0.000 A 
ATOM      6  C   UNL     1       0.400   9.602  22.027  0.00  0.00    +0.000 A 
ATOM      7  C   UNL     1      -0.087  10.896  22.005  0.00  0.00    +0.000 A 
ATOM      8  C   UNL     1      -0.047  11.664  20.870  0.00  0.00    +0.000 A 
ATOM      9  C   UNL     1       0.484  11.176  19.703  0.00  0.00    +0.000 A 
ATOM     10  C   UNL     1       1.012   9.868  19.723  0.00  0.00    +0.000 A 
ATOM     11  O   UNL     1      -0.560  12.907  21.054  0.00  0.00    +0.000 OA
ATOM     12  C   UNL     1      -0.850  12.869  22.466  0.00  0.00    +0.000 C 
ATOM     13  O   UNL     1      -0.637  11.566  23.056  0.00  0.00    +0.000 OA
ENDROOT
BRANCH   3  14
ATOM     14  C   UNL     1       2.661   6.005  19.758  0.00  0.00    +0.000 A 
ATOM     15  C   UNL     1       2.074   4.964  20.511  0.00  0.00    +0.000 A 
ATOM     16  C   UNL     1       2.630   3.682  20.559  0.00  0.00    +0.000 A 
ATOM     17  C   UNL     1       3.791   3.411  19.847  0.00  0.00    +0.000 A 
ATOM     18 CL   UNL     1       4.496   1.844  19.930  0.00  0.00    +0.000 Cl
ATOM     19  C   UNL     1       4.387   4.406  19.076  0.00  0.00    +0.000 A 
ATOM     20  C   UNL     1       3.824   5.689  19.030  0.00  0.00    +0.000 A 
ENDBRANCH   3  14
BRANCH   1  21
ATOM     21  O   UNL     1       1.725   9.920  17.442  0.00  0.00    +0.000 OA
ATOM     22  H   UNL     1       2.328  10.645  17.690  0.00  0.00    +0.000 HD
ENDBRANCH   1  21
TORSDOF 2
ENDMDL
MODEL 9
REMARK VINA RESULT:      -7.5      4.385      7.928
REMARK  Name = 
REMARK  2 active torsions:
REMARK  status: ('A' for Active; 'I' for Inactive)
REMARK    1  A    between atoms: O_1  and  C_2
REMARK    2  A    between atoms: C_4  and  C_5
REMARK                            x       y       z     vdW  Elec       q    Type
REMARK                         _______ _______ _______ _____ _____    ______ ____
ROOT
ATOM      1  C   UNL     1       1.512   9.389  18.674  0.00  0.00    +0.000 A 
ATOM      2  N   UNL     1       2.039   8.166  18.653  0.00  0.00    +0.000 NA
ATOM      3  C   UNL     1       1.966   7.481  19.807  0.00  0.00    +0.000 A 
ATOM      4  N   UNL     1       1.402   7.948  20.942  0.00  0.00    +0.000 NA
ATOM      5  C   UNL     1       0.891   9.192  20.925  0.00  0.00    +0.000 A 
ATOM      6  C   UNL     1       0.325   9.737  22.077  0.00  0.00    +0.000 A 
ATOM      7  C   UNL     1      -0.154  11.034  22.053  0.00  0.00    +0.000 A 
ATOM      8  C   UNL     1      -0.118  11.798  20.916  0.00  0.00    +0.000 A 
ATOM      9  C   UNL     1       0.402  11.303  19.747  0.00  0.00    +0.000 A 
ATOM     10  C   UNL     1       0.922   9.992  19.767  0.00  0.00    +0.000 A 
ATOM     11  O   UNL     1      -0.621  13.045  21.100  0.00  0.00    +0.000 OA
ATOM     12  C   UNL     1      -0.901  13.013  22.514  0.00  0.00    +0.000 C 
ATOM     13  O   UNL     1      -0.692  11.710  23.107  0.00  0.00    +0.000 OA
ENDROOT
BRANCH   3  14
ATOM     14  C   UNL     1       2.547   6.118  19.803  0.00  0.00    +0.000 A 
ATOM     15  C   UNL     1       3.634   5.802  18.959  0.00  0.00    +0.000 A 
ATOM     16  C   UNL     1       4.177   4.515  18.902  0.00  0.00    +0.000 A 
ATOM     17  C   UNL     1       3.641   3.510  19.698  0.00  0.00    +0.000 A 
ATOM     18 CL   UNL     1       4.285   1.917  19.608  0.00  0.00    +0.000 Cl
ATOM     19  C   UNL     1       2.583   3.789  20.559  0.00  0.00    +0.000 A 
ATOM     20  C   UNL     1       2.044   5.082  20.612  0.00  0.00    +0.000 A 
ENDBRANCH   3  14
BRANCH   1  21
ATOM     21  O   UNL     1       1.619  10.032  17.482  0.00  0.00    +0.000 OA
ATOM     22  H   UNL     1       2.051   9.343  16.945  0.00  0.00    +0.000 HD
ENDBRANCH   1  21
TORSDOF 2
ENDMDL
