MODEL 1
REMARK VINA RESULT:      -8.6      0.000      0.000
REMARK  Name = 
REMARK  10 active torsions:
REMARK  status: ('A' for Active; 'I' for Inactive)
REMARK    1  A    between atoms: C_1  and  O_2
REMARK    2  A    between atoms: O_2  and  C_3
REMARK    3  A    between atoms: C_5  and  C_6
REMARK    4  A    between atoms: C_6  and  N_7
REMARK    5  A    between atoms: C_18  and  N_19
REMARK    6  A    between atoms: C_20  and  C_22
REMARK    7  A    between atoms: C_22  and  C_23
REMARK    8  A    between atoms: C_22  and  N_24
REMARK    9  A    between atoms: C_29  and  O_30
REMARK   10  A    between atoms: O_30  and  C_31
REMARK                            x       y       z     vdW  Elec       q    Type
REMARK                         _______ _______ _______ _____ _____    ______ ____
ROOT
ATOM      1  N   UNL     1      -0.389  10.710  19.147  0.00  0.00    +0.000 N 
ATOM      2  C   UNL     1      -0.841  11.273  20.392  0.00  0.00    +0.000 A 
ATOM      3  C   UNL     1      -1.897  12.191  20.410  0.00  0.00    +0.000 A 
ATOM      4  C   UNL     1      -2.333  12.733  21.620  0.00  0.00    +0.000 A 
ATOM      5  C   UNL     1      -1.713  12.375  22.818  0.00  0.00    +0.000 A 
ATOM      6  C   UNL     1      -0.680  11.438  22.818  0.00  0.00    +0.000 A 
ATOM      7  C   UNL     1      -0.263  10.871  21.610  0.00  0.00    +0.000 A 
ATOM      8  C   UNL     1       0.733   9.769  21.605  0.00  0.00    +0.000 A 
ATOM      9  O   UNL     1       1.149   9.285  22.650  0.00  0.00    +0.000 OA
ATOM     10  C   UNL     1       1.208   9.266  20.299  0.00  0.00    +0.000 A 
ATOM     11  C   UNL     1       1.816   8.023  20.165  0.00  0.00    +0.000 A 
ATOM     12  C   UNL     1       2.141   7.562  18.888  0.00  0.00    +0.000 A 
ATOM     13  C   UNL     1       2.135   8.442  17.803  0.00  0.00    +0.000 A 
ATOM     14  C   UNL     1       1.470   9.662  17.929  0.00  0.00    +0.000 A 
ATOM     15  C   UNL     1       0.853   9.972  19.147  0.00  0.00    +0.000 A 
ENDROOT
BRANCH  12  16
ATOM     16  N   UNL     1       2.319   6.188  18.614  0.00  0.00    +0.000 N 
ATOM     17  C   UNL     1       3.576   5.591  18.573  0.00  0.00    +0.000 C 
ATOM     18  O   UNL     1       4.659   6.175  18.581  0.00  0.00    +0.000 OA
ATOM     19  H   UNL     1       1.596   5.538  18.922  0.00  0.00    +0.000 HD
BRANCH  17  20
ATOM     20  C   UNL     1       3.486   4.048  18.543  0.00  0.00    +0.000 C 
ATOM     21  C   UNL     1       2.621   3.559  17.383  0.00  0.00    +0.000 C 
BRANCH  20  22
ATOM     22  N   UNL     1       4.846   3.461  18.451  0.00  0.00    +0.000 NA
ATOM     23  H   UNL     1       4.970   2.817  19.238  0.00  0.00    +0.000 HD
ATOM     24  H   UNL     1       5.520   4.210  18.628  0.00  0.00    +0.000 HD
ENDBRANCH  20  22
ENDBRANCH  17  20
ENDBRANCH  12  16
BRANCH   1  25
ATOM     25  C   UNL     1      -1.421   9.697  18.712  0.00  0.00    +0.000 C 
BRANCH  25  28
ATOM     26  C   UNL     1      -4.458  11.266  16.964  0.00  0.00    +0.000 A 
ATOM     27  C   UNL     1      -3.570  10.896  17.976  0.00  0.00    +0.000 A 
ATOM     28  C   UNL     1      -2.398  10.199  17.676  0.00  0.00    +0.000 A 
ATOM     29  C   UNL     1      -2.109   9.922  16.329  0.00  0.00    +0.000 A 
ATOM     30  C   UNL     1      -2.970  10.318  15.311  0.00  0.00    +0.000 A 
ATOM     31  C   UNL     1      -4.160  10.970  15.630  0.00  0.00    +0.000 A 
BRANCH  26  33
ATOM     32  C   UNL     1      -6.481  11.147  18.206  0.00  0.00    +0.000 C 
ATOM     33  O   UNL     1      -5.585  11.907  17.406  0.00  0.00    +0.000 OA
ENDBRANCH  26  33
BRANCH  30  34
ATOM     34  O   UNL     1      -2.556   9.988  14.048  0.00  0.00    +0.000 OA
ATOM     35  C   UNL     1      -3.579   9.861  13.069  0.00  0.00    +0.000 C 
ENDBRANCH  30  34
ENDBRANCH  25  28
ENDBRANCH   1  25
TORSDOF 7
ENDMDL
MODEL 2
REMARK VINA RESULT:      -8.6      0.178      2.132
REMARK  Name = 
REMARK  10 active torsions:
REMARK  status: ('A' for Active; 'I' for Inactive)
REMARK    1  A    between atoms: C_1  and  O_2
REMARK    2  A    between atoms: O_2  and  C_3
REMARK    3  A    between atoms: C_5  and  C_6
REMARK    4  A    between atoms: C_6  and  N_7
REMARK    5  A    between atoms: C_18  and  N_19
REMARK    6  A    between atoms: C_20  and  C_22
REMARK    7  A    between atoms: C_22  and  C_23
REMARK    8  A    between atoms: C_22  and  N_24
REMARK    9  A    between atoms: C_29  and  O_30
REMARK   10  A    between atoms: O_30  and  C_31
REMARK                            x       y       z     vdW  Elec       q    Type
REMARK                         _______ _______ _______ _____ _____    ______ ____
ROOT
ATOM      1  N   UNL     1      -0.420  10.676  19.114  0.00  0.00    +0.000 N 
ATOM      2  C   UNL     1      -0.889  11.277  20.334  0.00  0.00    +0.000 A 
ATOM      3  C   UNL     1      -1.963  12.174  20.314  0.00  0.00    +0.000 A 
ATOM      4  C   UNL     1      -2.414  12.753  21.501  0.00  0.00    +0.000 A 
ATOM      5  C   UNL     1      -1.793  12.454  22.714  0.00  0.00    +0.000 A 
ATOM      6  C   UNL     1      -0.742  11.538  22.754  0.00  0.00    +0.000 A 
ATOM      7  C   UNL     1      -0.309  10.933  21.569  0.00  0.00    +0.000 A 
ATOM      8  C   UNL     1       0.708   9.851  21.610  0.00  0.00    +0.000 A 
ATOM      9  O   UNL     1       1.129   9.415  22.674  0.00  0.00    +0.000 OA
ATOM     10  C   UNL     1       1.199   9.308  20.326  0.00  0.00    +0.000 A 
ATOM     11  C   UNL     1       1.831   8.073  20.242  0.00  0.00    +0.000 A 
ATOM     12  C   UNL     1       2.171   7.570  18.985  0.00  0.00    +0.000 A 
ATOM     13  C   UNL     1       2.153   8.409  17.867  0.00  0.00    +0.000 A 
ATOM     14  C   UNL     1       1.464   9.619  17.943  0.00  0.00    +0.000 A 
ATOM     15  C   UNL     1       0.835   9.963  19.147  0.00  0.00    +0.000 A 
ENDROOT
BRANCH  12  16
ATOM     16  N   UNL     1       2.377   6.191  18.764  0.00  0.00    +0.000 N 
ATOM     17  C   UNL     1       3.636   5.656  18.504  0.00  0.00    +0.000 C 
ATOM     18  O   UNL     1       4.660   6.291  18.258  0.00  0.00    +0.000 OA
ATOM     19  H   UNL     1       1.772   5.530  19.250  0.00  0.00    +0.000 HD
BRANCH  17  20
ATOM     20  C   UNL     1       3.638   4.112  18.587  0.00  0.00    +0.000 C 
ATOM     21  C   UNL     1       3.137   3.480  17.290  0.00  0.00    +0.000 C 
BRANCH  20  22
ATOM     22  N   UNL     1       5.004   3.622  18.901  0.00  0.00    +0.000 NA
ATOM     23  H   UNL     1       5.302   2.999  18.145  0.00  0.00    +0.000 HD
ATOM     24  H   UNL     1       4.935   3.013  19.720  0.00  0.00    +0.000 HD
ENDBRANCH  20  22
ENDBRANCH  17  20
ENDBRANCH  12  16
BRANCH   1  25
ATOM     25  C   UNL     1      -1.431   9.627  18.713  0.00  0.00    +0.000 C 
BRANCH  25  28
ATOM     26  C   UNL     1      -2.984  10.270  15.262  0.00  0.00    +0.000 A 
ATOM     27  C   UNL     1      -2.111   9.794  16.242  0.00  0.00    +0.000 A 
ATOM     28  C   UNL     1      -2.357  10.040  17.595  0.00  0.00    +0.000 A 
ATOM     29  C   UNL     1      -3.527  10.732  17.948  0.00  0.00    +0.000 A 
ATOM     30  C   UNL     1      -4.421  11.178  16.981  0.00  0.00    +0.000 A 
ATOM     31  C   UNL     1      -4.137  10.969  15.632  0.00  0.00    +0.000 A 
BRANCH  26  33
ATOM     32  C   UNL     1      -3.634   9.851  13.014  0.00  0.00    +0.000 C 
ATOM     33  O   UNL     1      -2.598   9.992  13.978  0.00  0.00    +0.000 OA
ENDBRANCH  26  33
BRANCH  30  34
ATOM     34  O   UNL     1      -5.521  11.831  17.472  0.00  0.00    +0.000 OA
ATOM     35  C   UNL     1      -6.418  11.045  18.245  0.00  0.00    +0.000 C 
ENDBRANCH  30  34
ENDBRANCH  25  28
ENDBRANCH   1  25
TORSDOF 7
ENDMDL
MODEL 3
REMARK VINA RESULT:      -8.4      1.049      2.399
REMARK  Name = 
REMARK  10 active torsions:
REMARK  status: ('A' for Active; 'I' for Inactive)
REMARK    1  A    between atoms: C_1  and  O_2
REMARK    2  A    between atoms: O_2  and  C_3
REMARK    3  A    between atoms: C_5  and  C_6
REMARK    4  A    between atoms: C_6  and  N_7
REMARK    5  A    between atoms: C_18  and  N_19
REMARK    6  A    between atoms: C_20  and  C_22
REMARK    7  A    between atoms: C_22  and  C_23
REMARK    8  A    between atoms: C_22  and  N_24
REMARK    9  A    between atoms: C_29  and  O_30
REMARK   10  A    between atoms: O_30  and  C_31
REMARK                            x       y       z     vdW  Elec       q    Type
REMARK                         _______ _______ _______ _____ _____    ______ ____
ROOT
ATOM      1  N   UNL     1      -0.531  10.797  19.222  0.00  0.00    +0.000 N 
ATOM      2  C   UNL     1      -0.974  11.360  20.470  0.00  0.00    +0.000 A 
ATOM      3  C   UNL     1      -2.046  12.261  20.498  0.00  0.00    +0.000 A 
ATOM      4  C   UNL     1      -2.473  12.803  21.710  0.00  0.00    +0.000 A 
ATOM      5  C   UNL     1      -1.832  12.463  22.902  0.00  0.00    +0.000 A 
ATOM      6  C   UNL     1      -0.783  11.543  22.893  0.00  0.00    +0.000 A 
ATOM      7  C   UNL     1      -0.374  10.975  21.682  0.00  0.00    +0.000 A 
ATOM      8  C   UNL     1       0.640   9.890  21.670  0.00  0.00    +0.000 A 
ATOM      9  O   UNL     1       1.078   9.419  22.712  0.00  0.00    +0.000 OA
ATOM     10  C   UNL     1       1.106   9.386  20.360  0.00  0.00    +0.000 A 
ATOM     11  C   UNL     1       1.732   8.153  20.226  0.00  0.00    +0.000 A 
ATOM     12  C   UNL     1       2.047   7.689  18.947  0.00  0.00    +0.000 A 
ATOM     13  C   UNL     1       2.012   8.563  17.857  0.00  0.00    +0.000 A 
ATOM     14  C   UNL     1       1.328   9.773  17.985  0.00  0.00    +0.000 A 
ATOM     15  C   UNL     1       0.723  10.079  19.210  0.00  0.00    +0.000 A 
ENDROOT
BRANCH  12  16
ATOM     16  N   UNL     1       2.243   6.318  18.678  0.00  0.00    +0.000 N 
ATOM     17  C   UNL     1       2.011   5.329  19.631  0.00  0.00    +0.000 C 
ATOM     18  O   UNL     1       1.796   5.509  20.829  0.00  0.00    +0.000 OA
ATOM     19  H   UNL     1       2.073   5.983  17.730  0.00  0.00    +0.000 HD
BRANCH  17  20
ATOM     20  C   UNL     1       2.019   3.912  19.011  0.00  0.00    +0.000 C 
ATOM     21  C   UNL     1       1.128   2.951  19.796  0.00  0.00    +0.000 C 
BRANCH  20  22
ATOM     22  N   UNL     1       1.581   3.976  17.594  0.00  0.00    +0.000 NA
ATOM     23  H   UNL     1       1.036   4.833  17.466  0.00  0.00    +0.000 HD
ATOM     24  H   UNL     1       0.907   3.221  17.442  0.00  0.00    +0.000 HD
ENDBRANCH  20  22
ENDBRANCH  17  20
ENDBRANCH  12  16
BRANCH   1  25
ATOM     25  C   UNL     1      -1.552   9.765  18.807  0.00  0.00    +0.000 C 
BRANCH  25  28
ATOM     26  C   UNL     1      -3.014  10.371  15.309  0.00  0.00    +0.000 A 
ATOM     27  C   UNL     1      -2.180   9.888  16.319  0.00  0.00    +0.000 A 
ATOM     28  C   UNL     1      -2.440  10.183  17.659  0.00  0.00    +0.000 A 
ATOM     29  C   UNL     1      -3.586  10.933  17.971  0.00  0.00    +0.000 A 
ATOM     30  C   UNL     1      -4.442  11.388  16.974  0.00  0.00    +0.000 A 
ATOM     31  C   UNL     1      -4.143  11.128  15.637  0.00  0.00    +0.000 A 
BRANCH  26  33
ATOM     32  C   UNL     1      -3.646   9.828  13.083  0.00  0.00    +0.000 C 
ATOM     33  O   UNL     1      -2.617  10.041  14.041  0.00  0.00    +0.000 OA
ENDBRANCH  26  33
BRANCH  30  34
ATOM     34  O   UNL     1      -5.522  12.100  17.425  0.00  0.00    +0.000 OA
ATOM     35  C   UNL     1      -6.523  11.351  18.103  0.00  0.00    +0.000 C 
ENDBRANCH  30  34
ENDBRANCH  25  28
ENDBRANCH   1  25
TORSDOF 7
ENDMDL
MODEL 4
REMARK VINA RESULT:      -8.4      1.085      1.156
REMARK  Name = 
REMARK  10 active torsions:
REMARK  status: ('A' for Active; 'I' for Inactive)
REMARK    1  A    between atoms: C_1  and  O_2
REMARK    2  A    between atoms: O_2  and  C_3
REMARK    3  A    between atoms: C_5  and  C_6
REMARK    4  A    between atoms: C_6  and  N_7
REMARK    5  A    between atoms: C_18  and  N_19
REMARK    6  A    between atoms: C_20  and  C_22
REMARK    7  A    between atoms: C_22  and  C_23
REMARK    8  A    between atoms: C_22  and  N_24
REMARK    9  A    between atoms: C_29  and  O_30
REMARK   10  A    between atoms: O_30  and  C_31
REMARK                            x       y       z     vdW  Elec       q    Type
REMARK                         _______ _______ _______ _____ _____    ______ ____
ROOT
ATOM      1  N   UNL     1      -0.461  10.800  19.311  0.00  0.00    +0.000 N 
ATOM      2  C   UNL     1      -0.947  11.313  20.564  0.00  0.00    +0.000 A 
ATOM      3  C   UNL     1      -2.009  12.225  20.590  0.00  0.00    +0.000 A 
ATOM      4  C   UNL     1      -2.478  12.719  21.808  0.00  0.00    +0.000 A 
ATOM      5  C   UNL     1      -1.887  12.319  23.008  0.00  0.00    +0.000 A 
ATOM      6  C   UNL     1      -0.849  11.388  22.999  0.00  0.00    +0.000 A 
ATOM      7  C   UNL     1      -0.398  10.868  21.781  0.00  0.00    +0.000 A 
ATOM      8  C   UNL     1       0.603   9.772  21.759  0.00  0.00    +0.000 A 
ATOM      9  O   UNL     1       0.996   9.251  22.796  0.00  0.00    +0.000 OA
ATOM     10  C   UNL     1       1.115   9.321  20.448  0.00  0.00    +0.000 A 
ATOM     11  C   UNL     1       1.733   8.087  20.283  0.00  0.00    +0.000 A 
ATOM     12  C   UNL     1       2.093   7.676  18.999  0.00  0.00    +0.000 A 
ATOM     13  C   UNL     1       2.110   8.597  17.947  0.00  0.00    +0.000 A 
ATOM     14  C   UNL     1       1.434   9.808  18.102  0.00  0.00    +0.000 A 
ATOM     15  C   UNL     1       0.785  10.069  19.315  0.00  0.00    +0.000 A 
ENDROOT
BRANCH  12  16
ATOM     16  N   UNL     1       2.285   6.315  18.677  0.00  0.00    +0.000 N 
ATOM     17  C   UNL     1       2.083   5.294  19.602  0.00  0.00    +0.000 C 
ATOM     18  O   UNL     1       1.903   5.432  20.811  0.00  0.00    +0.000 OA
ATOM     19  H   UNL     1       2.089   6.013  17.724  0.00  0.00    +0.000 HD
BRANCH  17  20
ATOM     20  C   UNL     1       2.077   3.899  18.934  0.00  0.00    +0.000 C 
ATOM     21  C   UNL     1       1.314   2.877  19.774  0.00  0.00    +0.000 C 
BRANCH  20  22
ATOM     22  N   UNL     1       1.486   3.989  17.575  0.00  0.00    +0.000 NA
ATOM     23  H   UNL     1       0.504   3.705  17.635  0.00  0.00    +0.000 HD
ATOM     24  H   UNL     1       1.925   3.269  16.996  0.00  0.00    +0.000 HD
ENDBRANCH  20  22
ENDBRANCH  17  20
ENDBRANCH  12  16
BRANCH   1  25
ATOM     25  C   UNL     1      -1.476   9.800  18.812  0.00  0.00    +0.000 C 
BRANCH  25  28
ATOM     26  C   UNL     1      -4.367  11.520  16.962  0.00  0.00    +0.000 A 
ATOM     27  C   UNL     1      -3.516  11.133  17.999  0.00  0.00    +0.000 A 
ATOM     28  C   UNL     1      -2.405  10.325  17.744  0.00  0.00    +0.000 A 
ATOM     29  C   UNL     1      -2.137   9.953  16.416  0.00  0.00    +0.000 A 
ATOM     30  C   UNL     1      -2.959  10.364  15.372  0.00  0.00    +0.000 A 
ATOM     31  C   UNL     1      -4.091  11.130  15.648  0.00  0.00    +0.000 A 
BRANCH  26  33
ATOM     32  C   UNL     1      -5.606  12.456  18.761  0.00  0.00    +0.000 C 
ATOM     33  O   UNL     1      -5.437  12.276  17.361  0.00  0.00    +0.000 OA
ENDBRANCH  26  33
BRANCH  30  34
ATOM     34  O   UNL     1      -2.571   9.933  14.131  0.00  0.00    +0.000 OA
ATOM     35  C   UNL     1      -3.600   9.838  13.154  0.00  0.00    +0.000 C 
ENDBRANCH  30  34
ENDBRANCH  25  28
ENDBRANCH   1  25
TORSDOF 7
ENDMDL
MODEL 5
REMARK VINA RESULT:      -7.4      4.098      7.294
REMARK  Name = 
REMARK  10 active torsions:
REMARK  status: ('A' for Active; 'I' for Inactive)
REMARK    1  A    between atoms: C_1  and  O_2
REMARK    2  A    between atoms: O_2  and  C_3
REMARK    3  A    between atoms: C_5  and  C_6
REMARK    4  A    between atoms: C_6  and  N_7
REMARK    5  A    between atoms: C_18  and  N_19
REMARK    6  A    between atoms: C_20  and  C_22
REMARK    7  A    between atoms: C_22  and  C_23
REMARK    8  A    between atoms: C_22  and  N_24
REMARK    9  A    between atoms: C_29  and  O_30
REMARK   10  A    between atoms: O_30  and  C_31
REMARK                            x       y       z     vdW  Elec       q    Type
REMARK                         _______ _______ _______ _____ _____    ______ ____
ROOT
ATOM      1  N   UNL     1       3.799   5.509  19.206  0.00  0.00    +0.000 N 
ATOM      2  C   UNL     1       2.836   4.489  19.529  0.00  0.00    +0.000 A 
ATOM      3  C   UNL     1       1.704   4.802  20.291  0.00  0.00    +0.000 A 
ATOM      4  C   UNL     1       0.772   3.811  20.601  0.00  0.00    +0.000 A 
ATOM      5  C   UNL     1       0.965   2.499  20.165  0.00  0.00    +0.000 A 
ATOM      6  C   UNL     1       2.072   2.179  19.379  0.00  0.00    +0.000 A 
ATOM      7  C   UNL     1       2.991   3.179  19.042  0.00  0.00    +0.000 A 
ATOM      8  C   UNL     1       4.093   2.891  18.089  0.00  0.00    +0.000 A 
ATOM      9  O   UNL     1       4.178   1.808  17.524  0.00  0.00    +0.000 OA
ATOM     10  C   UNL     1       5.090   3.953  17.836  0.00  0.00    +0.000 A 
ATOM     11  C   UNL     1       5.908   3.943  16.712  0.00  0.00    +0.000 A 
ATOM     12  C   UNL     1       6.749   5.032  16.477  0.00  0.00    +0.000 A 
ATOM     13  C   UNL     1       6.988   5.965  17.490  0.00  0.00    +0.000 A 
ATOM     14  C   UNL     1       6.123   6.006  18.585  0.00  0.00    +0.000 A 
ATOM     15  C   UNL     1       5.062   5.094  18.642  0.00  0.00    +0.000 A 
ENDROOT
BRANCH  12  16
ATOM     16  N   UNL     1       7.247   5.325  15.189  0.00  0.00    +0.000 N 
ATOM     17  C   UNL     1       6.892   4.585  14.065  0.00  0.00    +0.000 C 
ATOM     18  O   UNL     1       6.281   3.517  14.060  0.00  0.00    +0.000 OA
ATOM     19  H   UNL     1       7.446   6.298  14.960  0.00  0.00    +0.000 HD
BRANCH  17  20
ATOM     20  C   UNL     1       7.334   5.274  12.753  0.00  0.00    +0.000 C 
ATOM     21  C   UNL     1       8.716   5.908  12.889  0.00  0.00    +0.000 C 
BRANCH  20  22
ATOM     22  N   UNL     1       7.326   4.294  11.637  0.00  0.00    +0.000 NA
ATOM     23  H   UNL     1       7.522   4.799  10.768  0.00  0.00    +0.000 HD
ATOM     24  H   UNL     1       6.366   3.958  11.525  0.00  0.00    +0.000 HD
ENDBRANCH  20  22
ENDBRANCH  17  20
ENDBRANCH  12  16
BRANCH   1  25
ATOM     25  C   UNL     1       3.185   6.383  18.137  0.00  0.00    +0.000 C 
BRANCH  25  28
ATOM     26  C   UNL     1       1.117   8.859  20.217  0.00  0.00    +0.000 A 
ATOM     27  C   UNL     1       1.774   7.685  19.842  0.00  0.00    +0.000 A 
ATOM     28  C   UNL     1       2.507   7.628  18.655  0.00  0.00    +0.000 A 
ATOM     29  C   UNL     1       2.610   8.791  17.874  0.00  0.00    +0.000 A 
ATOM     30  C   UNL     1       1.989   9.974  18.258  0.00  0.00    +0.000 A 
ATOM     31  C   UNL     1       1.220  10.003  19.420  0.00  0.00    +0.000 A 
BRANCH  26  33
ATOM     32  C   UNL     1       0.313   9.935  22.178  0.00  0.00    +0.000 C 
ATOM     33  O   UNL     1       0.403   8.761  21.382  0.00  0.00    +0.000 OA
ENDBRANCH  26  33
BRANCH  30  34
ATOM     34  O   UNL     1       2.182  11.028  17.403  0.00  0.00    +0.000 OA
ATOM     35  C   UNL     1       2.465  12.281  18.012  0.00  0.00    +0.000 C 
ENDBRANCH  30  34
ENDBRANCH  25  28
ENDBRANCH   1  25
TORSDOF 7
ENDMDL
MODEL 6
REMARK VINA RESULT:      -7.3      4.111      7.445
REMARK  Name = 
REMARK  10 active torsions:
REMARK  status: ('A' for Active; 'I' for Inactive)
REMARK    1  A    between atoms: C_1  and  O_2
REMARK    2  A    between atoms: O_2  and  C_3
REMARK    3  A    between atoms: C_5  and  C_6
REMARK    4  A    between atoms: C_6  and  N_7
REMARK    5  A    between atoms: C_18  and  N_19
REMARK    6  A    between atoms: C_20  and  C_22
REMARK    7  A    between atoms: C_22  and  C_23
REMARK    8  A    between atoms: C_22  and  N_24
REMARK    9  A    between atoms: C_29  and  O_30
REMARK   10  A    between atoms: O_30  and  C_31
REMARK                            x       y       z     vdW  Elec       q    Type
REMARK                         _______ _______ _______ _____ _____    ______ ____
ROOT
ATOM      1  N   UNL     1       3.726   5.591  19.155  0.00  0.00    +0.000 N 
ATOM      2  C   UNL     1       2.800   4.553  19.524  0.00  0.00    +0.000 A 
ATOM      3  C   UNL     1       1.653   4.860  20.266  0.00  0.00    +0.000 A 
ATOM      4  C   UNL     1       0.757   3.851  20.620  0.00  0.00    +0.000 A 
ATOM      5  C   UNL     1       1.000   2.528  20.249  0.00  0.00    +0.000 A 
ATOM      6  C   UNL     1       2.122   2.212  19.483  0.00  0.00    +0.000 A 
ATOM      7  C   UNL     1       3.005   3.227  19.101  0.00  0.00    +0.000 A 
ATOM      8  C   UNL     1       4.123   2.935  18.168  0.00  0.00    +0.000 A 
ATOM      9  O   UNL     1       4.250   1.829  17.657  0.00  0.00    +0.000 OA
ATOM     10  C   UNL     1       5.081   4.019  17.867  0.00  0.00    +0.000 A 
ATOM     11  C   UNL     1       5.905   3.985  16.748  0.00  0.00    +0.000 A 
ATOM     12  C   UNL     1       6.707   5.091  16.463  0.00  0.00    +0.000 A 
ATOM     13  C   UNL     1       6.905   6.080  17.431  0.00  0.00    +0.000 A 
ATOM     14  C   UNL     1       6.034   6.143  18.519  0.00  0.00    +0.000 A 
ATOM     15  C   UNL     1       5.007   5.196  18.616  0.00  0.00    +0.000 A 
ENDROOT
BRANCH  12  16
ATOM     16  N   UNL     1       7.201   5.340  15.165  0.00  0.00    +0.000 N 
ATOM     17  C   UNL     1       6.832   4.569  14.065  0.00  0.00    +0.000 C 
ATOM     18  O   UNL     1       6.210   3.509  14.096  0.00  0.00    +0.000 OA
ATOM     19  H   UNL     1       7.409   6.304  14.905  0.00  0.00    +0.000 HD
BRANCH  17  20
ATOM     20  C   UNL     1       7.273   5.214  12.730  0.00  0.00    +0.000 C 
ATOM     21  C   UNL     1       8.647   5.869  12.850  0.00  0.00    +0.000 C 
BRANCH  20  22
ATOM     22  N   UNL     1       7.285   4.192  11.653  0.00  0.00    +0.000 NA
ATOM     23  H   UNL     1       6.362   4.186  11.209  0.00  0.00    +0.000 HD
ATOM     24  H   UNL     1       7.359   3.274  12.096  0.00  0.00    +0.000 HD
ENDBRANCH  20  22
ENDBRANCH  17  20
ENDBRANCH  12  16
BRANCH   1  25
ATOM     25  C   UNL     1       3.087   6.388  18.043  0.00  0.00    +0.000 C 
BRANCH  25  28
ATOM     26  C   UNL     1       2.026  10.072  18.249  0.00  0.00    +0.000 A 
ATOM     27  C   UNL     1       2.558   8.884  17.744  0.00  0.00    +0.000 A 
ATOM     28  C   UNL     1       2.476   7.699  18.478  0.00  0.00    +0.000 A 
ATOM     29  C   UNL     1       1.804   7.718  19.711  0.00  0.00    +0.000 A 
ATOM     30  C   UNL     1       1.240   8.890  20.205  0.00  0.00    +0.000 A 
ATOM     31  C   UNL     1       1.372  10.075  19.484  0.00  0.00    +0.000 A 
BRANCH  26  33
ATOM     32  C   UNL     1       2.452  12.405  18.093  0.00  0.00    +0.000 C 
ATOM     33  O   UNL     1       2.214  11.163  17.443  0.00  0.00    +0.000 OA
ENDBRANCH  26  33
BRANCH  30  34
ATOM     34  O   UNL     1       0.610   8.758  21.415  0.00  0.00    +0.000 OA
ATOM     35  C   UNL     1       0.208   9.968  22.044  0.00  0.00    +0.000 C 
ENDBRANCH  30  34
ENDBRANCH  25  28
ENDBRANCH   1  25
TORSDOF 7
ENDMDL
MODEL 7
REMARK VINA RESULT:      -7.1      1.078      2.398
REMARK  Name = 
REMARK  10 active torsions:
REMARK  status: ('A' for Active; 'I' for Inactive)
REMARK    1  A    between atoms: C_1  and  O_2
REMARK    2  A    between atoms: O_2  and  C_3
REMARK    3  A    between atoms: C_5  and  C_6
REMARK    4  A    between atoms: C_6  and  N_7
REMARK    5  A    between atoms: C_18  and  N_19
REMARK    6  A    between atoms: C_20  and  C_22
REMARK    7  A    between atoms: C_22  and  C_23
REMARK    8  A    between atoms: C_22  and  N_24
REMARK    9  A    between atoms: C_29  and  O_30
REMARK   10  A    between atoms: O_30  and  C_31
REMARK                            x       y       z     vdW  Elec       q    Type
REMARK                         _______ _______ _______ _____ _____    ______ ____
ROOT
ATOM      1  N   UNL     1      -0.103  10.552  18.729  0.00  0.00    +0.000 N 
ATOM      2  C   UNL     1      -0.539  11.476  19.742  0.00  0.00    +0.000 A 
ATOM      3  C   UNL     1      -1.489  12.459  19.440  0.00  0.00    +0.000 A 
ATOM      4  C   UNL     1      -1.910  13.353  20.426  0.00  0.00    +0.000 A 
ATOM      5  C   UNL     1      -1.381  13.282  21.715  0.00  0.00    +0.000 A 
ATOM      6  C   UNL     1      -0.458  12.288  22.039  0.00  0.00    +0.000 A 
ATOM      7  C   UNL     1      -0.058  11.373  21.060  0.00  0.00    +0.000 A 
ATOM      8  C   UNL     1       0.810  10.223  21.421  0.00  0.00    +0.000 A 
ATOM      9  O   UNL     1       1.129  10.009  22.584  0.00  0.00    +0.000 OA
ATOM     10  C   UNL     1       1.279   9.337  20.335  0.00  0.00    +0.000 A 
ATOM     11  C   UNL     1       1.751   8.053  20.584  0.00  0.00    +0.000 A 
ATOM     12  C   UNL     1       2.075   7.229  19.504  0.00  0.00    +0.000 A 
ATOM     13  C   UNL     1       2.209   7.773  18.224  0.00  0.00    +0.000 A 
ATOM     14  C   UNL     1       1.676   9.037  17.970  0.00  0.00    +0.000 A 
ATOM     15  C   UNL     1       1.049   9.728  19.014  0.00  0.00    +0.000 A 
ENDROOT
BRANCH  12  16
ATOM     16  N   UNL     1       2.111   5.823  19.624  0.00  0.00    +0.000 N 
ATOM     17  C   UNL     1       1.872   4.975  18.545  0.00  0.00    +0.000 C 
ATOM     18  O   UNL     1       1.435   5.305  17.444  0.00  0.00    +0.000 OA
ATOM     19  H   UNL     1       2.758   5.414  20.297  0.00  0.00    +0.000 HD
BRANCH  17  20
ATOM     20  C   UNL     1       2.252   3.510  18.863  0.00  0.00    +0.000 C 
ATOM     21  C   UNL     1       2.493   2.704  17.590  0.00  0.00    +0.000 C 
BRANCH  20  22
ATOM     22  N   UNL     1       3.457   3.475  19.729  0.00  0.00    +0.000 NA
ATOM     23  H   UNL     1       3.744   2.498  19.838  0.00  0.00    +0.000 HD
ATOM     24  H   UNL     1       3.174   3.762  20.669  0.00  0.00    +0.000 HD
ENDBRANCH  20  22
ENDBRANCH  17  20
ENDBRANCH  12  16
BRANCH   1  25
ATOM     25  C   UNL     1      -1.222   9.560  18.515  0.00  0.00    +0.000 C 
BRANCH  25  28
ATOM     26  C   UNL     1      -3.028  10.285  15.205  0.00  0.00    +0.000 A 
ATOM     27  C   UNL     1      -2.069   9.811  16.103  0.00  0.00    +0.000 A 
ATOM     28  C   UNL     1      -2.240   9.975  17.479  0.00  0.00    +0.000 A 
ATOM     29  C   UNL     1      -3.420  10.579  17.941  0.00  0.00    +0.000 A 
ATOM     30  C   UNL     1      -4.398  11.021  17.056  0.00  0.00    +0.000 A 
ATOM     31  C   UNL     1      -4.191  10.896  15.683  0.00  0.00    +0.000 A 
BRANCH  26  33
ATOM     32  C   UNL     1      -3.786   9.778  13.010  0.00  0.00    +0.000 C 
ATOM     33  O   UNL     1      -2.712  10.094  13.887  0.00  0.00    +0.000 OA
ENDBRANCH  26  33
BRANCH  30  34
ATOM     34  O   UNL     1      -5.498  11.584  17.649  0.00  0.00    +0.000 OA
ATOM     35  C   UNL     1      -5.256  12.318  18.842  0.00  0.00    +0.000 C 
ENDBRANCH  30  34
ENDBRANCH  25  28
ENDBRANCH   1  25
TORSDOF 7
ENDMDL
MODEL 8
REMARK VINA RESULT:      -6.9      3.846      7.609
REMARK  Name = 
REMARK  10 active torsions:
REMARK  status: ('A' for Active; 'I' for Inactive)
REMARK    1  A    between atoms: C_1  and  O_2
REMARK    2  A    between atoms: O_2  and  C_3
REMARK    3  A    between atoms: C_5  and  C_6
REMARK    4  A    between atoms: C_6  and  N_7
REMARK    5  A    between atoms: C_18  and  N_19
REMARK    6  A    between atoms: C_20  and  C_22
REMARK    7  A    between atoms: C_22  and  C_23
REMARK    8  A    between atoms: C_22  and  N_24
REMARK    9  A    between atoms: C_29  and  O_30
REMARK   10  A    between atoms: O_30  and  C_31
REMARK                            x       y       z     vdW  Elec       q    Type
REMARK                         _______ _______ _______ _____ _____    ______ ____
ROOT
ATOM      1  N   UNL     1      -0.221  13.148  20.998  0.00  0.00    +0.000 N 
ATOM      2  C   UNL     1       0.622  14.292  20.770  0.00  0.00    +0.000 A 
ATOM      3  C   UNL     1       1.372  14.394  19.592  0.00  0.00    +0.000 A 
ATOM      4  C   UNL     1       2.187  15.505  19.375  0.00  0.00    +0.000 A 
ATOM      5  C   UNL     1       2.271  16.517  20.332  0.00  0.00    +0.000 A 
ATOM      6  C   UNL     1       1.506  16.444  21.496  0.00  0.00    +0.000 A 
ATOM      7  C   UNL     1       0.665  15.345  21.701  0.00  0.00    +0.000 A 
ATOM      8  C   UNL     1      -0.263  15.320  22.860  0.00  0.00    +0.000 A 
ATOM      9  O   UNL     1      -0.368  16.281  23.611  0.00  0.00    +0.000 OA
ATOM     10  C   UNL     1      -1.064  14.098  23.084  0.00  0.00    +0.000 A 
ATOM     11  C   UNL     1      -2.210  14.102  23.871  0.00  0.00    +0.000 A 
ATOM     12  C   UNL     1      -2.981  12.941  23.951  0.00  0.00    +0.000 A 
ATOM     13  C   UNL     1      -2.462  11.723  23.502  0.00  0.00    +0.000 A 
ATOM     14  C   UNL     1      -1.348  11.735  22.662  0.00  0.00    +0.000 A 
ATOM     15  C   UNL     1      -0.773  12.965  22.321  0.00  0.00    +0.000 A 
ENDROOT
BRANCH  12  16
ATOM     16  N   UNL     1      -4.343  12.974  24.321  0.00  0.00    +0.000 N 
ATOM     17  C   UNL     1      -5.370  13.030  23.383  0.00  0.00    +0.000 C 
ATOM     18  O   UNL     1      -5.243  13.238  22.177  0.00  0.00    +0.000 OA
ATOM     19  H   UNL     1      -4.624  12.481  25.168  0.00  0.00    +0.000 HD
BRANCH  17  20
ATOM     20  C   UNL     1      -6.754  12.766  24.021  0.00  0.00    +0.000 C 
ATOM     21  C   UNL     1      -7.611  14.029  24.044  0.00  0.00    +0.000 C 
BRANCH  20  22
ATOM     22  N   UNL     1      -7.454  11.684  23.284  0.00  0.00    +0.000 NA
ATOM     23  H   UNL     1      -6.948  11.513  22.411  0.00  0.00    +0.000 HD
ATOM     24  H   UNL     1      -8.362  12.049  22.984  0.00  0.00    +0.000 HD
ENDBRANCH  20  22
ENDBRANCH  17  20
ENDBRANCH  12  16
BRANCH   1  25
ATOM     25  C   UNL     1      -1.433  13.300  20.110  0.00  0.00    +0.000 C 
BRANCH  25  28
ATOM     26  C   UNL     1      -3.019  10.755  17.713  0.00  0.00    +0.000 A 
ATOM     27  C   UNL     1      -2.879  11.871  18.540  0.00  0.00    +0.000 A 
ATOM     28  C   UNL     1      -1.654  12.159  19.146  0.00  0.00    +0.000 A 
ATOM     29  C   UNL     1      -0.556  11.330  18.865  0.00  0.00    +0.000 A 
ATOM     30  C   UNL     1      -0.677  10.237  18.014  0.00  0.00    +0.000 A 
ATOM     31  C   UNL     1      -1.918   9.933  17.455  0.00  0.00    +0.000 A 
BRANCH  26  33
ATOM     32  C   UNL     1      -5.343  11.207  17.923  0.00  0.00    +0.000 C 
ATOM     33  O   UNL     1      -4.284  10.571  17.220  0.00  0.00    +0.000 OA
ENDBRANCH  26  33
BRANCH  30  34
ATOM     34  O   UNL     1       0.478   9.524  17.826  0.00  0.00    +0.000 OA
ATOM     35  C   UNL     1       1.298   9.353  18.975  0.00  0.00    +0.000 C 
ENDBRANCH  30  34
ENDBRANCH  25  28
ENDBRANCH   1  25
TORSDOF 7
ENDMDL
MODEL 9
REMARK VINA RESULT:      -6.8      4.404      7.891
REMARK  Name = 
REMARK  10 active torsions:
REMARK  status: ('A' for Active; 'I' for Inactive)
REMARK    1  A    between atoms: C_1  and  O_2
REMARK    2  A    between atoms: O_2  and  C_3
REMARK    3  A    between atoms: C_5  and  C_6
REMARK    4  A    between atoms: C_6  and  N_7
REMARK    5  A    between atoms: C_18  and  N_19
REMARK    6  A    between atoms: C_20  and  C_22
REMARK    7  A    between atoms: C_22  and  C_23
REMARK    8  A    between atoms: C_22  and  N_24
REMARK    9  A    between atoms: C_29  and  O_30
REMARK   10  A    between atoms: O_30  and  C_31
REMARK                            x       y       z     vdW  Elec       q    Type
REMARK                         _______ _______ _______ _____ _____    ______ ____
ROOT
ATOM      1  N   UNL     1      -0.467  12.351  20.375  0.00  0.00    +0.000 N 
ATOM      2  C   UNL     1       0.786  12.872  19.896  0.00  0.00    +0.000 A 
ATOM      3  C   UNL     1       1.277  12.491  18.641  0.00  0.00    +0.000 A 
ATOM      4  C   UNL     1       2.492  12.999  18.181  0.00  0.00    +0.000 A 
ATOM      5  C   UNL     1       3.233  13.880  18.969  0.00  0.00    +0.000 A 
ATOM      6  C   UNL     1       2.742  14.293  20.208  0.00  0.00    +0.000 A 
ATOM      7  C   UNL     1       1.509  13.808  20.657  0.00  0.00    +0.000 A 
ATOM      8  C   UNL     1       0.903  14.345  21.902  0.00  0.00    +0.000 A 
ATOM      9  O   UNL     1       1.424  15.268  22.515  0.00  0.00    +0.000 OA
ATOM     10  C   UNL     1      -0.355  13.736  22.383  0.00  0.00    +0.000 A 
ATOM     11  C   UNL     1      -1.192  14.387  23.281  0.00  0.00    +0.000 A 
ATOM     12  C   UNL     1      -2.418  13.805  23.609  0.00  0.00    +0.000 A 
ATOM     13  C   UNL     1      -2.668  12.469  23.284  0.00  0.00    +0.000 A 
ATOM     14  C   UNL     1      -1.858  11.843  22.335  0.00  0.00    +0.000 A 
ATOM     15  C   UNL     1      -0.807  12.569  21.762  0.00  0.00    +0.000 A 
ENDROOT
BRANCH  12  16
ATOM     16  N   UNL     1      -3.494  14.565  24.116  0.00  0.00    +0.000 N 
ATOM     17  C   UNL     1      -4.371  15.262  23.289  0.00  0.00    +0.000 C 
ATOM     18  O   UNL     1      -4.232  15.458  22.082  0.00  0.00    +0.000 OA
ATOM     19  H   UNL     1      -3.945  14.249  24.973  0.00  0.00    +0.000 HD
BRANCH  17  20
ATOM     20  C   UNL     1      -5.614  15.769  24.057  0.00  0.00    +0.000 C 
ATOM     21  C   UNL     1      -6.317  16.896  23.304  0.00  0.00    +0.000 C 
BRANCH  20  22
ATOM     22  N   UNL     1      -6.555  14.646  24.296  0.00  0.00    +0.000 NA
ATOM     23  H   UNL     1      -7.371  14.778  23.690  0.00  0.00    +0.000 HD
ATOM     24  H   UNL     1      -6.925  14.747  25.244  0.00  0.00    +0.000 HD
ENDBRANCH  20  22
ENDBRANCH  17  20
ENDBRANCH  12  16
BRANCH   1  25
ATOM     25  C   UNL     1      -1.565  13.052  19.610  0.00  0.00    +0.000 C 
BRANCH  25  28
ATOM     26  C   UNL     1      -3.034  10.526  17.121  0.00  0.00    +0.000 A 
ATOM     27  C   UNL     1      -2.097  11.297  17.812  0.00  0.00    +0.000 A 
ATOM     28  C   UNL     1      -2.496  12.131  18.859  0.00  0.00    +0.000 A 
ATOM     29  C   UNL     1      -3.850  12.139  19.232  0.00  0.00    +0.000 A 
ATOM     30  C   UNL     1      -4.784  11.346  18.573  0.00  0.00    +0.000 A 
ATOM     31  C   UNL     1      -4.380  10.556  17.498  0.00  0.00    +0.000 A 
BRANCH  26  33
ATOM     32  C   UNL     1      -2.911  10.148  14.777  0.00  0.00    +0.000 C 
ATOM     33  O   UNL     1      -2.510   9.788  16.093  0.00  0.00    +0.000 OA
ENDBRANCH  26  33
BRANCH  30  34
ATOM     34  O   UNL     1      -6.064  11.450  19.049  0.00  0.00    +0.000 OA
ATOM     35  C   UNL     1      -6.830  10.252  19.045  0.00  0.00    +0.000 C 
ENDBRANCH  30  34
ENDBRANCH  25  28
ENDBRANCH   1  25
TORSDOF 7
ENDMDL
