MODEL 1
REMARK VINA RESULT:      -6.9      0.000      0.000
REMARK  Name = 
REMARK  11 active torsions:
REMARK  status: ('A' for Active; 'I' for Inactive)
REMARK    1  A    between atoms: C_1  and  C_2
REMARK    2  A    between atoms: C_2  and  O_3
REMARK    3  A    between atoms: O_3  and  C_4
REMARK    4  A    between atoms: C_4  and  C_6
REMARK    5  A    between atoms: C_7  and  C_8
REMARK    6  A    between atoms: C_10  and  C_11
REMARK    7  A    between atoms: C_12  and  C_13
REMARK    8  A    between atoms: C_13  and  O_15
REMARK    9  A    between atoms: O_15  and  C_16
REMARK   10  A    between atoms: C_16  and  C_17
REMARK   11  A    between atoms: C_18  and  C_19
REMARK                            x       y       z     vdW  Elec       q    Type
REMARK                         _______ _______ _______ _____ _____    ______ ____
ROOT
ATOM      1  C   UNL     1       2.358   7.163  19.454  0.00  0.00    +0.000 C 
ATOM      2  C   UNL     1       2.393   7.955  18.355  0.00  0.00    +0.000 C 
ATOM      3  C   UNL     1       1.546   9.175  18.086  0.00  0.00    +0.000 C 
ATOM      4  N   UNL     1       3.302   7.670  17.343  0.00  0.00    +0.000 N 
ATOM      5  C   UNL     1       4.356   6.781  17.461  0.00  0.00    +0.000 C 
ATOM      6  C   UNL     1       5.362   6.796  16.336  0.00  0.00    +0.000 C 
ATOM      7  C   UNL     1       4.413   5.944  18.527  0.00  0.00    +0.000 C 
ATOM      8  C   UNL     1       3.260   5.917  19.541  0.00  0.00    +0.000 C 
ATOM      9  H   UNL     1       3.341   8.327  16.567  0.00  0.00    +0.000 HD
ENDROOT
BRANCH   8  10
ATOM     10  C   UNL     1       2.395   4.656  19.350  0.00  0.00    +0.000 A 
ATOM     11  C   UNL     1       1.948   4.337  18.048  0.00  0.00    +0.000 A 
ATOM     12  C   UNL     1       1.149   3.219  17.803  0.00  0.00    +0.000 A 
ATOM     13  C   UNL     1       0.771   2.397  18.856  0.00  0.00    +0.000 A 
ATOM     14  C   UNL     1       1.196   2.692  20.150  0.00  0.00    +0.000 A 
ATOM     15  C   UNL     1       2.001   3.809  20.401  0.00  0.00    +0.000 A 
ATOM     16 CL   UNL     1       2.484   4.059  22.042  0.00  0.00    +0.000 Cl
ENDBRANCH   8  10
BRANCH   1  17
ATOM     17  C   UNL     1       1.489   7.459  20.629  0.00  0.00    +0.000 C 
ATOM     18  O   UNL     1       0.482   6.849  20.949  0.00  0.00    +0.000 OA
BRANCH  17  19
ATOM     19  O   UNL     1       1.936   8.592  21.218  0.00  0.00    +0.000 OA
BRANCH  19  21
ATOM     20  C   UNL     1       0.395  10.356  21.545  0.00  0.00    +0.000 C 
ATOM     21  C   UNL     1       1.092   9.185  22.212  0.00  0.00    +0.000 C 
ENDBRANCH  19  21
ENDBRANCH  17  19
ENDBRANCH   1  17
BRANCH   7  22
ATOM     22  C   UNL     1       5.558   5.009  18.715  0.00  0.00    +0.000 C 
ATOM     23  O   UNL     1       5.691   3.937  18.145  0.00  0.00    +0.000 OA
BRANCH  22  24
ATOM     24  O   UNL     1       6.414   5.486  19.651  0.00  0.00    +0.000 OA
BRANCH  24  25
ATOM     25  C   UNL     1       7.790   5.549  19.249  0.00  0.00    +0.000 C 
ATOM     26  C   UNL     1       8.017   6.882  18.562  0.00  0.00    +0.000 C 
ENDBRANCH  24  25
ENDBRANCH  22  24
ENDBRANCH   7  22
TORSDOF 7
ENDMDL
MODEL 2
REMARK VINA RESULT:      -6.7      2.554      4.671
REMARK  Name = 
REMARK  11 active torsions:
REMARK  status: ('A' for Active; 'I' for Inactive)
REMARK    1  A    between atoms: C_1  and  C_2
REMARK    2  A    between atoms: C_2  and  O_3
REMARK    3  A    between atoms: O_3  and  C_4
REMARK    4  A    between atoms: C_4  and  C_6
REMARK    5  A    between atoms: C_7  and  C_8
REMARK    6  A    between atoms: C_10  and  C_11
REMARK    7  A    between atoms: C_12  and  C_13
REMARK    8  A    between atoms: C_13  and  O_15
REMARK    9  A    between atoms: O_15  and  C_16
REMARK   10  A    between atoms: C_16  and  C_17
REMARK   11  A    between atoms: C_18  and  C_19
REMARK                            x       y       z     vdW  Elec       q    Type
REMARK                         _______ _______ _______ _____ _____    ______ ____
ROOT
ATOM      1  C   UNL     1       2.518   7.127  18.782  0.00  0.00    +0.000 C 
ATOM      2  C   UNL     1       1.976   7.057  20.022  0.00  0.00    +0.000 C 
ATOM      3  C   UNL     1       1.468   8.205  20.860  0.00  0.00    +0.000 C 
ATOM      4  N   UNL     1       1.827   5.815  20.627  0.00  0.00    +0.000 N 
ATOM      5  C   UNL     1       1.964   4.602  19.975  0.00  0.00    +0.000 C 
ATOM      6  C   UNL     1       1.529   3.382  20.750  0.00  0.00    +0.000 C 
ATOM      7  C   UNL     1       2.497   4.565  18.729  0.00  0.00    +0.000 C 
ATOM      8  C   UNL     1       3.037   5.853  18.089  0.00  0.00    +0.000 C 
ATOM      9  H   UNL     1       1.355   5.800  21.529  0.00  0.00    +0.000 HD
ENDROOT
BRANCH   8  10
ATOM     10  C   UNL     1       4.578   5.865  18.104  0.00  0.00    +0.000 A 
ATOM     11  C   UNL     1       5.243   5.474  19.289  0.00  0.00    +0.000 A 
ATOM     12  C   UNL     1       6.636   5.476  19.378  0.00  0.00    +0.000 A 
ATOM     13  C   UNL     1       7.398   5.874  18.289  0.00  0.00    +0.000 A 
ATOM     14  C   UNL     1       6.766   6.268  17.111  0.00  0.00    +0.000 A 
ATOM     15  C   UNL     1       5.370   6.264  17.013  0.00  0.00    +0.000 A 
ATOM     16 CL   UNL     1       4.701   6.750  15.494  0.00  0.00    +0.000 Cl
ENDBRANCH   8  10
BRANCH   1  17
ATOM     17  C   UNL     1       2.616   8.406  18.021  0.00  0.00    +0.000 C 
ATOM     18  O   UNL     1       3.632   9.054  17.833  0.00  0.00    +0.000 OA
BRANCH  17  19
ATOM     19  O   UNL     1       1.367   8.792  17.670  0.00  0.00    +0.000 OA
BRANCH  19  21
ATOM     20  C   UNL     1      -0.512  10.120  18.215  0.00  0.00    +0.000 C 
ATOM     21  C   UNL     1       0.988  10.135  17.991  0.00  0.00    +0.000 C 
ENDBRANCH  19  21
ENDBRANCH  17  19
ENDBRANCH   1  17
BRANCH   7  22
ATOM     22  C   UNL     1       2.613   3.285  17.975  0.00  0.00    +0.000 C 
ATOM     23  O   UNL     1       1.711   2.755  17.345  0.00  0.00    +0.000 OA
BRANCH  22  24
ATOM     24  O   UNL     1       3.850   2.753  18.127  0.00  0.00    +0.000 OA
BRANCH  24  25
ATOM     25  C   UNL     1       3.912   1.562  18.926  0.00  0.00    +0.000 C 
ATOM     26  C   UNL     1       4.675   1.890  20.196  0.00  0.00    +0.000 C 
ENDBRANCH  24  25
ENDBRANCH  22  24
ENDBRANCH   7  22
TORSDOF 7
ENDMDL
MODEL 3
REMARK VINA RESULT:      -6.4      0.894      1.719
REMARK  Name = 
REMARK  11 active torsions:
REMARK  status: ('A' for Active; 'I' for Inactive)
REMARK    1  A    between atoms: C_1  and  C_2
REMARK    2  A    between atoms: C_2  and  O_3
REMARK    3  A    between atoms: O_3  and  C_4
REMARK    4  A    between atoms: C_4  and  C_6
REMARK    5  A    between atoms: C_7  and  C_8
REMARK    6  A    between atoms: C_10  and  C_11
REMARK    7  A    between atoms: C_12  and  C_13
REMARK    8  A    between atoms: C_13  and  O_15
REMARK    9  A    between atoms: O_15  and  C_16
REMARK   10  A    between atoms: C_16  and  C_17
REMARK   11  A    between atoms: C_18  and  C_19
REMARK                            x       y       z     vdW  Elec       q    Type
REMARK                         _______ _______ _______ _____ _____    ______ ____
ROOT
ATOM      1  C   UNL     1       2.287   7.246  19.537  0.00  0.00    +0.000 C 
ATOM      2  C   UNL     1       2.437   8.014  18.431  0.00  0.00    +0.000 C 
ATOM      3  C   UNL     1       1.685   9.278  18.092  0.00  0.00    +0.000 C 
ATOM      4  N   UNL     1       3.388   7.657  17.483  0.00  0.00    +0.000 N 
ATOM      5  C   UNL     1       4.377   6.708  17.679  0.00  0.00    +0.000 C 
ATOM      6  C   UNL     1       5.449   6.642  16.619  0.00  0.00    +0.000 C 
ATOM      7  C   UNL     1       4.317   5.889  18.758  0.00  0.00    +0.000 C 
ATOM      8  C   UNL     1       3.104   5.949  19.699  0.00  0.00    +0.000 C 
ATOM      9  H   UNL     1       3.515   8.296  16.701  0.00  0.00    +0.000 HD
ENDROOT
BRANCH   8  10
ATOM     10  C   UNL     1       2.177   4.739  19.472  0.00  0.00    +0.000 A 
ATOM     11  C   UNL     1       1.661   4.520  18.175  0.00  0.00    +0.000 A 
ATOM     12  C   UNL     1       0.804   3.453  17.901  0.00  0.00    +0.000 A 
ATOM     13  C   UNL     1       0.436   2.584  18.918  0.00  0.00    +0.000 A 
ATOM     14  C   UNL     1       0.928   2.781  20.207  0.00  0.00    +0.000 A 
ATOM     15  C   UNL     1       1.792   3.846  20.487  0.00  0.00    +0.000 A 
ATOM     16 CL   UNL     1       2.355   3.975  22.117  0.00  0.00    +0.000 Cl
ENDBRANCH   8  10
BRANCH   1  17
ATOM     17  C   UNL     1       1.366   7.614  20.651  0.00  0.00    +0.000 C 
ATOM     18  O   UNL     1       0.338   7.034  20.955  0.00  0.00    +0.000 OA
BRANCH  17  19
ATOM     19  O   UNL     1       1.799   8.774  21.198  0.00  0.00    +0.000 OA
BRANCH  19  21
ATOM     20  C   UNL     1       0.603  10.808  21.346  0.00  0.00    +0.000 C 
ATOM     21  C   UNL     1       0.877   9.483  22.033  0.00  0.00    +0.000 C 
ENDBRANCH  19  21
ENDBRANCH  17  19
ENDBRANCH   1  17
BRANCH   7  22
ATOM     22  C   UNL     1       5.389   4.891  19.031  0.00  0.00    +0.000 C 
ATOM     23  O   UNL     1       6.392   5.100  19.695  0.00  0.00    +0.000 OA
BRANCH  22  24
ATOM     24  O   UNL     1       5.128   3.724  18.393  0.00  0.00    +0.000 OA
BRANCH  24  25
ATOM     25  C   UNL     1       4.787   2.621  19.245  0.00  0.00    +0.000 C 
ATOM     26  C   UNL     1       3.991   1.623  18.425  0.00  0.00    +0.000 C 
ENDBRANCH  24  25
ENDBRANCH  22  24
ENDBRANCH   7  22
TORSDOF 7
ENDMDL
MODEL 4
REMARK VINA RESULT:      -6.3      2.367      4.770
REMARK  Name = 
REMARK  11 active torsions:
REMARK  status: ('A' for Active; 'I' for Inactive)
REMARK    1  A    between atoms: C_1  and  C_2
REMARK    2  A    between atoms: C_2  and  O_3
REMARK    3  A    between atoms: O_3  and  C_4
REMARK    4  A    between atoms: C_4  and  C_6
REMARK    5  A    between atoms: C_7  and  C_8
REMARK    6  A    between atoms: C_10  and  C_11
REMARK    7  A    between atoms: C_12  and  C_13
REMARK    8  A    between atoms: C_13  and  O_15
REMARK    9  A    between atoms: O_15  and  C_16
REMARK   10  A    between atoms: C_16  and  C_17
REMARK   11  A    between atoms: C_18  and  C_19
REMARK                            x       y       z     vdW  Elec       q    Type
REMARK                         _______ _______ _______ _____ _____    ______ ____
ROOT
ATOM      1  C   UNL     1       3.665   3.965  18.089  0.00  0.00    +0.000 C 
ATOM      2  C   UNL     1       4.483   3.361  18.984  0.00  0.00    +0.000 C 
ATOM      3  C   UNL     1       4.218   2.082  19.740  0.00  0.00    +0.000 C 
ATOM      4  N   UNL     1       5.722   3.927  19.259  0.00  0.00    +0.000 N 
ATOM      5  C   UNL     1       6.307   4.936  18.514  0.00  0.00    +0.000 C 
ATOM      6  C   UNL     1       7.750   5.241  18.835  0.00  0.00    +0.000 C 
ATOM      7  C   UNL     1       5.572   5.603  17.591  0.00  0.00    +0.000 C 
ATOM      8  C   UNL     1       4.072   5.305  17.446  0.00  0.00    +0.000 C 
ATOM      9  H   UNL     1       6.332   3.407  19.886  0.00  0.00    +0.000 HD
ENDROOT
BRANCH   8  10
ATOM     10  C   UNL     1       3.229   6.436  18.066  0.00  0.00    +0.000 A 
ATOM     11  C   UNL     1       2.804   7.494  17.230  0.00  0.00    +0.000 A 
ATOM     12  C   UNL     1       2.051   8.559  17.726  0.00  0.00    +0.000 A 
ATOM     13  C   UNL     1       1.712   8.597  19.072  0.00  0.00    +0.000 A 
ATOM     14  C   UNL     1       2.121   7.568  19.917  0.00  0.00    +0.000 A 
ATOM     15  C   UNL     1       2.872   6.495  19.424  0.00  0.00    +0.000 A 
ATOM     16 CL   UNL     1       3.303   5.267  20.563  0.00  0.00    +0.000 Cl
ENDBRANCH   8  10
BRANCH   1  17
ATOM     17  C   UNL     1       2.367   3.369  17.659  0.00  0.00    +0.000 C 
ATOM     18  O   UNL     1       2.177   2.718  16.645  0.00  0.00    +0.000 OA
BRANCH  17  19
ATOM     19  O   UNL     1       1.405   3.771  18.521  0.00  0.00    +0.000 OA
BRANCH  19  21
ATOM     20  C   UNL     1       0.844   2.996  20.684  0.00  0.00    +0.000 C 
ATOM     21  C   UNL     1       0.669   2.745  19.198  0.00  0.00    +0.000 C 
ENDBRANCH  19  21
ENDBRANCH  17  19
ENDBRANCH   1  17
BRANCH   7  22
ATOM     22  C   UNL     1       6.180   6.660  16.735  0.00  0.00    +0.000 C 
ATOM     23  O   UNL     1       6.640   7.716  17.141  0.00  0.00    +0.000 OA
BRANCH  22  24
ATOM     24  O   UNL     1       6.107   6.315  15.426  0.00  0.00    +0.000 OA
BRANCH  24  25
ATOM     25  C   UNL     1       6.885   5.169  15.049  0.00  0.00    +0.000 C 
ATOM     26  C   UNL     1       5.981   4.221  14.282  0.00  0.00    +0.000 C 
ENDBRANCH  24  25
ENDBRANCH  22  24
ENDBRANCH   7  22
TORSDOF 7
ENDMDL
MODEL 5
REMARK VINA RESULT:      -6.3      1.151      1.540
REMARK  Name = 
REMARK  11 active torsions:
REMARK  status: ('A' for Active; 'I' for Inactive)
REMARK    1  A    between atoms: C_1  and  C_2
REMARK    2  A    between atoms: C_2  and  O_3
REMARK    3  A    between atoms: O_3  and  C_4
REMARK    4  A    between atoms: C_4  and  C_6
REMARK    5  A    between atoms: C_7  and  C_8
REMARK    6  A    between atoms: C_10  and  C_11
REMARK    7  A    between atoms: C_12  and  C_13
REMARK    8  A    between atoms: C_13  and  O_15
REMARK    9  A    between atoms: O_15  and  C_16
REMARK   10  A    between atoms: C_16  and  C_17
REMARK   11  A    between atoms: C_18  and  C_19
REMARK                            x       y       z     vdW  Elec       q    Type
REMARK                         _______ _______ _______ _____ _____    ______ ____
ROOT
ATOM      1  C   UNL     1       2.319   7.178  19.608  0.00  0.00    +0.000 C 
ATOM      2  C   UNL     1       2.273   7.705  18.361  0.00  0.00    +0.000 C 
ATOM      3  C   UNL     1       1.385   8.826  17.878  0.00  0.00    +0.000 C 
ATOM      4  N   UNL     1       3.130   7.210  17.385  0.00  0.00    +0.000 N 
ATOM      5  C   UNL     1       4.209   6.380  17.634  0.00  0.00    +0.000 C 
ATOM      6  C   UNL     1       5.148   6.152  16.475  0.00  0.00    +0.000 C 
ATOM      7  C   UNL     1       4.345   5.803  18.854  0.00  0.00    +0.000 C 
ATOM      8  C   UNL     1       3.252   5.992  19.917  0.00  0.00    +0.000 C 
ATOM      9  H   UNL     1       3.110   7.677  16.481  0.00  0.00    +0.000 HD
ENDROOT
BRANCH   8  10
ATOM     10  C   UNL     1       2.407   4.712  20.063  0.00  0.00    +0.000 A 
ATOM     11  C   UNL     1       2.349   4.085  21.329  0.00  0.00    +0.000 A 
ATOM     12  C   UNL     1       1.616   2.915  21.531  0.00  0.00    +0.000 A 
ATOM     13  C   UNL     1       0.930   2.338  20.471  0.00  0.00    +0.000 A 
ATOM     14  C   UNL     1       0.974   2.935  19.213  0.00  0.00    +0.000 A 
ATOM     15  C   UNL     1       1.703   4.111  19.005  0.00  0.00    +0.000 A 
ATOM     16 CL   UNL     1       1.665   4.771  17.407  0.00  0.00    +0.000 Cl
ENDBRANCH   8  10
BRANCH   1  17
ATOM     17  C   UNL     1       1.511   7.721  20.738  0.00  0.00    +0.000 C 
ATOM     18  O   UNL     1       0.553   7.177  21.264  0.00  0.00    +0.000 OA
BRANCH  17  19
ATOM     19  O   UNL     1       1.941   8.975  21.009  0.00  0.00    +0.000 OA
BRANCH  19  21
ATOM     20  C   UNL     1       0.827  11.047  20.775  0.00  0.00    +0.000 C 
ATOM     21  C   UNL     1       1.025   9.847  21.681  0.00  0.00    +0.000 C 
ENDBRANCH  19  21
ENDBRANCH  17  19
ENDBRANCH   1  17
BRANCH   7  22
ATOM     22  C   UNL     1       5.520   4.945  19.176  0.00  0.00    +0.000 C 
ATOM     23  O   UNL     1       5.571   3.735  19.020  0.00  0.00    +0.000 OA
BRANCH  22  24
ATOM     24  O   UNL     1       6.516   5.685  19.722  0.00  0.00    +0.000 OA
BRANCH  24  25
ATOM     25  C   UNL     1       7.761   5.658  19.009  0.00  0.00    +0.000 C 
ATOM     26  C   UNL     1       8.010   7.046  18.449  0.00  0.00    +0.000 C 
ENDBRANCH  24  25
ENDBRANCH  22  24
ENDBRANCH   7  22
TORSDOF 7
ENDMDL
MODEL 6
REMARK VINA RESULT:      -6.2      0.843      1.353
REMARK  Name = 
REMARK  11 active torsions:
REMARK  status: ('A' for Active; 'I' for Inactive)
REMARK    1  A    between atoms: C_1  and  C_2
REMARK    2  A    between atoms: C_2  and  O_3
REMARK    3  A    between atoms: O_3  and  C_4
REMARK    4  A    between atoms: C_4  and  C_6
REMARK    5  A    between atoms: C_7  and  C_8
REMARK    6  A    between atoms: C_10  and  C_11
REMARK    7  A    between atoms: C_12  and  C_13
REMARK    8  A    between atoms: C_13  and  O_15
REMARK    9  A    between atoms: O_15  and  C_16
REMARK   10  A    between atoms: C_16  and  C_17
REMARK   11  A    between atoms: C_18  and  C_19
REMARK                            x       y       z     vdW  Elec       q    Type
REMARK                         _______ _______ _______ _____ _____    ______ ____
ROOT
ATOM      1  C   UNL     1       2.235   7.258  19.573  0.00  0.00    +0.000 C 
ATOM      2  C   UNL     1       2.282   8.099  18.512  0.00  0.00    +0.000 C 
ATOM      3  C   UNL     1       1.414   9.311  18.273  0.00  0.00    +0.000 C 
ATOM      4  N   UNL     1       3.226   7.882  17.515  0.00  0.00    +0.000 N 
ATOM      5  C   UNL     1       4.297   7.012  17.624  0.00  0.00    +0.000 C 
ATOM      6  C   UNL     1       5.333   7.101  16.530  0.00  0.00    +0.000 C 
ATOM      7  C   UNL     1       4.344   6.129  18.652  0.00  0.00    +0.000 C 
ATOM      8  C   UNL     1       3.164   6.030  19.631  0.00  0.00    +0.000 C 
ATOM      9  H   UNL     1       3.270   8.573  16.771  0.00  0.00    +0.000 HD
ENDROOT
BRANCH   8  10
ATOM     10  C   UNL     1       2.335   4.759  19.358  0.00  0.00    +0.000 A 
ATOM     11  C   UNL     1       1.903   4.508  18.036  0.00  0.00    +0.000 A 
ATOM     12  C   UNL     1       1.137   3.385  17.720  0.00  0.00    +0.000 A 
ATOM     13  C   UNL     1       0.777   2.491  18.718  0.00  0.00    +0.000 A 
ATOM     14  C   UNL     1       1.187   2.719  20.030  0.00  0.00    +0.000 A 
ATOM     15  C   UNL     1       1.960   3.840  20.353  0.00  0.00    +0.000 A 
ATOM     16 CL   UNL     1       2.428   4.004  22.010  0.00  0.00    +0.000 Cl
ENDBRANCH   8  10
BRANCH   1  17
ATOM     17  C   UNL     1       1.327   7.480  20.734  0.00  0.00    +0.000 C 
ATOM     18  O   UNL     1       0.270   6.906  20.940  0.00  0.00    +0.000 OA
BRANCH  17  19
ATOM     19  O   UNL     1       1.810   8.512  21.465  0.00  0.00    +0.000 OA
BRANCH  19  21
ATOM     20  C   UNL     1       0.355   9.423  23.090  0.00  0.00    +0.000 C 
ATOM     21  C   UNL     1       0.926   9.614  21.697  0.00  0.00    +0.000 C 
ENDBRANCH  19  21
ENDBRANCH  17  19
ENDBRANCH   1  17
BRANCH   7  22
ATOM     22  C   UNL     1       5.505   5.213  18.831  0.00  0.00    +0.000 C 
ATOM     23  O   UNL     1       6.407   5.370  19.640  0.00  0.00    +0.000 OA
BRANCH  22  24
ATOM     24  O   UNL     1       5.457   4.201  17.931  0.00  0.00    +0.000 OA
BRANCH  24  25
ATOM     25  C   UNL     1       6.559   4.143  17.013  0.00  0.00    +0.000 C 
ATOM     26  C   UNL     1       6.014   3.748  15.653  0.00  0.00    +0.000 C 
ENDBRANCH  24  25
ENDBRANCH  22  24
ENDBRANCH   7  22
TORSDOF 7
ENDMDL
MODEL 7
REMARK VINA RESULT:      -6.1      2.703      4.913
REMARK  Name = 
REMARK  11 active torsions:
REMARK  status: ('A' for Active; 'I' for Inactive)
REMARK    1  A    between atoms: C_1  and  C_2
REMARK    2  A    between atoms: C_2  and  O_3
REMARK    3  A    between atoms: O_3  and  C_4
REMARK    4  A    between atoms: C_4  and  C_6
REMARK    5  A    between atoms: C_7  and  C_8
REMARK    6  A    between atoms: C_10  and  C_11
REMARK    7  A    between atoms: C_12  and  C_13
REMARK    8  A    between atoms: C_13  and  O_15
REMARK    9  A    between atoms: O_15  and  C_16
REMARK   10  A    between atoms: C_16  and  C_17
REMARK   11  A    between atoms: C_18  and  C_19
REMARK                            x       y       z     vdW  Elec       q    Type
REMARK                         _______ _______ _______ _____ _____    ______ ____
ROOT
ATOM      1  C   UNL     1       3.497   3.855  18.417  0.00  0.00    +0.000 C 
ATOM      2  C   UNL     1       4.449   3.176  19.101  0.00  0.00    +0.000 C 
ATOM      3  C   UNL     1       4.320   1.807  19.723  0.00  0.00    +0.000 C 
ATOM      4  N   UNL     1       5.706   3.747  19.260  0.00  0.00    +0.000 N 
ATOM      5  C   UNL     1       6.157   4.859  18.570  0.00  0.00    +0.000 C 
ATOM      6  C   UNL     1       7.627   5.172  18.712  0.00  0.00    +0.000 C 
ATOM      7  C   UNL     1       5.282   5.606  17.853  0.00  0.00    +0.000 C 
ATOM      8  C   UNL     1       3.782   5.276  17.894  0.00  0.00    +0.000 C 
ATOM      9  H   UNL     1       6.411   3.177  19.723  0.00  0.00    +0.000 HD
ENDROOT
BRANCH   8  10
ATOM     10  C   UNL     1       3.022   6.295  18.765  0.00  0.00    +0.000 A 
ATOM     11  C   UNL     1       2.714   5.943  20.099  0.00  0.00    +0.000 A 
ATOM     12  C   UNL     1       2.015   6.810  20.940  0.00  0.00    +0.000 A 
ATOM     13  C   UNL     1       1.601   8.047  20.466  0.00  0.00    +0.000 A 
ATOM     14  C   UNL     1       1.888   8.416  19.154  0.00  0.00    +0.000 A 
ATOM     15  C   UNL     1       2.593   7.553  18.307  0.00  0.00    +0.000 A 
ATOM     16 CL   UNL     1       2.911   8.129  16.708  0.00  0.00    +0.000 Cl
ENDBRANCH   8  10
BRANCH   1  17
ATOM     17  C   UNL     1       2.159   3.272  18.110  0.00  0.00    +0.000 C 
ATOM     18  O   UNL     1       1.463   3.539  17.144  0.00  0.00    +0.000 OA
BRANCH  17  19
ATOM     19  O   UNL     1       1.789   2.482  19.145  0.00  0.00    +0.000 OA
BRANCH  19  21
ATOM     20  C   UNL     1       1.299   2.809  21.435  0.00  0.00    +0.000 C 
ATOM     21  C   UNL     1       0.777   2.991  20.022  0.00  0.00    +0.000 C 
ENDBRANCH  19  21
ENDBRANCH  17  19
ENDBRANCH   1  17
BRANCH   7  22
ATOM     22  C   UNL     1       5.739   6.779  17.056  0.00  0.00    +0.000 C 
ATOM     23  O   UNL     1       6.140   7.834  17.523  0.00  0.00    +0.000 OA
BRANCH  22  24
ATOM     24  O   UNL     1       5.598   6.538  15.730  0.00  0.00    +0.000 OA
BRANCH  24  25
ATOM     25  C   UNL     1       6.411   5.476  15.209  0.00  0.00    +0.000 C 
ATOM     26  C   UNL     1       5.499   4.490  14.503  0.00  0.00    +0.000 C 
ENDBRANCH  24  25
ENDBRANCH  22  24
ENDBRANCH   7  22
TORSDOF 7
ENDMDL
MODEL 8
REMARK VINA RESULT:      -6.0      2.508      5.062
REMARK  Name = 
REMARK  11 active torsions:
REMARK  status: ('A' for Active; 'I' for Inactive)
REMARK    1  A    between atoms: C_1  and  C_2
REMARK    2  A    between atoms: C_2  and  O_3
REMARK    3  A    between atoms: O_3  and  C_4
REMARK    4  A    between atoms: C_4  and  C_6
REMARK    5  A    between atoms: C_7  and  C_8
REMARK    6  A    between atoms: C_10  and  C_11
REMARK    7  A    between atoms: C_12  and  C_13
REMARK    8  A    between atoms: C_13  and  O_15
REMARK    9  A    between atoms: O_15  and  C_16
REMARK   10  A    between atoms: C_16  and  C_17
REMARK   11  A    between atoms: C_18  and  C_19
REMARK                            x       y       z     vdW  Elec       q    Type
REMARK                         _______ _______ _______ _____ _____    ______ ____
ROOT
ATOM      1  C   UNL     1       2.957   6.278  18.871  0.00  0.00    +0.000 C 
ATOM      2  C   UNL     1       2.496   6.453  20.133  0.00  0.00    +0.000 C 
ATOM      3  C   UNL     1       1.954   7.726  20.736  0.00  0.00    +0.000 C 
ATOM      4  N   UNL     1       2.477   5.369  21.003  0.00  0.00    +0.000 N 
ATOM      5  C   UNL     1       2.667   4.052  20.622  0.00  0.00    +0.000 C 
ATOM      6  C   UNL     1       2.372   3.012  21.675  0.00  0.00    +0.000 C 
ATOM      7  C   UNL     1       3.126   3.772  19.378  0.00  0.00    +0.000 C 
ATOM      8  C   UNL     1       3.528   4.916  18.435  0.00  0.00    +0.000 C 
ATOM      9  H   UNL     1       2.063   5.527  21.919  0.00  0.00    +0.000 HD
ENDROOT
BRANCH   8  10
ATOM     10  C   UNL     1       5.062   5.024  18.331  0.00  0.00    +0.000 A 
ATOM     11  C   UNL     1       5.785   5.448  19.469  0.00  0.00    +0.000 A 
ATOM     12  C   UNL     1       7.174   5.583  19.443  0.00  0.00    +0.000 A 
ATOM     13  C   UNL     1       7.873   5.305  18.277  0.00  0.00    +0.000 A 
ATOM     14  C   UNL     1       7.183   4.888  17.140  0.00  0.00    +0.000 A 
ATOM     15  C   UNL     1       5.790   4.746  17.162  0.00  0.00    +0.000 A 
ATOM     16 CL   UNL     1       5.048   4.200  15.699  0.00  0.00    +0.000 Cl
ENDBRANCH   8  10
BRANCH   1  17
ATOM     17  C   UNL     1       2.912   7.359  17.844  0.00  0.00    +0.000 C 
ATOM     18  O   UNL     1       3.843   7.726  17.146  0.00  0.00    +0.000 OA
BRANCH  17  19
ATOM     19  O   UNL     1       1.696   7.949  17.896  0.00  0.00    +0.000 OA
BRANCH  19  21
ATOM     20  C   UNL     1       0.255   9.810  18.129  0.00  0.00    +0.000 C 
ATOM     21  C   UNL     1       1.657   9.373  17.747  0.00  0.00    +0.000 C 
ENDBRANCH  19  21
ENDBRANCH  17  19
ENDBRANCH   1  17
BRANCH   7  22
ATOM     22  C   UNL     1       3.293   2.366  18.914  0.00  0.00    +0.000 C 
ATOM     23  O   UNL     1       4.201   1.619  19.245  0.00  0.00    +0.000 OA
BRANCH  22  24
ATOM     24  O   UNL     1       2.324   2.038  18.025  0.00  0.00    +0.000 OA
BRANCH  24  25
ATOM     25  C   UNL     1       1.081   1.610  18.601  0.00  0.00    +0.000 C 
ATOM     26  C   UNL     1       0.175   2.822  18.713  0.00  0.00    +0.000 C 
ENDBRANCH  24  25
ENDBRANCH  22  24
ENDBRANCH   7  22
TORSDOF 7
ENDMDL
MODEL 9
REMARK VINA RESULT:      -5.8      5.587      9.386
REMARK  Name = 
REMARK  11 active torsions:
REMARK  status: ('A' for Active; 'I' for Inactive)
REMARK    1  A    between atoms: C_1  and  C_2
REMARK    2  A    between atoms: C_2  and  O_3
REMARK    3  A    between atoms: O_3  and  C_4
REMARK    4  A    between atoms: C_4  and  C_6
REMARK    5  A    between atoms: C_7  and  C_8
REMARK    6  A    between atoms: C_10  and  C_11
REMARK    7  A    between atoms: C_12  and  C_13
REMARK    8  A    between atoms: C_13  and  O_15
REMARK    9  A    between atoms: O_15  and  C_16
REMARK   10  A    between atoms: C_16  and  C_17
REMARK   11  A    between atoms: C_18  and  C_19
REMARK                            x       y       z     vdW  Elec       q    Type
REMARK                         _______ _______ _______ _____ _____    ______ ____
ROOT
ATOM      1  C   UNL     1      -0.474  10.696  19.536  0.00  0.00    +0.000 C 
ATOM      2  C   UNL     1      -0.025  10.156  18.377  0.00  0.00    +0.000 C 
ATOM      3  C   UNL     1       1.278   9.427  18.157  0.00  0.00    +0.000 C 
ATOM      4  N   UNL     1      -0.821  10.235  17.241  0.00  0.00    +0.000 N 
ATOM      5  C   UNL     1      -2.153  10.610  17.239  0.00  0.00    +0.000 C 
ATOM      6  C   UNL     1      -2.896  10.401  15.942  0.00  0.00    +0.000 C 
ATOM      7  C   UNL     1      -2.698  11.160  18.351  0.00  0.00    +0.000 C 
ATOM      8  C   UNL     1      -1.812  11.458  19.571  0.00  0.00    +0.000 C 
ATOM      9  H   UNL     1      -0.477   9.760  16.409  0.00  0.00    +0.000 HD
ENDROOT
BRANCH   8  10
ATOM     10  C   UNL     1      -1.529  12.968  19.684  0.00  0.00    +0.000 A 
ATOM     11  C   UNL     1      -0.549  13.534  18.837  0.00  0.00    +0.000 A 
ATOM     12  C   UNL     1      -0.229  14.891  18.895  0.00  0.00    +0.000 A 
ATOM     13  C   UNL     1      -0.876  15.714  19.807  0.00  0.00    +0.000 A 
ATOM     14  C   UNL     1      -1.843  15.180  20.656  0.00  0.00    +0.000 A 
ATOM     15  C   UNL     1      -2.171  13.820  20.598  0.00  0.00    +0.000 A 
ATOM     16 CL   UNL     1      -3.402  13.277  21.685  0.00  0.00    +0.000 Cl
ENDBRANCH   8  10
BRANCH   1  17
ATOM     17  C   UNL     1       0.268  10.562  20.824  0.00  0.00    +0.000 C 
ATOM     18  O   UNL     1       1.211  11.246  21.183  0.00  0.00    +0.000 OA
BRANCH  17  19
ATOM     19  O   UNL     1      -0.204   9.476  21.479  0.00  0.00    +0.000 OA
BRANCH  19  21
ATOM     20  C   UNL     1      -1.258  10.737  23.179  0.00  0.00    +0.000 C 
ATOM     21  C   UNL     1      -0.321   9.576  22.903  0.00  0.00    +0.000 C 
ENDBRANCH  19  21
ENDBRANCH  17  19
ENDBRANCH   1  17
BRANCH   7  22
ATOM     22  C   UNL     1      -4.141  11.529  18.404  0.00  0.00    +0.000 C 
ATOM     23  O   UNL     1      -4.574  12.670  18.450  0.00  0.00    +0.000 OA
BRANCH  22  24
ATOM     24  O   UNL     1      -4.916  10.418  18.450  0.00  0.00    +0.000 OA
BRANCH  24  25
ATOM     25  C   UNL     1      -6.330  10.657  18.499  0.00  0.00    +0.000 C 
ATOM     26  C   UNL     1      -6.953   9.603  19.395  0.00  0.00    +0.000 C 
ENDBRANCH  24  25
ENDBRANCH  22  24
ENDBRANCH   7  22
TORSDOF 7
ENDMDL
