MODEL 1
REMARK VINA RESULT:      -8.3      0.000      0.000
REMARK  Name = 
REMARK  7 active torsions:
REMARK  status: ('A' for Active; 'I' for Inactive)
REMARK    1  A    between atoms: C_6  and  O_7
REMARK    2  A    between atoms: C_8  and  C_9
REMARK    3  A    between atoms: C_9  and  C_10
REMARK    4  A    between atoms: C_9  and  C_26
REMARK    5  A    between atoms: C_14  and  C_15
REMARK    6  A    between atoms: C_15  and  S_16
REMARK    7  A    between atoms: S_16  and  C_19
REMARK                            x       y       z     vdW  Elec       q    Type
REMARK                         _______ _______ _______ _____ _____    ______ ____
ROOT
ATOM      1  C   UNL     1       0.618  10.652  18.947  0.00  0.00    +0.000 C 
ENDROOT
BRANCH   1   8
ATOM      2  O   UNL     1       2.928  12.113  17.862  0.00  0.00    +0.000 OA
ATOM      3  C   UNL     1       2.290  12.604  18.786  0.00  0.00    +0.000 A 
ATOM      4  C   UNL     1       2.468  14.031  19.156  0.00  0.00    +0.000 A 
ATOM      5  C   UNL     1       2.264  14.346  20.443  0.00  0.00    +0.000 A 
ATOM      6  O   UNL     1       1.749  13.428  21.348  0.00  0.00    +0.000 OA
ATOM      7  C   UNL     1       1.118  12.297  20.841  0.00  0.00    +0.000 A 
ATOM      8  C   UNL     1       1.319  11.834  19.590  0.00  0.00    +0.000 A 
ATOM      9  C   UNL     1       2.652  15.678  21.018  0.00  0.00    +0.000 C 
ATOM     10  C   UNL     1       1.557  16.726  21.195  0.00  0.00    +0.000 C 
ATOM     11  C   UNL     1       0.592  17.069  20.050  0.00  0.00    +0.000 C 
ATOM     12  C   UNL     1       0.635  16.308  18.722  0.00  0.00    +0.000 C 
ATOM     13  C   UNL     1       2.005  16.314  18.030  0.00  0.00    +0.000 C 
ATOM     14  C   UNL     1       2.791  14.985  18.044  0.00  0.00    +0.000 C 
BRANCH   7  15
ATOM     15  O   UNL     1       0.242  11.660  21.694  0.00  0.00    +0.000 OA
ATOM     16  H   UNL     1      -0.633  11.953  21.408  0.00  0.00    +0.000 HD
ENDBRANCH   7  15
ENDBRANCH   1   8
BRANCH   1  17
ATOM     17  C   UNL     1       1.117   9.302  19.507  0.00  0.00    +0.000 A 
ATOM     18  C   UNL     1       0.758   8.848  20.789  0.00  0.00    +0.000 A 
ATOM     19  C   UNL     1       1.170   7.605  21.261  0.00  0.00    +0.000 A 
ATOM     20  C   UNL     1       1.976   6.797  20.470  0.00  0.00    +0.000 A 
ATOM     21  C   UNL     1       2.396   7.231  19.204  0.00  0.00    +0.000 A 
ATOM     22  C   UNL     1       1.969   8.489  18.737  0.00  0.00    +0.000 A 
BRANCH  21  23
ATOM     23  C   UNL     1       3.348   6.361  18.419  0.00  0.00    +0.000 C 
BRANCH  23  24
ATOM     24  S   UNL     1       2.558   4.858  17.865  0.00  0.00    +0.000 S 
ATOM     25  O   UNL     1       1.194   5.146  17.452  0.00  0.00    +0.000 OA
ATOM     26  O   UNL     1       3.470   4.136  16.990  0.00  0.00    +0.000 OA
BRANCH  24  27
ATOM     27  C   UNL     1       2.423   3.877  19.352  0.00  0.00    +0.000 A 
ATOM     28  C   UNL     1       1.182   3.688  19.938  0.00  0.00    +0.000 A 
ATOM     29  C   UNL     1       1.138   2.934  21.106  0.00  0.00    +0.000 A 
ATOM     30  C   UNL     1       2.321   2.414  21.630  0.00  0.00    +0.000 A 
ATOM     31  C   UNL     1       3.512   2.660  20.961  0.00  0.00    +0.000 A 
ATOM     32  N   UNL     1       3.597   3.380  19.822  0.00  0.00    +0.000 NA
ENDBRANCH  24  27
ENDBRANCH  23  24
ENDBRANCH  21  23
ENDBRANCH   1  17
BRANCH   1  33
ATOM     33  C   UNL     1      -0.912  10.677  18.949  0.00  0.00    +0.000 C 
ATOM     34  C   UNL     1      -1.725  11.793  18.337  0.00  0.00    +0.000 C 
ATOM     35  C   UNL     1      -1.651  10.459  17.647  0.00  0.00    +0.000 C 
ENDBRANCH   1  33
TORSDOF 7
ENDMDL
MODEL 2
REMARK VINA RESULT:      -8.2      4.374      9.415
REMARK  Name = 
REMARK  7 active torsions:
REMARK  status: ('A' for Active; 'I' for Inactive)
REMARK    1  A    between atoms: C_6  and  O_7
REMARK    2  A    between atoms: C_8  and  C_9
REMARK    3  A    between atoms: C_9  and  C_10
REMARK    4  A    between atoms: C_9  and  C_26
REMARK    5  A    between atoms: C_14  and  C_15
REMARK    6  A    between atoms: C_15  and  S_16
REMARK    7  A    between atoms: S_16  and  C_19
REMARK                            x       y       z     vdW  Elec       q    Type
REMARK                         _______ _______ _______ _____ _____    ______ ____
ROOT
ATOM      1  C   UNL     1      -0.060   9.885  19.304  0.00  0.00    +0.000 C 
ENDROOT
BRANCH   1   8
ATOM      2  O   UNL     1       1.044   8.221  21.463  0.00  0.00    +0.000 OA
ATOM      3  C   UNL     1       1.426   8.039  20.312  0.00  0.00    +0.000 A 
ATOM      4  C   UNL     1       2.189   6.818  19.952  0.00  0.00    +0.000 A 
ATOM      5  C   UNL     1       3.064   6.934  18.942  0.00  0.00    +0.000 A 
ATOM      6  O   UNL     1       3.133   8.081  18.163  0.00  0.00    +0.000 OA
ATOM      7  C   UNL     1       2.060   8.964  18.207  0.00  0.00    +0.000 A 
ATOM      8  C   UNL     1       1.170   8.999  19.220  0.00  0.00    +0.000 A 
ATOM      9  C   UNL     1       4.083   5.875  18.633  0.00  0.00    +0.000 C 
ATOM     10  C   UNL     1       3.785   4.909  17.489  0.00  0.00    +0.000 C 
ATOM     11  C   UNL     1       2.436   4.182  17.394  0.00  0.00    +0.000 C 
ATOM     12  C   UNL     1       1.309   4.468  18.389  0.00  0.00    +0.000 C 
ATOM     13  C   UNL     1       1.697   4.279  19.862  0.00  0.00    +0.000 C 
ATOM     14  C   UNL     1       1.857   5.563  20.705  0.00  0.00    +0.000 C 
BRANCH   7  15
ATOM     15  O   UNL     1       1.936   9.818  17.131  0.00  0.00    +0.000 OA
ATOM     16  H   UNL     1       2.214  10.679  17.469  0.00  0.00    +0.000 HD
ENDBRANCH   7  15
ENDBRANCH   1   8
BRANCH   1  17
ATOM     17  C   UNL     1       0.207  11.181  20.098  0.00  0.00    +0.000 A 
ATOM     18  C   UNL     1       1.240  12.071  19.750  0.00  0.00    +0.000 A 
ATOM     19  C   UNL     1       1.435  13.263  20.441  0.00  0.00    +0.000 A 
ATOM     20  C   UNL     1       0.619  13.580  21.519  0.00  0.00    +0.000 A 
ATOM     21  C   UNL     1      -0.392  12.699  21.930  0.00  0.00    +0.000 A 
ATOM     22  C   UNL     1      -0.583  11.499  21.219  0.00  0.00    +0.000 A 
BRANCH  21  23
ATOM     23  C   UNL     1      -1.193  13.041  23.164  0.00  0.00    +0.000 C 
BRANCH  23  24
ATOM     24  S   UNL     1      -2.947  13.059  22.824  0.00  0.00    +0.000 S 
ATOM     25  O   UNL     1      -3.168  13.294  21.407  0.00  0.00    +0.000 OA
ATOM     26  O   UNL     1      -3.575  11.937  23.506  0.00  0.00    +0.000 OA
BRANCH  24  27
ATOM     27  C   UNL     1      -3.525  14.528  23.660  0.00  0.00    +0.000 A 
ATOM     28  C   UNL     1      -2.686  15.192  24.540  0.00  0.00    +0.000 A 
ATOM     29  C   UNL     1      -3.195  16.317  25.179  0.00  0.00    +0.000 A 
ATOM     30  C   UNL     1      -4.504  16.720  24.917  0.00  0.00    +0.000 A 
ATOM     31  C   UNL     1      -5.259  15.986  24.014  0.00  0.00    +0.000 A 
ATOM     32  N   UNL     1      -4.802  14.892  23.367  0.00  0.00    +0.000 NA
ENDBRANCH  24  27
ENDBRANCH  23  24
ENDBRANCH  21  23
ENDBRANCH   1  17
BRANCH   1  33
ATOM     33  C   UNL     1      -0.752  10.224  17.982  0.00  0.00    +0.000 C 
ATOM     34  C   UNL     1      -2.170   9.816  17.658  0.00  0.00    +0.000 C 
ATOM     35  C   UNL     1      -1.862  11.252  17.978  0.00  0.00    +0.000 C 
ENDBRANCH   1  33
TORSDOF 7
ENDMDL
MODEL 3
REMARK VINA RESULT:      -8.2      1.909      2.739
REMARK  Name = 
REMARK  7 active torsions:
REMARK  status: ('A' for Active; 'I' for Inactive)
REMARK    1  A    between atoms: C_6  and  O_7
REMARK    2  A    between atoms: C_8  and  C_9
REMARK    3  A    between atoms: C_9  and  C_10
REMARK    4  A    between atoms: C_9  and  C_26
REMARK    5  A    between atoms: C_14  and  C_15
REMARK    6  A    between atoms: C_15  and  S_16
REMARK    7  A    between atoms: S_16  and  C_19
REMARK                            x       y       z     vdW  Elec       q    Type
REMARK                         _______ _______ _______ _____ _____    ______ ____
ROOT
ATOM      1  C   UNL     1       0.321  11.120  19.172  0.00  0.00    +0.000 C 
ENDROOT
BRANCH   1   8
ATOM      2  O   UNL     1       2.634  12.482  17.970  0.00  0.00    +0.000 OA
ATOM      3  C   UNL     1       2.072  12.993  18.932  0.00  0.00    +0.000 A 
ATOM      4  C   UNL     1       2.339  14.405  19.302  0.00  0.00    +0.000 A 
ATOM      5  C   UNL     1       2.222  14.717  20.602  0.00  0.00    +0.000 A 
ATOM      6  O   UNL     1       1.716  13.814  21.527  0.00  0.00    +0.000 OA
ATOM      7  C   UNL     1       1.004  12.720  21.048  0.00  0.00    +0.000 A 
ATOM      8  C   UNL     1       1.112  12.261  19.783  0.00  0.00    +0.000 A 
ATOM      9  C   UNL     1       2.706  16.023  21.164  0.00  0.00    +0.000 C 
ATOM     10  C   UNL     1       1.673  17.120  21.411  0.00  0.00    +0.000 C 
ATOM     11  C   UNL     1       0.663  17.519  20.325  0.00  0.00    +0.000 C 
ATOM     12  C   UNL     1       0.596  16.772  18.991  0.00  0.00    +0.000 C 
ATOM     13  C   UNL     1       1.923  16.719  18.223  0.00  0.00    +0.000 C 
ATOM     14  C   UNL     1       2.645  15.355  18.182  0.00  0.00    +0.000 C 
BRANCH   7  15
ATOM     15  O   UNL     1       0.148  12.117  21.944  0.00  0.00    +0.000 OA
ATOM     16  H   UNL     1       0.425  11.191  21.961  0.00  0.00    +0.000 HD
ENDBRANCH   7  15
ENDBRANCH   1   8
BRANCH   1  17
ATOM     17  C   UNL     1       0.968   9.746  19.448  0.00  0.00    +0.000 A 
ATOM     18  C   UNL     1       0.759   9.052  20.654  0.00  0.00    +0.000 A 
ATOM     19  C   UNL     1       1.303   7.789  20.869  0.00  0.00    +0.000 A 
ATOM     20  C   UNL     1       2.097   7.203  19.892  0.00  0.00    +0.000 A 
ATOM     21  C   UNL     1       2.371   7.881  18.694  0.00  0.00    +0.000 A 
ATOM     22  C   UNL     1       1.809   9.155  18.487  0.00  0.00    +0.000 A 
BRANCH  21  23
ATOM     23  C   UNL     1       3.314   7.244  17.702  0.00  0.00    +0.000 C 
BRANCH  23  24
ATOM     24  S   UNL     1       3.767   5.589  18.194  0.00  0.00    +0.000 S 
ATOM     25  O   UNL     1       4.289   5.607  19.551  0.00  0.00    +0.000 OA
ATOM     26  O   UNL     1       2.705   4.671  17.811  0.00  0.00    +0.000 OA
BRANCH  24  27
ATOM     27  C   UNL     1       5.157   5.199  17.141  0.00  0.00    +0.000 A 
ATOM     28  C   UNL     1       5.027   5.310  15.766  0.00  0.00    +0.000 A 
ATOM     29  C   UNL     1       6.133   4.973  14.993  0.00  0.00    +0.000 A 
ATOM     30  C   UNL     1       7.301   4.542  15.620  0.00  0.00    +0.000 A 
ATOM     31  C   UNL     1       7.326   4.469  17.006  0.00  0.00    +0.000 A 
ATOM     32  N   UNL     1       6.278   4.793  17.793  0.00  0.00    +0.000 NA
ENDBRANCH  24  27
ENDBRANCH  23  24
ENDBRANCH  21  23
ENDBRANCH   1  17
BRANCH   1  33
ATOM     33  C   UNL     1      -1.171  11.064  19.506  0.00  0.00    +0.000 C 
ATOM     34  C   UNL     1      -2.126  12.204  19.241  0.00  0.00    +0.000 C 
ATOM     35  C   UNL     1      -2.174  10.975  18.376  0.00  0.00    +0.000 C 
ENDBRANCH   1  33
TORSDOF 7
ENDMDL
MODEL 4
REMARK VINA RESULT:      -8.1      2.288      2.930
REMARK  Name = 
REMARK  7 active torsions:
REMARK  status: ('A' for Active; 'I' for Inactive)
REMARK    1  A    between atoms: C_6  and  O_7
REMARK    2  A    between atoms: C_8  and  C_9
REMARK    3  A    between atoms: C_9  and  C_10
REMARK    4  A    between atoms: C_9  and  C_26
REMARK    5  A    between atoms: C_14  and  C_15
REMARK    6  A    between atoms: C_15  and  S_16
REMARK    7  A    between atoms: S_16  and  C_19
REMARK                            x       y       z     vdW  Elec       q    Type
REMARK                         _______ _______ _______ _____ _____    ______ ____
ROOT
ATOM      1  C   UNL     1      -0.212  11.147  18.590  0.00  0.00    +0.000 C 
ENDROOT
BRANCH   1   8
ATOM      2  O   UNL     1       2.203  12.824  18.666  0.00  0.00    +0.000 OA
ATOM      3  C   UNL     1       1.169  13.240  19.177  0.00  0.00    +0.000 A 
ATOM      4  C   UNL     1       1.032  14.669  19.554  0.00  0.00    +0.000 A 
ATOM      5  C   UNL     1       0.228  14.941  20.592  0.00  0.00    +0.000 A 
ATOM      6  O   UNL     1      -0.567  13.964  21.176  0.00  0.00    +0.000 OA
ATOM      7  C   UNL     1      -0.791  12.793  20.461  0.00  0.00    +0.000 A 
ATOM      8  C   UNL     1       0.006  12.373  19.457  0.00  0.00    +0.000 A 
ATOM      9  C   UNL     1       0.189  16.290  21.250  0.00  0.00    +0.000 C 
ATOM     10  C   UNL     1      -0.949  17.236  20.875  0.00  0.00    +0.000 C 
ATOM     11  C   UNL     1      -1.298  17.515  19.405  0.00  0.00    +0.000 C 
ATOM     12  C   UNL     1      -0.579  16.787  18.267  0.00  0.00    +0.000 C 
ATOM     13  C   UNL     1       0.950  16.925  18.289  0.00  0.00    +0.000 C 
ATOM     14  C   UNL     1       1.751  15.669  18.697  0.00  0.00    +0.000 C 
BRANCH   7  15
ATOM     15  O   UNL     1      -1.905  12.066  20.825  0.00  0.00    +0.000 OA
ATOM     16  H   UNL     1      -1.918  11.317  20.214  0.00  0.00    +0.000 HD
ENDBRANCH   7  15
ENDBRANCH   1   8
BRANCH   1  17
ATOM     17  C   UNL     1       0.594   9.928  19.089  0.00  0.00    +0.000 A 
ATOM     18  C   UNL     1       0.437   9.411  20.387  0.00  0.00    +0.000 A 
ATOM     19  C   UNL     1       1.129   8.278  20.807  0.00  0.00    +0.000 A 
ATOM     20  C   UNL     1       2.019   7.653  19.943  0.00  0.00    +0.000 A 
ATOM     21  C   UNL     1       2.241   8.163  18.656  0.00  0.00    +0.000 A 
ATOM     22  C   UNL     1       1.531   9.306  18.242  0.00  0.00    +0.000 A 
BRANCH  21  23
ATOM     23  C   UNL     1       3.286   7.505  17.787  0.00  0.00    +0.000 C 
BRANCH  23  24
ATOM     24  S   UNL     1       3.518   5.789  18.224  0.00  0.00    +0.000 S 
ATOM     25  O   UNL     1       3.988   5.693  19.596  0.00  0.00    +0.000 OA
ATOM     26  O   UNL     1       2.368   5.022  17.768  0.00  0.00    +0.000 OA
BRANCH  24  27
ATOM     27  C   UNL     1       4.889   5.273  17.200  0.00  0.00    +0.000 A 
ATOM     28  C   UNL     1       4.706   4.267  16.266  0.00  0.00    +0.000 A 
ATOM     29  C   UNL     1       5.811   3.890  15.511  0.00  0.00    +0.000 A 
ATOM     30  C   UNL     1       7.035   4.525  15.724  0.00  0.00    +0.000 A 
ATOM     31  C   UNL     1       7.109   5.524  16.684  0.00  0.00    +0.000 A 
ATOM     32  N   UNL     1       6.059   5.924  17.433  0.00  0.00    +0.000 NA
ENDBRANCH  24  27
ENDBRANCH  23  24
ENDBRANCH  21  23
ENDBRANCH   1  17
BRANCH   1  33
ATOM     33  C   UNL     1      -1.664  10.737  18.336  0.00  0.00    +0.000 C 
ATOM     34  C   UNL     1      -2.529  11.361  17.268  0.00  0.00    +0.000 C 
ATOM     35  C   UNL     1      -1.999   9.967  17.077  0.00  0.00    +0.000 C 
ENDBRANCH   1  33
TORSDOF 7
ENDMDL
MODEL 5
REMARK VINA RESULT:      -8.0      3.944      8.971
REMARK  Name = 
REMARK  7 active torsions:
REMARK  status: ('A' for Active; 'I' for Inactive)
REMARK    1  A    between atoms: C_6  and  O_7
REMARK    2  A    between atoms: C_8  and  C_9
REMARK    3  A    between atoms: C_9  and  C_10
REMARK    4  A    between atoms: C_9  and  C_26
REMARK    5  A    between atoms: C_14  and  C_15
REMARK    6  A    between atoms: C_15  and  S_16
REMARK    7  A    between atoms: S_16  and  C_19
REMARK                            x       y       z     vdW  Elec       q    Type
REMARK                         _______ _______ _______ _____ _____    ______ ____
ROOT
ATOM      1  C   UNL     1      -0.007   9.859  19.344  0.00  0.00    +0.000 C 
ENDROOT
BRANCH   1   8
ATOM      2  O   UNL     1       1.113   8.194  21.494  0.00  0.00    +0.000 OA
ATOM      3  C   UNL     1       1.472   8.000  20.338  0.00  0.00    +0.000 A 
ATOM      4  C   UNL     1       2.212   6.767  19.972  0.00  0.00    +0.000 A 
ATOM      5  C   UNL     1       3.070   6.865  18.946  0.00  0.00    +0.000 A 
ATOM      6  O   UNL     1       3.141   8.006  18.159  0.00  0.00    +0.000 OA
ATOM      7  C   UNL     1       2.081   8.903  18.216  0.00  0.00    +0.000 A 
ATOM      8  C   UNL     1       1.208   8.957  19.244  0.00  0.00    +0.000 A 
ATOM      9  C   UNL     1       4.069   5.790  18.626  0.00  0.00    +0.000 C 
ATOM     10  C   UNL     1       3.739   4.821  17.494  0.00  0.00    +0.000 C 
ATOM     11  C   UNL     1       2.378   4.112  17.427  0.00  0.00    +0.000 C 
ATOM     12  C   UNL     1       1.273   4.419  18.441  0.00  0.00    +0.000 C 
ATOM     13  C   UNL     1       1.685   4.234  19.908  0.00  0.00    +0.000 C 
ATOM     14  C   UNL     1       1.877   5.521  20.739  0.00  0.00    +0.000 C 
BRANCH   7  15
ATOM     15  O   UNL     1       1.948   9.751  17.137  0.00  0.00    +0.000 OA
ATOM     16  H   UNL     1       2.855   9.971  16.886  0.00  0.00    +0.000 HD
ENDBRANCH   7  15
ENDBRANCH   1   8
BRANCH   1  17
ATOM     17  C   UNL     1       0.299  11.170  20.099  0.00  0.00    +0.000 A 
ATOM     18  C   UNL     1       1.397  11.984  19.767  0.00  0.00    +0.000 A 
ATOM     19  C   UNL     1       1.630  13.191  20.420  0.00  0.00    +0.000 A 
ATOM     20  C   UNL     1       0.785  13.599  21.443  0.00  0.00    +0.000 A 
ATOM     21  C   UNL     1      -0.295  12.795  21.839  0.00  0.00    +0.000 A 
ATOM     22  C   UNL     1      -0.523  11.579  21.167  0.00  0.00    +0.000 A 
BRANCH  21  23
ATOM     23  C   UNL     1      -1.131  13.234  23.017  0.00  0.00    +0.000 C 
BRANCH  23  24
ATOM     24  S   UNL     1      -2.281  14.522  22.562  0.00  0.00    +0.000 S 
ATOM     25  O   UNL     1      -2.796  15.164  23.760  0.00  0.00    +0.000 OA
ATOM     26  O   UNL     1      -1.713  15.306  21.476  0.00  0.00    +0.000 OA
BRANCH  24  27
ATOM     27  C   UNL     1      -3.658  13.630  21.855  0.00  0.00    +0.000 A 
ATOM     28  C   UNL     1      -3.607  13.228  20.530  0.00  0.00    +0.000 A 
ATOM     29  C   UNL     1      -4.715  12.556  20.025  0.00  0.00    +0.000 A 
ATOM     30  C   UNL     1      -5.811  12.323  20.855  0.00  0.00    +0.000 A 
ATOM     31  C   UNL     1      -5.758  12.765  22.169  0.00  0.00    +0.000 A 
ATOM     32  N   UNL     1      -4.700  13.414  22.700  0.00  0.00    +0.000 NA
ENDBRANCH  24  27
ENDBRANCH  23  24
ENDBRANCH  21  23
ENDBRANCH   1  17
BRANCH   1  33
ATOM     33  C   UNL     1      -0.736  10.176  18.036  0.00  0.00    +0.000 C 
ATOM     34  C   UNL     1      -2.203   9.896  17.813  0.00  0.00    +0.000 C 
ATOM     35  C   UNL     1      -1.735  11.311  18.009  0.00  0.00    +0.000 C 
ENDBRANCH   1  33
TORSDOF 7
ENDMDL
MODEL 6
REMARK VINA RESULT:      -8.0      1.037      1.293
REMARK  Name = 
REMARK  7 active torsions:
REMARK  status: ('A' for Active; 'I' for Inactive)
REMARK    1  A    between atoms: C_6  and  O_7
REMARK    2  A    between atoms: C_8  and  C_9
REMARK    3  A    between atoms: C_9  and  C_10
REMARK    4  A    between atoms: C_9  and  C_26
REMARK    5  A    between atoms: C_14  and  C_15
REMARK    6  A    between atoms: C_15  and  S_16
REMARK    7  A    between atoms: S_16  and  C_19
REMARK                            x       y       z     vdW  Elec       q    Type
REMARK                         _______ _______ _______ _____ _____    ______ ____
ROOT
ATOM      1  C   UNL     1       0.611  10.685  18.896  0.00  0.00    +0.000 C 
ENDROOT
BRANCH   1   8
ATOM      2  O   UNL     1       2.893  12.211  17.841  0.00  0.00    +0.000 OA
ATOM      3  C   UNL     1       2.270  12.652  18.800  0.00  0.00    +0.000 A 
ATOM      4  C   UNL     1       2.448  14.060  19.235  0.00  0.00    +0.000 A 
ATOM      5  C   UNL     1       2.266  14.311  20.540  0.00  0.00    +0.000 A 
ATOM      6  O   UNL     1       1.773  13.347  21.408  0.00  0.00    +0.000 OA
ATOM      7  C   UNL     1       1.138  12.239  20.858  0.00  0.00    +0.000 A 
ATOM      8  C   UNL     1       1.318  11.838  19.582  0.00  0.00    +0.000 A 
ATOM      9  C   UNL     1       2.659  15.616  21.172  0.00  0.00    +0.000 C 
ATOM     10  C   UNL     1       1.562  16.648  21.420  0.00  0.00    +0.000 C 
ATOM     11  C   UNL     1       0.574  17.040  20.311  0.00  0.00    +0.000 C 
ATOM     12  C   UNL     1       0.596  16.345  18.947  0.00  0.00    +0.000 C 
ATOM     13  C   UNL     1       1.953  16.392  18.231  0.00  0.00    +0.000 C 
ATOM     14  C   UNL     1       2.746  15.069  18.166  0.00  0.00    +0.000 C 
BRANCH   7  15
ATOM     15  O   UNL     1       0.281  11.556  21.695  0.00  0.00    +0.000 OA
ATOM     16  H   UNL     1       0.530  11.841  22.585  0.00  0.00    +0.000 HD
ENDBRANCH   7  15
ENDBRANCH   1   8
BRANCH   1  17
ATOM     17  C   UNL     1       1.254   9.322  19.232  0.00  0.00    +0.000 A 
ATOM     18  C   UNL     1       1.120   8.726  20.499  0.00  0.00    +0.000 A 
ATOM     19  C   UNL     1       1.659   7.472  20.772  0.00  0.00    +0.000 A 
ATOM     20  C   UNL     1       2.371   6.796  19.790  0.00  0.00    +0.000 A 
ATOM     21  C   UNL     1       2.570   7.375  18.528  0.00  0.00    +0.000 A 
ATOM     22  C   UNL     1       2.015   8.642  18.263  0.00  0.00    +0.000 A 
BRANCH  21  23
ATOM     23  C   UNL     1       3.430   6.645  17.524  0.00  0.00    +0.000 C 
BRANCH  23  24
ATOM     24  S   UNL     1       4.370   5.336  18.293  0.00  0.00    +0.000 S 
ATOM     25  O   UNL     1       5.223   4.699  17.304  0.00  0.00    +0.000 OA
ATOM     26  O   UNL     1       4.915   5.819  19.554  0.00  0.00    +0.000 OA
BRANCH  24  27
ATOM     27  C   UNL     1       3.132   4.124  18.726  0.00  0.00    +0.000 A 
ATOM     28  C   UNL     1       2.058   3.907  17.878  0.00  0.00    +0.000 A 
ATOM     29  C   UNL     1       1.113   2.967  18.275  0.00  0.00    +0.000 A 
ATOM     30  C   UNL     1       1.279   2.299  19.487  0.00  0.00    +0.000 A 
ATOM     31  C   UNL     1       2.393   2.588  20.261  0.00  0.00    +0.000 A 
ATOM     32  N   UNL     1       3.337   3.487  19.910  0.00  0.00    +0.000 NA
ENDBRANCH  24  27
ENDBRANCH  23  24
ENDBRANCH  21  23
ENDBRANCH   1  17
BRANCH   1  33
ATOM     33  C   UNL     1      -0.905  10.600  19.084  0.00  0.00    +0.000 C 
ATOM     34  C   UNL     1      -1.863  11.665  18.607  0.00  0.00    +0.000 C 
ATOM     35  C   UNL     1      -1.782  10.354  17.876  0.00  0.00    +0.000 C 
ENDBRANCH   1  33
TORSDOF 7
ENDMDL
MODEL 7
REMARK VINA RESULT:      -8.0      3.056      4.397
REMARK  Name = 
REMARK  7 active torsions:
REMARK  status: ('A' for Active; 'I' for Inactive)
REMARK    1  A    between atoms: C_6  and  O_7
REMARK    2  A    between atoms: C_8  and  C_9
REMARK    3  A    between atoms: C_9  and  C_10
REMARK    4  A    between atoms: C_9  and  C_26
REMARK    5  A    between atoms: C_14  and  C_15
REMARK    6  A    between atoms: C_15  and  S_16
REMARK    7  A    between atoms: S_16  and  C_19
REMARK                            x       y       z     vdW  Elec       q    Type
REMARK                         _______ _______ _______ _____ _____    ______ ____
ROOT
ATOM      1  C   UNL     1      -1.168  11.024  17.948  0.00  0.00    +0.000 C 
ENDROOT
BRANCH   1   8
ATOM      2  O   UNL     1      -3.819  11.696  19.030  0.00  0.00    +0.000 OA
ATOM      3  C   UNL     1      -2.839  12.322  19.417  0.00  0.00    +0.000 A 
ATOM      4  C   UNL     1      -2.918  13.186  20.621  0.00  0.00    +0.000 A 
ATOM      5  C   UNL     1      -2.106  14.252  20.649  0.00  0.00    +0.000 A 
ATOM      6  O   UNL     1      -1.124  14.448  19.688  0.00  0.00    +0.000 OA
ATOM      7  C   UNL     1      -0.753  13.361  18.904  0.00  0.00    +0.000 A 
ATOM      8  C   UNL     1      -1.532  12.273  18.730  0.00  0.00    +0.000 A 
ATOM      9  C   UNL     1      -2.250  15.350  21.664  0.00  0.00    +0.000 C 
ATOM     10  C   UNL     1      -1.313  15.338  22.868  0.00  0.00    +0.000 C 
ATOM     11  C   UNL     1      -1.110  14.066  23.704  0.00  0.00    +0.000 C 
ATOM     12  C   UNL     1      -1.770  12.743  23.308  0.00  0.00    +0.000 C 
ATOM     13  C   UNL     1      -3.295  12.813  23.154  0.00  0.00    +0.000 C 
ATOM     14  C   UNL     1      -3.848  12.744  21.713  0.00  0.00    +0.000 C 
BRANCH   7  15
ATOM     15  O   UNL     1       0.487  13.440  18.307  0.00  0.00    +0.000 OA
ATOM     16  H   UNL     1       1.006  14.003  18.897  0.00  0.00    +0.000 HD
ENDBRANCH   7  15
ENDBRANCH   1   8
BRANCH   1  17
ATOM     17  C   UNL     1      -0.197  10.111  18.725  0.00  0.00    +0.000 A 
ATOM     18  C   UNL     1      -0.323   9.894  20.109  0.00  0.00    +0.000 A 
ATOM     19  C   UNL     1       0.526   9.025  20.789  0.00  0.00    +0.000 A 
ATOM     20  C   UNL     1       1.542   8.373  20.102  0.00  0.00    +0.000 A 
ATOM     21  C   UNL     1       1.733   8.596  18.731  0.00  0.00    +0.000 A 
ATOM     22  C   UNL     1       0.864   9.473  18.054  0.00  0.00    +0.000 A 
BRANCH  21  23
ATOM     23  C   UNL     1       2.907   7.938  18.046  0.00  0.00    +0.000 C 
BRANCH  23  24
ATOM     24  S   UNL     1       2.958   6.183  18.374  0.00  0.00    +0.000 S 
ATOM     25  O   UNL     1       3.551   5.946  19.679  0.00  0.00    +0.000 OA
ATOM     26  O   UNL     1       1.677   5.594  18.012  0.00  0.00    +0.000 OA
BRANCH  24  27
ATOM     27  C   UNL     1       4.136   5.564  17.182  0.00  0.00    +0.000 A 
ATOM     28  C   UNL     1       4.347   4.199  17.070  0.00  0.00    +0.000 A 
ATOM     29  C   UNL     1       5.291   3.774  16.142  0.00  0.00    +0.000 A 
ATOM     30  C   UNL     1       5.976   4.720  15.379  0.00  0.00    +0.000 A 
ATOM     31  C   UNL     1       5.686   6.064  15.567  0.00  0.00    +0.000 A 
ATOM     32  N   UNL     1       4.773   6.518  16.452  0.00  0.00    +0.000 NA
ENDBRANCH  24  27
ENDBRANCH  23  24
ENDBRANCH  21  23
ENDBRANCH   1  17
BRANCH   1  33
ATOM     33  C   UNL     1      -2.331  10.194  17.401  0.00  0.00    +0.000 C 
ATOM     34  C   UNL     1      -3.222  10.654  16.271  0.00  0.00    +0.000 C 
ATOM     35  C   UNL     1      -2.207   9.572  16.027  0.00  0.00    +0.000 C 
ENDBRANCH   1  33
TORSDOF 7
ENDMDL
MODEL 8
REMARK VINA RESULT:      -8.0      2.587      4.119
REMARK  Name = 
REMARK  7 active torsions:
REMARK  status: ('A' for Active; 'I' for Inactive)
REMARK    1  A    between atoms: C_6  and  O_7
REMARK    2  A    between atoms: C_8  and  C_9
REMARK    3  A    between atoms: C_9  and  C_10
REMARK    4  A    between atoms: C_9  and  C_26
REMARK    5  A    between atoms: C_14  and  C_15
REMARK    6  A    between atoms: C_15  and  S_16
REMARK    7  A    between atoms: S_16  and  C_19
REMARK                            x       y       z     vdW  Elec       q    Type
REMARK                         _______ _______ _______ _____ _____    ______ ____
ROOT
ATOM      1  C   UNL     1       0.133   9.424  20.526  0.00  0.00    +0.000 C 
ENDROOT
BRANCH   1   8
ATOM      2  O   UNL     1      -1.996  10.483  18.795  0.00  0.00    +0.000 OA
ATOM      3  C   UNL     1      -1.364  11.255  19.506  0.00  0.00    +0.000 A 
ATOM      4  C   UNL     1      -1.846  12.640  19.736  0.00  0.00    +0.000 A 
ATOM      5  C   UNL     1      -0.909  13.571  19.966  0.00  0.00    +0.000 A 
ATOM      6  O   UNL     1       0.426  13.235  20.148  0.00  0.00    +0.000 OA
ATOM      7  C   UNL     1       0.730  11.910  20.443  0.00  0.00    +0.000 A 
ATOM      8  C   UNL     1      -0.100  10.881  20.172  0.00  0.00    +0.000 A 
ATOM      9  C   UNL     1      -1.213  15.041  19.958  0.00  0.00    +0.000 C 
ATOM     10  C   UNL     1      -1.401  15.739  21.302  0.00  0.00    +0.000 C 
ATOM     11  C   UNL     1      -2.333  15.159  22.376  0.00  0.00    +0.000 C 
ATOM     12  C   UNL     1      -3.038  13.815  22.172  0.00  0.00    +0.000 C 
ATOM     13  C   UNL     1      -3.887  13.728  20.896  0.00  0.00    +0.000 C 
ATOM     14  C   UNL     1      -3.332  12.847  19.756  0.00  0.00    +0.000 C 
BRANCH   7  15
ATOM     15  O   UNL     1       1.945  11.691  21.056  0.00  0.00    +0.000 OA
ATOM     16  H   UNL     1       2.170  10.778  20.832  0.00  0.00    +0.000 HD
ENDBRANCH   7  15
ENDBRANCH   1   8
BRANCH   1  17
ATOM     17  C   UNL     1       1.189   8.764  19.614  0.00  0.00    +0.000 A 
ATOM     18  C   UNL     1       1.487   9.264  18.334  0.00  0.00    +0.000 A 
ATOM     19  C   UNL     1       2.481   8.692  17.544  0.00  0.00    +0.000 A 
ATOM     20  C   UNL     1       3.181   7.585  18.006  0.00  0.00    +0.000 A 
ATOM     21  C   UNL     1       2.883   7.026  19.257  0.00  0.00    +0.000 A 
ATOM     22  C   UNL     1       1.880   7.616  20.049  0.00  0.00    +0.000 A 
BRANCH  21  23
ATOM     23  C   UNL     1       3.605   5.768  19.678  0.00  0.00    +0.000 C 
BRANCH  23  24
ATOM     24  S   UNL     1       3.323   4.432  18.526  0.00  0.00    +0.000 S 
ATOM     25  O   UNL     1       3.351   3.163  19.232  0.00  0.00    +0.000 OA
ATOM     26  O   UNL     1       2.212   4.783  17.654  0.00  0.00    +0.000 OA
BRANCH  24  27
ATOM     27  C   UNL     1       4.781   4.450  17.493  0.00  0.00    +0.000 A 
ATOM     28  C   UNL     1       4.654   4.267  16.125  0.00  0.00    +0.000 A 
ATOM     29  C   UNL     1       5.824   4.268  15.372  0.00  0.00    +0.000 A 
ATOM     30  C   UNL     1       7.050   4.445  16.012  0.00  0.00    +0.000 A 
ATOM     31  C   UNL     1       7.065   4.622  17.388  0.00  0.00    +0.000 A 
ATOM     32  N   UNL     1       5.954   4.635  18.154  0.00  0.00    +0.000 NA
ENDBRANCH  24  27
ENDBRANCH  23  24
ENDBRANCH  21  23
ENDBRANCH   1  17
BRANCH   1  33
ATOM     33  C   UNL     1       0.449   9.115  21.990  0.00  0.00    +0.000 C 
ATOM     34  C   UNL     1      -0.105   9.912  23.147  0.00  0.00    +0.000 C 
ATOM     35  C   UNL     1      -0.636   8.534  22.869  0.00  0.00    +0.000 C 
ENDBRANCH   1  33
TORSDOF 7
ENDMDL
MODEL 9
REMARK VINA RESULT:      -7.9      2.535      3.408
REMARK  Name = 
REMARK  7 active torsions:
REMARK  status: ('A' for Active; 'I' for Inactive)
REMARK    1  A    between atoms: C_6  and  O_7
REMARK    2  A    between atoms: C_8  and  C_9
REMARK    3  A    between atoms: C_9  and  C_10
REMARK    4  A    between atoms: C_9  and  C_26
REMARK    5  A    between atoms: C_14  and  C_15
REMARK    6  A    between atoms: C_15  and  S_16
REMARK    7  A    between atoms: S_16  and  C_19
REMARK                            x       y       z     vdW  Elec       q    Type
REMARK                         _______ _______ _______ _____ _____    ______ ____
ROOT
ATOM      1  C   UNL     1       0.794  10.291  18.575  0.00  0.00    +0.000 C 
ENDROOT
BRANCH   1   8
ATOM      2  O   UNL     1       2.906  12.194  17.824  0.00  0.00    +0.000 OA
ATOM      3  C   UNL     1       2.184  12.449  18.782  0.00  0.00    +0.000 A 
ATOM      4  C   UNL     1       2.155  13.812  19.367  0.00  0.00    +0.000 A 
ATOM      5  C   UNL     1       1.878  13.896  20.677  0.00  0.00    +0.000 A 
ATOM      6  O   UNL     1       1.473  12.790  21.411  0.00  0.00    +0.000 OA
ATOM      7  C   UNL     1       1.017  11.677  20.714  0.00  0.00    +0.000 A 
ATOM      8  C   UNL     1       1.309  11.443  19.417  0.00  0.00    +0.000 A 
ATOM      9  C   UNL     1       2.066  15.164  21.461  0.00  0.00    +0.000 C 
ATOM     10  C   UNL     1       0.833  16.018  21.743  0.00  0.00    +0.000 C 
ATOM     11  C   UNL     1      -0.142  16.402  20.619  0.00  0.00    +0.000 C 
ATOM     12  C   UNL     1       0.038  15.867  19.196  0.00  0.00    +0.000 C 
ATOM     13  C   UNL     1       1.410  16.160  18.575  0.00  0.00    +0.000 C 
ATOM     14  C   UNL     1       2.371  14.960  18.426  0.00  0.00    +0.000 C 
BRANCH   7  15
ATOM     15  O   UNL     1       0.216  10.807  21.422  0.00  0.00    +0.000 OA
ATOM     16  H   UNL     1       0.809  10.401  22.069  0.00  0.00    +0.000 HD
ENDBRANCH   7  15
ENDBRANCH   1   8
BRANCH   1  17
ATOM     17  C   UNL     1       1.619   9.002  18.780  0.00  0.00    +0.000 A 
ATOM     18  C   UNL     1       1.458   8.185  19.913  0.00  0.00    +0.000 A 
ATOM     19  C   UNL     1       2.168   6.997  20.059  0.00  0.00    +0.000 A 
ATOM     20  C   UNL     1       3.081   6.613  19.086  0.00  0.00    +0.000 A 
ATOM     21  C   UNL     1       3.308   7.422  17.963  0.00  0.00    +0.000 A 
ATOM     22  C   UNL     1       2.579   8.618  17.824  0.00  0.00    +0.000 A 
BRANCH  21  23
ATOM     23  C   UNL     1       4.377   7.011  16.978  0.00  0.00    +0.000 C 
BRANCH  23  24
ATOM     24  S   UNL     1       4.795   5.283  17.147  0.00  0.00    +0.000 S 
ATOM     25  O   UNL     1       5.774   5.117  18.208  0.00  0.00    +0.000 OA
ATOM     26  O   UNL     1       3.573   4.493  17.123  0.00  0.00    +0.000 OA
BRANCH  24  27
ATOM     27  C   UNL     1       5.653   4.905  15.626  0.00  0.00    +0.000 A 
ATOM     28  C   UNL     1       5.075   4.043  14.708  0.00  0.00    +0.000 A 
ATOM     29  C   UNL     1       5.796   3.767  13.552  0.00  0.00    +0.000 A 
ATOM     30  C   UNL     1       7.048   4.354  13.369  0.00  0.00    +0.000 A 
ATOM     31  C   UNL     1       7.534   5.207  14.349  0.00  0.00    +0.000 A 
ATOM     32  N   UNL     1       6.864   5.506  15.482  0.00  0.00    +0.000 NA
ENDBRANCH  24  27
ENDBRANCH  23  24
ENDBRANCH  21  23
ENDBRANCH   1  17
BRANCH   1  33
ATOM     33  C   UNL     1      -0.698   9.972  18.689  0.00  0.00    +0.000 C 
ATOM     34  C   UNL     1      -1.785  11.009  18.538  0.00  0.00    +0.000 C 
ATOM     35  C   UNL     1      -1.554  10.007  17.442  0.00  0.00    +0.000 C 
ENDBRANCH   1  33
TORSDOF 7
ENDMDL
