MODEL 1
REMARK VINA RESULT:      -7.4      0.000      0.000
REMARK  Name = 
REMARK  7 active torsions:
REMARK  status: ('A' for Active; 'I' for Inactive)
REMARK    1  A    between atoms: C_1  and  O_2
REMARK    2  A    between atoms: O_2  and  C_3
REMARK    3  A    between atoms: C_6  and  C_7
REMARK    4  A    between atoms: C_9  and  C_10
REMARK    5  A    between atoms: N_15  and  S_16
REMARK    6  A    between atoms: S_16  and  C_19
REMARK    7  A    between atoms: C_27  and  C_28
REMARK                            x       y       z     vdW  Elec       q    Type
REMARK                         _______ _______ _______ _____ _____    ______ ____
ROOT
ATOM      1  C   UNL     1       1.367   8.360  19.912  0.00  0.00    +0.000 A 
ATOM      2  C   UNL     1       1.362   6.968  20.314  0.00  0.00    +0.000 A 
ATOM      3  C   UNL     1       2.084   5.978  19.754  0.00  0.00    +0.000 A 
ATOM      4  N   UNL     1       2.934   6.379  18.644  0.00  0.00    +0.000 N 
ATOM      5  C   UNL     1       2.843   7.701  18.103  0.00  0.00    +0.000 A 
ATOM      6  O   UNL     1       3.303   8.007  17.009  0.00  0.00    +0.000 OA
ATOM      7  C   UNL     1       2.111   8.738  18.860  0.00  0.00    +0.000 A 
ENDROOT
BRANCH   1  11
ATOM      8  C   UNL     1      -1.091  11.209  21.972  0.00  0.00    +0.000 A 
ATOM      9  C   UNL     1      -0.202  10.396  22.675  0.00  0.00    +0.000 A 
ATOM     10  C   UNL     1       0.609   9.481  22.000  0.00  0.00    +0.000 A 
ATOM     11  C   UNL     1       0.521   9.354  20.608  0.00  0.00    +0.000 A 
ATOM     12  C   UNL     1      -0.384  10.159  19.905  0.00  0.00    +0.000 A 
ATOM     13  C   UNL     1      -1.188  11.082  20.586  0.00  0.00    +0.000 A 
BRANCH   8  15
ATOM     14  C   UNL     1      -1.208  13.286  23.099  0.00  0.00    +0.000 C 
ATOM     15  O   UNL     1      -1.832  12.057  22.747  0.00  0.00    +0.000 OA
ENDBRANCH   8  15
ENDBRANCH   1  11
BRANCH   3  16
ATOM     16  C   UNL     1       1.992   4.678  20.373  0.00  0.00    +0.000 A 
ATOM     17  C   UNL     1       2.599   4.228  21.548  0.00  0.00    +0.000 A 
ATOM     18  C   UNL     1       2.444   2.827  21.770  0.00  0.00    +0.000 A 
ATOM     19  C   UNL     1       1.669   2.248  20.795  0.00  0.00    +0.000 A 
ATOM     20  S   UNL     1       0.895   3.443  19.854  0.00  0.00    +0.000 S 
ENDBRANCH   3  16
BRANCH   4  21
ATOM     21  S   UNL     1       3.910   5.241  17.817  0.00  0.00    +0.000 S 
ATOM     22  O   UNL     1       3.778   3.936  18.430  0.00  0.00    +0.000 OA
ATOM     23  O   UNL     1       3.683   5.337  16.389  0.00  0.00    +0.000 OA
BRANCH  21  24
ATOM     24  C   UNL     1       5.591   5.770  18.161  0.00  0.00    +0.000 A 
ATOM     25  C   UNL     1       6.291   5.313  19.285  0.00  0.00    +0.000 A 
ATOM     26  C   UNL     1       7.581   5.782  19.541  0.00  0.00    +0.000 A 
ATOM     27  C   UNL     1       8.178   6.695  18.674  0.00  0.00    +0.000 A 
ATOM     28  C   UNL     1       7.484   7.146  17.550  0.00  0.00    +0.000 A 
ATOM     29  C   UNL     1       6.186   6.691  17.293  0.00  0.00    +0.000 A 
ENDBRANCH  21  24
ENDBRANCH   4  21
BRANCH   7  30
ATOM     30  C   UNL     1       2.188  10.081  18.383  0.00  0.00    +0.000 C 
ATOM     31  N   UNL     1       2.287  11.162  17.987  0.00  0.00    +0.000 NA
ENDBRANCH   7  30
TORSDOF 6
ENDMDL
MODEL 2
REMARK VINA RESULT:      -7.4      0.411      1.292
REMARK  Name = 
REMARK  7 active torsions:
REMARK  status: ('A' for Active; 'I' for Inactive)
REMARK    1  A    between atoms: C_1  and  O_2
REMARK    2  A    between atoms: O_2  and  C_3
REMARK    3  A    between atoms: C_6  and  C_7
REMARK    4  A    between atoms: C_9  and  C_10
REMARK    5  A    between atoms: N_15  and  S_16
REMARK    6  A    between atoms: S_16  and  C_19
REMARK    7  A    between atoms: C_27  and  C_28
REMARK                            x       y       z     vdW  Elec       q    Type
REMARK                         _______ _______ _______ _____ _____    ______ ____
ROOT
ATOM      1  C   UNL     1       1.343   8.428  19.766  0.00  0.00    +0.000 A 
ATOM      2  C   UNL     1       1.325   7.048  20.206  0.00  0.00    +0.000 A 
ATOM      3  C   UNL     1       2.071   6.045  19.703  0.00  0.00    +0.000 A 
ATOM      4  N   UNL     1       2.963   6.417  18.616  0.00  0.00    +0.000 N 
ATOM      5  C   UNL     1       2.891   7.723  18.035  0.00  0.00    +0.000 A 
ATOM      6  O   UNL     1       3.392   8.000  16.951  0.00  0.00    +0.000 OA
ATOM      7  C   UNL     1       2.128   8.779  18.733  0.00  0.00    +0.000 A 
ENDROOT
BRANCH   1  11
ATOM      8  C   UNL     1      -1.188  11.389  21.562  0.00  0.00    +0.000 A 
ATOM      9  C   UNL     1      -1.286  11.098  20.201  0.00  0.00    +0.000 A 
ATOM     10  C   UNL     1      -0.472  10.122  19.623  0.00  0.00    +0.000 A 
ATOM     11  C   UNL     1       0.469   9.438  20.400  0.00  0.00    +0.000 A 
ATOM     12  C   UNL     1       0.579   9.742  21.763  0.00  0.00    +0.000 A 
ATOM     13  C   UNL     1      -0.246  10.716  22.341  0.00  0.00    +0.000 A 
BRANCH   8  15
ATOM     14  C   UNL     1      -2.639  12.141  23.273  0.00  0.00    +0.000 C 
ATOM     15  O   UNL     1      -2.034  12.367  22.005  0.00  0.00    +0.000 OA
ENDBRANCH   8  15
ENDBRANCH   1  11
BRANCH   3  16
ATOM     16  C   UNL     1       1.958   4.762  20.354  0.00  0.00    +0.000 A 
ATOM     17  C   UNL     1       2.540   4.339  21.551  0.00  0.00    +0.000 A 
ATOM     18  C   UNL     1       2.370   2.945  21.806  0.00  0.00    +0.000 A 
ATOM     19  C   UNL     1       1.608   2.347  20.833  0.00  0.00    +0.000 A 
ATOM     20  S   UNL     1       0.860   3.522  19.847  0.00  0.00    +0.000 S 
ENDBRANCH   3  16
BRANCH   4  21
ATOM     21  S   UNL     1       3.973   5.260  17.859  0.00  0.00    +0.000 S 
ATOM     22  O   UNL     1       3.872   3.989  18.546  0.00  0.00    +0.000 OA
ATOM     23  O   UNL     1       3.751   5.267  16.427  0.00  0.00    +0.000 OA
BRANCH  21  24
ATOM     24  C   UNL     1       5.637   5.852  18.178  0.00  0.00    +0.000 A 
ATOM     25  C   UNL     1       6.270   6.766  17.326  0.00  0.00    +0.000 A 
ATOM     26  C   UNL     1       7.581   7.169  17.586  0.00  0.00    +0.000 A 
ATOM     27  C   UNL     1       8.258   6.672  18.698  0.00  0.00    +0.000 A 
ATOM     28  C   UNL     1       7.627   5.766  19.551  0.00  0.00    +0.000 A 
ATOM     29  C   UNL     1       6.318   5.348  19.292  0.00  0.00    +0.000 A 
ENDBRANCH  21  24
ENDBRANCH   4  21
BRANCH   7  30
ATOM     30  C   UNL     1       2.220  10.108  18.222  0.00  0.00    +0.000 C 
ATOM     31  N   UNL     1       2.304  11.196  17.844  0.00  0.00    +0.000 NA
ENDBRANCH   7  30
TORSDOF 6
ENDMDL
MODEL 3
REMARK VINA RESULT:      -6.7      5.004     10.752
REMARK  Name = 
REMARK  7 active torsions:
REMARK  status: ('A' for Active; 'I' for Inactive)
REMARK    1  A    between atoms: C_1  and  O_2
REMARK    2  A    between atoms: O_2  and  C_3
REMARK    3  A    between atoms: C_6  and  C_7
REMARK    4  A    between atoms: C_9  and  C_10
REMARK    5  A    between atoms: N_15  and  S_16
REMARK    6  A    between atoms: S_16  and  C_19
REMARK    7  A    between atoms: C_27  and  C_28
REMARK                            x       y       z     vdW  Elec       q    Type
REMARK                         _______ _______ _______ _____ _____    ______ ____
ROOT
ATOM      1  C   UNL     1      -1.450  11.981  20.206  0.00  0.00    +0.000 A 
ATOM      2  C   UNL     1      -2.843  11.795  19.856  0.00  0.00    +0.000 A 
ATOM      3  C   UNL     1      -3.843  12.669  20.087  0.00  0.00    +0.000 A 
ATOM      4  N   UNL     1      -3.451  13.900  20.754  0.00  0.00    +0.000 N 
ATOM      5  C   UNL     1      -2.126  14.054  21.271  0.00  0.00    +0.000 A 
ATOM      6  O   UNL     1      -1.822  14.922  22.082  0.00  0.00    +0.000 OA
ATOM      7  C   UNL     1      -1.079  13.093  20.863  0.00  0.00    +0.000 A 
ENDROOT
BRANCH   1  11
ATOM      8  C   UNL     1       1.443   8.955  19.271  0.00  0.00    +0.000 A 
ATOM      9  C   UNL     1       1.006   9.849  18.293  0.00  0.00    +0.000 A 
ATOM     10  C   UNL     1       0.076  10.844  18.605  0.00  0.00    +0.000 A 
ATOM     11  C   UNL     1      -0.445  10.940  19.901  0.00  0.00    +0.000 A 
ATOM     12  C   UNL     1      -0.018  10.032  20.878  0.00  0.00    +0.000 A 
ATOM     13  C   UNL     1       0.922   9.042  20.562  0.00  0.00    +0.000 A 
BRANCH   8  15
ATOM     14  C   UNL     1       2.419   6.825  19.599  0.00  0.00    +0.000 C 
ATOM     15  O   UNL     1       2.348   8.026  18.839  0.00  0.00    +0.000 OA
ENDBRANCH   8  15
ENDBRANCH   1  11
BRANCH   3  16
ATOM     16  C   UNL     1      -5.144  12.317  19.573  0.00  0.00    +0.000 A 
ATOM     17  C   UNL     1      -6.257  11.842  20.271  0.00  0.00    +0.000 A 
ATOM     18  C   UNL     1      -7.323  11.416  19.423  0.00  0.00    +0.000 A 
ATOM     19  C   UNL     1      -7.029  11.634  18.100  0.00  0.00    +0.000 A 
ATOM     20  S   UNL     1      -5.651  12.630  17.946  0.00  0.00    +0.000 S 
ENDBRANCH   3  16
BRANCH   4  21
ATOM     21  S   UNL     1      -4.602  15.112  21.128  0.00  0.00    +0.000 S 
ATOM     22  O   UNL     1      -3.952  16.228  21.784  0.00  0.00    +0.000 OA
ATOM     23  O   UNL     1      -5.414  15.401  19.964  0.00  0.00    +0.000 OA
BRANCH  21  24
ATOM     24  C   UNL     1      -5.647  14.358  22.377  0.00  0.00    +0.000 A 
ATOM     25  C   UNL     1      -5.145  13.423  23.292  0.00  0.00    +0.000 A 
ATOM     26  C   UNL     1      -6.000  12.827  24.220  0.00  0.00    +0.000 A 
ATOM     27  C   UNL     1      -7.351  13.168  24.246  0.00  0.00    +0.000 A 
ATOM     28  C   UNL     1      -7.852  14.103  23.339  0.00  0.00    +0.000 A 
ATOM     29  C   UNL     1      -7.004  14.696  22.398  0.00  0.00    +0.000 A 
ENDBRANCH  21  24
ENDBRANCH   4  21
BRANCH   7  30
ATOM     30  C   UNL     1       0.264  13.375  21.253  0.00  0.00    +0.000 C 
ATOM     31  N   UNL     1       1.341  13.639  21.576  0.00  0.00    +0.000 NA
ENDBRANCH   7  30
TORSDOF 6
ENDMDL
MODEL 4
REMARK VINA RESULT:      -6.7      5.456     11.503
REMARK  Name = 
REMARK  7 active torsions:
REMARK  status: ('A' for Active; 'I' for Inactive)
REMARK    1  A    between atoms: C_1  and  O_2
REMARK    2  A    between atoms: O_2  and  C_3
REMARK    3  A    between atoms: C_6  and  C_7
REMARK    4  A    between atoms: C_9  and  C_10
REMARK    5  A    between atoms: N_15  and  S_16
REMARK    6  A    between atoms: S_16  and  C_19
REMARK    7  A    between atoms: C_27  and  C_28
REMARK                            x       y       z     vdW  Elec       q    Type
REMARK                         _______ _______ _______ _____ _____    ______ ____
ROOT
ATOM      1  C   UNL     1      -2.047  12.303  20.950  0.00  0.00    +0.000 A 
ATOM      2  C   UNL     1      -3.077  13.158  20.395  0.00  0.00    +0.000 A 
ATOM      3  C   UNL     1      -4.128  13.670  21.065  0.00  0.00    +0.000 A 
ATOM      4  N   UNL     1      -4.206  13.308  22.471  0.00  0.00    +0.000 N 
ATOM      5  C   UNL     1      -3.314  12.334  23.019  0.00  0.00    +0.000 A 
ATOM      6  O   UNL     1      -3.510  11.779  24.094  0.00  0.00    +0.000 OA
ATOM      7  C   UNL     1      -2.129  11.923  22.236  0.00  0.00    +0.000 A 
ENDROOT
BRANCH   1  11
ATOM      8  C   UNL     1       1.144  10.795  18.511  0.00  0.00    +0.000 A 
ATOM      9  C   UNL     1      -0.102  10.166  18.524  0.00  0.00    +0.000 A 
ATOM     10  C   UNL     1      -1.144  10.669  19.306  0.00  0.00    +0.000 A 
ATOM     11  C   UNL     1      -0.942  11.800  20.106  0.00  0.00    +0.000 A 
ATOM     12  C   UNL     1       0.313  12.421  20.105  0.00  0.00    +0.000 A 
ATOM     13  C   UNL     1       1.353  11.918  19.311  0.00  0.00    +0.000 A 
BRANCH   8  15
ATOM     14  C   UNL     1       2.191   8.788  17.824  0.00  0.00    +0.000 C 
ATOM     15  O   UNL     1       2.080  10.202  17.711  0.00  0.00    +0.000 OA
ENDBRANCH   8  15
ENDBRANCH   1  11
BRANCH   3  16
ATOM     16  C   UNL     1      -4.985  14.572  20.334  0.00  0.00    +0.000 A 
ATOM     17  C   UNL     1      -6.092  14.269  19.538  0.00  0.00    +0.000 A 
ATOM     18  C   UNL     1      -6.596  15.389  18.811  0.00  0.00    +0.000 A 
ATOM     19  C   UNL     1      -5.906  16.536  19.117  0.00  0.00    +0.000 A 
ATOM     20  S   UNL     1      -4.918  16.297  20.487  0.00  0.00    +0.000 S 
ENDBRANCH   3  16
BRANCH   4  21
ATOM     21  S   UNL     1      -5.485  13.870  23.463  0.00  0.00    +0.000 S 
ATOM     22  O   UNL     1      -6.606  14.278  22.642  0.00  0.00    +0.000 OA
ATOM     23  O   UNL     1      -5.744  12.918  24.525  0.00  0.00    +0.000 OA
BRANCH  21  24
ATOM     24  C   UNL     1      -4.845  15.378  24.195  0.00  0.00    +0.000 A 
ATOM     25  C   UNL     1      -5.644  16.519  24.348  0.00  0.00    +0.000 A 
ATOM     26  C   UNL     1      -5.097  17.686  24.883  0.00  0.00    +0.000 A 
ATOM     27  C   UNL     1      -3.760  17.717  25.274  0.00  0.00    +0.000 A 
ATOM     28  C   UNL     1      -2.964  16.579  25.128  0.00  0.00    +0.000 A 
ATOM     29  C   UNL     1      -3.501  15.409  24.582  0.00  0.00    +0.000 A 
ENDBRANCH  21  24
ENDBRANCH   4  21
BRANCH   7  30
ATOM     30  C   UNL     1      -1.170  11.085  22.880  0.00  0.00    +0.000 C 
ATOM     31  N   UNL     1      -0.369  10.415  23.372  0.00  0.00    +0.000 NA
ENDBRANCH   7  30
TORSDOF 6
ENDMDL
MODEL 5
REMARK VINA RESULT:      -6.6      8.298     10.203
REMARK  Name = 
REMARK  7 active torsions:
REMARK  status: ('A' for Active; 'I' for Inactive)
REMARK    1  A    between atoms: C_1  and  O_2
REMARK    2  A    between atoms: O_2  and  C_3
REMARK    3  A    between atoms: C_6  and  C_7
REMARK    4  A    between atoms: C_9  and  C_10
REMARK    5  A    between atoms: N_15  and  S_16
REMARK    6  A    between atoms: S_16  and  C_19
REMARK    7  A    between atoms: C_27  and  C_28
REMARK                            x       y       z     vdW  Elec       q    Type
REMARK                         _______ _______ _______ _____ _____    ______ ____
ROOT
ATOM      1  C   UNL     1       7.279  13.238  22.824  0.00  0.00    +0.000 A 
ATOM      2  C   UNL     1       8.374  12.771  21.998  0.00  0.00    +0.000 A 
ATOM      3  C   UNL     1       8.718  13.256  20.789  0.00  0.00    +0.000 A 
ATOM      4  N   UNL     1       7.891  14.347  20.297  0.00  0.00    +0.000 N 
ATOM      5  C   UNL     1       6.701  14.725  20.996  0.00  0.00    +0.000 A 
ATOM      6  O   UNL     1       5.823  15.417  20.493  0.00  0.00    +0.000 OA
ATOM      7  C   UNL     1       6.478  14.213  22.365  0.00  0.00    +0.000 A 
ENDROOT
BRANCH   1  11
ATOM      8  C   UNL     1       6.420  11.432  26.619  0.00  0.00    +0.000 A 
ATOM      9  C   UNL     1       5.761  11.010  25.463  0.00  0.00    +0.000 A 
ATOM     10  C   UNL     1       6.055  11.589  24.227  0.00  0.00    +0.000 A 
ATOM     11  C   UNL     1       7.001  12.616  24.137  0.00  0.00    +0.000 A 
ATOM     12  C   UNL     1       7.650  13.051  25.299  0.00  0.00    +0.000 A 
ATOM     13  C   UNL     1       7.358  12.461  26.536  0.00  0.00    +0.000 A 
BRANCH   8  15
ATOM     14  C   UNL     1       7.076  10.516  28.699  0.00  0.00    +0.000 C 
ATOM     15  O   UNL     1       6.038  10.793  27.765  0.00  0.00    +0.000 OA
ENDBRANCH   8  15
ENDBRANCH   1  11
BRANCH   3  16
ATOM     16  C   UNL     1       9.902  12.700  20.179  0.00  0.00    +0.000 A 
ATOM     17  C   UNL     1      11.233  13.091  20.346  0.00  0.00    +0.000 A 
ATOM     18  C   UNL     1      12.133  12.445  19.446  0.00  0.00    +0.000 A 
ATOM     19  C   UNL     1      11.483  11.530  18.657  0.00  0.00    +0.000 A 
ATOM     20  S   UNL     1       9.906  11.242  19.243  0.00  0.00    +0.000 S 
ENDBRANCH   3  16
BRANCH   4  21
ATOM     21  S   UNL     1       8.189  15.071  18.774  0.00  0.00    +0.000 S 
ATOM     22  O   UNL     1       8.427  14.049  17.777  0.00  0.00    +0.000 OA
ATOM     23  O   UNL     1       7.171  16.062  18.488  0.00  0.00    +0.000 OA
BRANCH  21  24
ATOM     24  C   UNL     1       9.759  15.915  18.988  0.00  0.00    +0.000 A 
ATOM     25  C   UNL     1      10.760  15.866  18.010  0.00  0.00    +0.000 A 
ATOM     26  C   UNL     1      11.984  16.500  18.232  0.00  0.00    +0.000 A 
ATOM     27  C   UNL     1      12.207  17.192  19.421  0.00  0.00    +0.000 A 
ATOM     28  C   UNL     1      11.207  17.247  20.394  0.00  0.00    +0.000 A 
ATOM     29  C   UNL     1       9.983  16.604  20.184  0.00  0.00    +0.000 A 
ENDBRANCH  21  24
ENDBRANCH   4  21
BRANCH   7  30
ATOM     30  C   UNL     1       5.374  14.746  23.097  0.00  0.00    +0.000 C 
ATOM     31  N   UNL     1       4.464  15.142  23.686  0.00  0.00    +0.000 NA
ENDBRANCH   7  30
TORSDOF 6
ENDMDL
MODEL 6
REMARK VINA RESULT:      -6.6      8.346     10.100
REMARK  Name = 
REMARK  7 active torsions:
REMARK  status: ('A' for Active; 'I' for Inactive)
REMARK    1  A    between atoms: C_1  and  O_2
REMARK    2  A    between atoms: O_2  and  C_3
REMARK    3  A    between atoms: C_6  and  C_7
REMARK    4  A    between atoms: C_9  and  C_10
REMARK    5  A    between atoms: N_15  and  S_16
REMARK    6  A    between atoms: S_16  and  C_19
REMARK    7  A    between atoms: C_27  and  C_28
REMARK                            x       y       z     vdW  Elec       q    Type
REMARK                         _______ _______ _______ _____ _____    ______ ____
ROOT
ATOM      1  C   UNL     1       5.616  15.686  19.967  0.00  0.00    +0.000 A 
ATOM      2  C   UNL     1       6.892  16.043  19.384  0.00  0.00    +0.000 A 
ATOM      3  C   UNL     1       8.098  15.578  19.765  0.00  0.00    +0.000 A 
ATOM      4  N   UNL     1       8.078  14.633  20.871  0.00  0.00    +0.000 N 
ATOM      5  C   UNL     1       6.866  14.383  21.589  0.00  0.00    +0.000 A 
ATOM      6  O   UNL     1       6.841  13.840  22.687  0.00  0.00    +0.000 OA
ATOM      7  C   UNL     1       5.584  14.850  21.019  0.00  0.00    +0.000 A 
ENDROOT
BRANCH   1  11
ATOM      8  C   UNL     1       1.945  17.385  18.540  0.00  0.00    +0.000 A 
ATOM      9  C   UNL     1       2.454  17.737  19.790  0.00  0.00    +0.000 A 
ATOM     10  C   UNL     1       3.658  17.194  20.245  0.00  0.00    +0.000 A 
ATOM     11  C   UNL     1       4.357  16.272  19.458  0.00  0.00    +0.000 A 
ATOM     12  C   UNL     1       3.837  15.906  18.211  0.00  0.00    +0.000 A 
ATOM     13  C   UNL     1       2.634  16.460  17.755  0.00  0.00    +0.000 A 
BRANCH   8  15
ATOM     14  C   UNL     1      -0.369  17.113  18.129  0.00  0.00    +0.000 C 
ATOM     15  O   UNL     1       0.757  17.978  18.213  0.00  0.00    +0.000 OA
ENDBRANCH   8  15
ENDBRANCH   1  11
BRANCH   3  16
ATOM     16  C   UNL     1       9.234  16.001  18.984  0.00  0.00    +0.000 A 
ATOM     17  C   UNL     1       9.610  15.594  17.702  0.00  0.00    +0.000 A 
ATOM     18  C   UNL     1      10.894  16.074  17.304  0.00  0.00    +0.000 A 
ATOM     19  C   UNL     1      11.443  16.889  18.262  0.00  0.00    +0.000 A 
ATOM     20  S   UNL     1      10.276  17.310  19.435  0.00  0.00    +0.000 S 
ENDBRANCH   3  16
BRANCH   4  21
ATOM     21  S   UNL     1       9.526  13.953  21.484  0.00  0.00    +0.000 S 
ATOM     22  O   UNL     1      10.470  15.003  21.805  0.00  0.00    +0.000 OA
ATOM     23  O   UNL     1       9.220  12.987  22.520  0.00  0.00    +0.000 OA
BRANCH  21  24
ATOM     24  C   UNL     1      10.229  13.079  20.083  0.00  0.00    +0.000 A 
ATOM     25  C   UNL     1      11.574  13.229  19.721  0.00  0.00    +0.000 A 
ATOM     26  C   UNL     1      12.072  12.566  18.599  0.00  0.00    +0.000 A 
ATOM     27  C   UNL     1      11.237  11.745  17.843  0.00  0.00    +0.000 A 
ATOM     28  C   UNL     1       9.898  11.590  18.206  0.00  0.00    +0.000 A 
ATOM     29  C   UNL     1       9.388  12.261  19.322  0.00  0.00    +0.000 A 
ENDBRANCH  21  24
ENDBRANCH   4  21
BRANCH   7  30
ATOM     30  C   UNL     1       4.383  14.433  21.667  0.00  0.00    +0.000 C 
ATOM     31  N   UNL     1       3.414  14.126  22.215  0.00  0.00    +0.000 NA
ENDBRANCH   7  30
TORSDOF 6
ENDMDL
MODEL 7
REMARK VINA RESULT:      -6.5      4.993     10.814
REMARK  Name = 
REMARK  7 active torsions:
REMARK  status: ('A' for Active; 'I' for Inactive)
REMARK    1  A    between atoms: C_1  and  O_2
REMARK    2  A    between atoms: O_2  and  C_3
REMARK    3  A    between atoms: C_6  and  C_7
REMARK    4  A    between atoms: C_9  and  C_10
REMARK    5  A    between atoms: N_15  and  S_16
REMARK    6  A    between atoms: S_16  and  C_19
REMARK    7  A    between atoms: C_27  and  C_28
REMARK                            x       y       z     vdW  Elec       q    Type
REMARK                         _______ _______ _______ _____ _____    ______ ____
ROOT
ATOM      1  C   UNL     1      -1.471  11.985  20.151  0.00  0.00    +0.000 A 
ATOM      2  C   UNL     1      -2.851  11.832  19.738  0.00  0.00    +0.000 A 
ATOM      3  C   UNL     1      -3.850  12.707  19.967  0.00  0.00    +0.000 A 
ATOM      4  N   UNL     1      -3.472  13.903  20.704  0.00  0.00    +0.000 N 
ATOM      5  C   UNL     1      -2.167  14.017  21.279  0.00  0.00    +0.000 A 
ATOM      6  O   UNL     1      -1.887  14.844  22.140  0.00  0.00    +0.000 OA
ATOM      7  C   UNL     1      -1.115  13.062  20.871  0.00  0.00    +0.000 A 
ENDROOT
BRANCH   1  11
ATOM      8  C   UNL     1       1.425   8.967  19.198  0.00  0.00    +0.000 A 
ATOM      9  C   UNL     1       1.016   9.891  18.236  0.00  0.00    +0.000 A 
ATOM     10  C   UNL     1       0.086  10.883  18.554  0.00  0.00    +0.000 A 
ATOM     11  C   UNL     1      -0.466  10.946  19.839  0.00  0.00    +0.000 A 
ATOM     12  C   UNL     1      -0.069  10.007  20.799  0.00  0.00    +0.000 A 
ATOM     13  C   UNL     1       0.873   9.020  20.478  0.00  0.00    +0.000 A 
BRANCH   8  15
ATOM     14  C   UNL     1       2.434   6.854  19.534  0.00  0.00    +0.000 C 
ATOM     15  O   UNL     1       2.333   8.044  18.761  0.00  0.00    +0.000 OA
ENDBRANCH   8  15
ENDBRANCH   1  11
BRANCH   3  16
ATOM     16  C   UNL     1      -5.133  12.394  19.387  0.00  0.00    +0.000 A 
ATOM     17  C   UNL     1      -5.545  12.533  18.060  0.00  0.00    +0.000 A 
ATOM     18  C   UNL     1      -6.941  12.305  17.869  0.00  0.00    +0.000 A 
ATOM     19  C   UNL     1      -7.552  11.934  19.041  0.00  0.00    +0.000 A 
ATOM     20  S   UNL     1      -6.391  11.555  20.232  0.00  0.00    +0.000 S 
ENDBRANCH   3  16
BRANCH   4  21
ATOM     21  S   UNL     1      -4.623  15.111  21.086  0.00  0.00    +0.000 S 
ATOM     22  O   UNL     1      -3.984  16.199  21.796  0.00  0.00    +0.000 OA
ATOM     23  O   UNL     1      -5.401  15.445  19.909  0.00  0.00    +0.000 OA
BRANCH  21  24
ATOM     24  C   UNL     1      -5.709  14.325  22.279  0.00  0.00    +0.000 A 
ATOM     25  C   UNL     1      -7.080  14.606  22.325  0.00  0.00    +0.000 A 
ATOM     26  C   UNL     1      -7.883  14.006  23.296  0.00  0.00    +0.000 A 
ATOM     27  C   UNL     1      -7.325  13.119  24.214  0.00  0.00    +0.000 A 
ATOM     28  C   UNL     1      -5.960  12.833  24.166  0.00  0.00    +0.000 A 
ATOM     29  C   UNL     1      -5.146  13.439  23.204  0.00  0.00    +0.000 A 
ENDBRANCH  21  24
ENDBRANCH   4  21
BRANCH   7  30
ATOM     30  C   UNL     1       0.215  13.309  21.327  0.00  0.00    +0.000 C 
ATOM     31  N   UNL     1       1.297  13.471  21.694  0.00  0.00    +0.000 NA
ENDBRANCH   7  30
TORSDOF 6
ENDMDL
MODEL 8
REMARK VINA RESULT:      -6.4      8.513     10.350
REMARK  Name = 
REMARK  7 active torsions:
REMARK  status: ('A' for Active; 'I' for Inactive)
REMARK    1  A    between atoms: C_1  and  O_2
REMARK    2  A    between atoms: O_2  and  C_3
REMARK    3  A    between atoms: C_6  and  C_7
REMARK    4  A    between atoms: C_9  and  C_10
REMARK    5  A    between atoms: N_15  and  S_16
REMARK    6  A    between atoms: S_16  and  C_19
REMARK    7  A    between atoms: C_27  and  C_28
REMARK                            x       y       z     vdW  Elec       q    Type
REMARK                         _______ _______ _______ _____ _____    ______ ____
ROOT
ATOM      1  C   UNL     1       5.588  15.767  19.895  0.00  0.00    +0.000 A 
ATOM      2  C   UNL     1       6.746  16.248  19.171  0.00  0.00    +0.000 A 
ATOM      3  C   UNL     1       8.034  15.978  19.464  0.00  0.00    +0.000 A 
ATOM      4  N   UNL     1       8.242  15.126  20.624  0.00  0.00    +0.000 N 
ATOM      5  C   UNL     1       7.144  14.769  21.468  0.00  0.00    +0.000 A 
ATOM      6  O   UNL     1       7.289  14.312  22.595  0.00  0.00    +0.000 OA
ATOM      7  C   UNL     1       5.765  15.015  20.995  0.00  0.00    +0.000 A 
ENDROOT
BRANCH   1  11
ATOM      8  C   UNL     1       1.634  16.833  18.619  0.00  0.00    +0.000 A 
ATOM      9  C   UNL     1       2.306  15.760  18.034  0.00  0.00    +0.000 A 
ATOM     10  C   UNL     1       3.587  15.405  18.463  0.00  0.00    +0.000 A 
ATOM     11  C   UNL     1       4.220  16.138  19.473  0.00  0.00    +0.000 A 
ATOM     12  C   UNL     1       3.552  17.226  20.048  0.00  0.00    +0.000 A 
ATOM     13  C   UNL     1       2.263  17.572  19.621  0.00  0.00    +0.000 A 
BRANCH   8  15
ATOM     14  C   UNL     1       0.191  18.383  17.565  0.00  0.00    +0.000 C 
ATOM     15  O   UNL     1       0.391  17.083  18.107  0.00  0.00    +0.000 OA
ENDBRANCH   8  15
ENDBRANCH   1  11
BRANCH   3  16
ATOM     16  C   UNL     1       9.028  16.490  18.552  0.00  0.00    +0.000 A 
ATOM     17  C   UNL     1       9.639  15.843  17.476  0.00  0.00    +0.000 A 
ATOM     18  C   UNL     1      10.716  16.583  16.901  0.00  0.00    +0.000 A 
ATOM     19  C   UNL     1      10.863  17.806  17.508  0.00  0.00    +0.000 A 
ATOM     20  S   UNL     1       9.517  18.152  18.499  0.00  0.00    +0.000 S 
ENDBRANCH   3  16
BRANCH   4  21
ATOM     21  S   UNL     1       9.818  14.694  21.136  0.00  0.00    +0.000 S 
ATOM     22  O   UNL     1      10.715  15.821  20.986  0.00  0.00    +0.000 OA
ATOM     23  O   UNL     1       9.759  14.053  22.435  0.00  0.00    +0.000 OA
BRANCH  21  24
ATOM     24  C   UNL     1      10.358  13.481  19.928  0.00  0.00    +0.000 A 
ATOM     25  C   UNL     1      11.682  13.433  19.474  0.00  0.00    +0.000 A 
ATOM     26  C   UNL     1      12.052  12.502  18.502  0.00  0.00    +0.000 A 
ATOM     27  C   UNL     1      11.109  11.613  17.990  0.00  0.00    +0.000 A 
ATOM     28  C   UNL     1       9.790  11.655  18.446  0.00  0.00    +0.000 A 
ATOM     29  C   UNL     1       9.409  12.593  19.412  0.00  0.00    +0.000 A 
ENDBRANCH  21  24
ENDBRANCH   4  21
BRANCH   7  30
ATOM     30  C   UNL     1       4.694  14.491  21.780  0.00  0.00    +0.000 C 
ATOM     31  N   UNL     1       3.805  14.071  22.384  0.00  0.00    +0.000 NA
ENDBRANCH   7  30
TORSDOF 6
ENDMDL
MODEL 9
REMARK VINA RESULT:      -6.4      7.811     11.914
REMARK  Name = 
REMARK  7 active torsions:
REMARK  status: ('A' for Active; 'I' for Inactive)
REMARK    1  A    between atoms: C_1  and  O_2
REMARK    2  A    between atoms: O_2  and  C_3
REMARK    3  A    between atoms: C_6  and  C_7
REMARK    4  A    between atoms: C_9  and  C_10
REMARK    5  A    between atoms: N_15  and  S_16
REMARK    6  A    between atoms: S_16  and  C_19
REMARK    7  A    between atoms: C_27  and  C_28
REMARK                            x       y       z     vdW  Elec       q    Type
REMARK                         _______ _______ _______ _____ _____    ______ ____
ROOT
ATOM      1  C   UNL     1      -4.235  11.941  19.446  0.00  0.00    +0.000 A 
ATOM      2  C   UNL     1      -3.393  12.853  20.192  0.00  0.00    +0.000 A 
ATOM      3  C   UNL     1      -3.684  13.404  21.387  0.00  0.00    +0.000 A 
ATOM      4  N   UNL     1      -4.971  13.027  21.949  0.00  0.00    +0.000 N 
ATOM      5  C   UNL     1      -5.906  12.269  21.175  0.00  0.00    +0.000 A 
ATOM      6  O   UNL     1      -7.092  12.173  21.467  0.00  0.00    +0.000 OA
ATOM      7  C   UNL     1      -5.446  11.618  19.929  0.00  0.00    +0.000 A 
ENDROOT
BRANCH   1  11
ATOM      8  C   UNL     1      -3.030  10.389  15.633  0.00  0.00    +0.000 A 
ATOM      9  C   UNL     1      -4.119  11.255  15.738  0.00  0.00    +0.000 A 
ATOM     10  C   UNL     1      -4.498  11.772  16.978  0.00  0.00    +0.000 A 
ATOM     11  C   UNL     1      -3.802  11.407  18.137  0.00  0.00    +0.000 A 
ATOM     12  C   UNL     1      -2.720  10.524  18.033  0.00  0.00    +0.000 A 
ATOM     13  C   UNL     1      -2.337  10.016  16.785  0.00  0.00    +0.000 A 
BRANCH   8  15
ATOM     14  C   UNL     1      -3.867   9.934  13.467  0.00  0.00    +0.000 C 
ATOM     15  O   UNL     1      -2.764   9.948  14.367  0.00  0.00    +0.000 OA
ENDBRANCH   8  15
ENDBRANCH   1  11
BRANCH   3  16
ATOM     16  C   UNL     1      -2.659  14.218  21.993  0.00  0.00    +0.000 A 
ATOM     17  C   UNL     1      -2.581  15.611  22.064  0.00  0.00    +0.000 A 
ATOM     18  C   UNL     1      -1.335  16.088  22.572  0.00  0.00    +0.000 A 
ATOM     19  C   UNL     1      -0.514  15.051  22.938  0.00  0.00    +0.000 A 
ATOM     20  S   UNL     1      -1.378  13.580  22.971  0.00  0.00    +0.000 S 
ENDBRANCH   3  16
BRANCH   4  21
ATOM     21  S   UNL     1      -5.497  13.644  23.458  0.00  0.00    +0.000 S 
ATOM     22  O   UNL     1      -6.731  12.999  23.855  0.00  0.00    +0.000 OA
ATOM     23  O   UNL     1      -4.401  13.634  24.406  0.00  0.00    +0.000 OA
BRANCH  21  24
ATOM     24  C   UNL     1      -5.931  15.350  23.109  0.00  0.00    +0.000 A 
ATOM     25  C   UNL     1      -6.518  15.727  21.895  0.00  0.00    +0.000 A 
ATOM     26  C   UNL     1      -6.801  17.071  21.645  0.00  0.00    +0.000 A 
ATOM     27  C   UNL     1      -6.512  18.037  22.607  0.00  0.00    +0.000 A 
ATOM     28  C   UNL     1      -5.933  17.662  23.820  0.00  0.00    +0.000 A 
ATOM     29  C   UNL     1      -5.635  16.319  24.073  0.00  0.00    +0.000 A 
ENDBRANCH  21  24
ENDBRANCH   4  21
BRANCH   7  30
ATOM     30  C   UNL     1      -6.352  10.730  19.276  0.00  0.00    +0.000 C 
ATOM     31  N   UNL     1      -7.076  10.028  18.713  0.00  0.00    +0.000 NA
ENDBRANCH   7  30
TORSDOF 6
ENDMDL
