MODEL 1
REMARK VINA RESULT:      -8.2      0.000      0.000
REMARK  Name = 
REMARK  4 active torsions:
REMARK  status: ('A' for Active; 'I' for Inactive)
REMARK    1  A    between atoms: C_1  and  C_2
REMARK    2  A    between atoms: N_5  and  C_6
REMARK    3  A    between atoms: N_9  and  S_10
REMARK    4  A    between atoms: S_10  and  C_13
REMARK                            x       y       z     vdW  Elec       q    Type
REMARK                         _______ _______ _______ _____ _____    ______ ____
ROOT
ATOM      1  C   UNL     1       2.888   5.587  18.511  0.00  0.00    +0.000 C 
ATOM      2  C   UNL     1       3.291   6.635  17.464  0.00  0.00    +0.000 C 
ATOM      3  C   UNL     1       4.730   6.593  16.980  0.00  0.00    +0.000 C 
ATOM      4  N   UNL     1       5.743   6.306  18.027  0.00  0.00    +0.000 NA
ATOM      5  C   UNL     1       5.343   5.580  19.256  0.00  0.00    +0.000 C 
ATOM      6  C   UNL     1       3.890   5.732  19.659  0.00  0.00    +0.000 C 
ENDROOT
BRANCH   1  11
ATOM      7  C   UNL     1       1.531   2.384  21.795  0.00  0.00    +0.000 C 
ATOM      8  C   UNL     1       1.739   2.321  20.278  0.00  0.00    +0.000 C 
ATOM      9  C   UNL     1       3.213   2.611  19.949  0.00  0.00    +0.000 C 
ATOM     10  C   UNL     1       3.460   3.154  18.545  0.00  0.00    +0.000 C 
ATOM     11  N   UNL     1       2.527   4.206  18.148  0.00  0.00    +0.000 NA
ATOM     12  C   UNL     1       1.164   3.703  18.193  0.00  0.00    +0.000 C 
ATOM     13  C   UNL     1       0.731   3.238  19.572  0.00  0.00    +0.000 C 
ENDBRANCH   1  11
BRANCH   4  14
ATOM     14  S   UNL     1       7.284   5.793  17.435  0.00  0.00    +0.000 S 
ATOM     15  O   UNL     1       8.067   6.963  17.098  0.00  0.00    +0.000 OA
ATOM     16  O   UNL     1       7.809   4.768  18.315  0.00  0.00    +0.000 OA
BRANCH  14  17
ATOM     17  C   UNL     1       6.841   5.026  15.906  0.00  0.00    +0.000 A 
ATOM     18  C   UNL     1       5.860   4.031  15.929  0.00  0.00    +0.000 A 
ATOM     19  C   UNL     1       5.485   3.417  14.741  0.00  0.00    +0.000 A 
ATOM     20  C   UNL     1       6.073   3.801  13.531  0.00  0.00    +0.000 A 
ATOM     21 BR   UNL     1       5.527   2.878  11.966  0.00  0.00    +0.000 Br
ATOM     22  C   UNL     1       7.031   4.827  13.512  0.00  0.00    +0.000 A 
ATOM     23 CL   UNL     1       7.779   5.373  12.055  0.00  0.00    +0.000 Cl
ATOM     24  C   UNL     1       7.414   5.447  14.701  0.00  0.00    +0.000 A 
ENDBRANCH  14  17
ENDBRANCH   4  14
TORSDOF 3
ENDMDL
MODEL 2
REMARK VINA RESULT:      -7.5      6.417      7.898
REMARK  Name = 
REMARK  4 active torsions:
REMARK  status: ('A' for Active; 'I' for Inactive)
REMARK    1  A    between atoms: C_1  and  C_2
REMARK    2  A    between atoms: N_5  and  C_6
REMARK    3  A    between atoms: N_9  and  S_10
REMARK    4  A    between atoms: S_10  and  C_13
REMARK                            x       y       z     vdW  Elec       q    Type
REMARK                         _______ _______ _______ _____ _____    ______ ____
ROOT
ATOM      1  C   UNL     1       2.501   5.890  19.489  0.00  0.00    +0.000 C 
ATOM      2  C   UNL     1       2.324   6.699  20.781  0.00  0.00    +0.000 C 
ATOM      3  C   UNL     1       1.465   7.948  20.687  0.00  0.00    +0.000 C 
ATOM      4  N   UNL     1       1.638   8.746  19.447  0.00  0.00    +0.000 NA
ATOM      5  C   UNL     1       2.145   8.090  18.218  0.00  0.00    +0.000 C 
ATOM      6  C   UNL     1       3.025   6.876  18.442  0.00  0.00    +0.000 C 
ENDROOT
BRANCH   1  11
ATOM      7  C   UNL     1       3.611   1.349  18.472  0.00  0.00    +0.000 C 
ATOM      8  C   UNL     1       2.316   2.166  18.389  0.00  0.00    +0.000 C 
ATOM      9  C   UNL     1       2.500   3.318  17.387  0.00  0.00    +0.000 C 
ATOM     10  C   UNL     1       1.583   4.515  17.614  0.00  0.00    +0.000 C 
ATOM     11  N   UNL     1       1.491   4.929  19.012  0.00  0.00    +0.000 NA
ATOM     12  C   UNL     1       0.992   3.832  19.824  0.00  0.00    +0.000 C 
ATOM     13  C   UNL     1       1.880   2.600  19.795  0.00  0.00    +0.000 C 
ENDBRANCH   1  11
BRANCH   4  14
ATOM     14  S   UNL     1       0.366   9.867  19.113  0.00  0.00    +0.000 S 
ATOM     15  O   UNL     1      -0.025   9.729  17.726  0.00  0.00    +0.000 OA
ATOM     16  O   UNL     1      -0.614   9.799  20.178  0.00  0.00    +0.000 OA
BRANCH  14  17
ATOM     17  C   UNL     1       1.211  11.414  19.247  0.00  0.00    +0.000 A 
ATOM     18  C   UNL     1       2.056  11.794  18.200  0.00  0.00    +0.000 A 
ATOM     19  C   UNL     1       2.727  13.008  18.273  0.00  0.00    +0.000 A 
ATOM     20  C   UNL     1       2.546  13.850  19.377  0.00  0.00    +0.000 A 
ATOM     21 BR   UNL     1       3.534  15.469  19.407  0.00  0.00    +0.000 Br
ATOM     22  C   UNL     1       1.667  13.477  20.406  0.00  0.00    +0.000 A 
ATOM     23 CL   UNL     1       1.371  14.476  21.783  0.00  0.00    +0.000 Cl
ATOM     24  C   UNL     1       0.991  12.259  20.340  0.00  0.00    +0.000 A 
ENDBRANCH  14  17
ENDBRANCH   4  14
TORSDOF 3
ENDMDL
MODEL 3
REMARK VINA RESULT:      -7.5      0.704      1.106
REMARK  Name = 
REMARK  4 active torsions:
REMARK  status: ('A' for Active; 'I' for Inactive)
REMARK    1  A    between atoms: C_1  and  C_2
REMARK    2  A    between atoms: N_5  and  C_6
REMARK    3  A    between atoms: N_9  and  S_10
REMARK    4  A    between atoms: S_10  and  C_13
REMARK                            x       y       z     vdW  Elec       q    Type
REMARK                         _______ _______ _______ _____ _____    ______ ____
ROOT
ATOM      1  C   UNL     1       2.417   5.789  18.414  0.00  0.00    +0.000 C 
ATOM      2  C   UNL     1       3.049   6.653  17.314  0.00  0.00    +0.000 C 
ATOM      3  C   UNL     1       4.514   6.394  17.006  0.00  0.00    +0.000 C 
ATOM      4  N   UNL     1       5.373   6.126  18.187  0.00  0.00    +0.000 NA
ATOM      5  C   UNL     1       4.764   5.601  19.433  0.00  0.00    +0.000 C 
ATOM      6  C   UNL     1       3.307   5.960  19.648  0.00  0.00    +0.000 C 
ENDROOT
BRANCH   1  11
ATOM      7  C   UNL     1       4.525   1.954  20.346  0.00  0.00    +0.000 C 
ATOM      8  C   UNL     1       3.340   2.142  19.391  0.00  0.00    +0.000 C 
ATOM      9  C   UNL     1       3.830   2.801  18.090  0.00  0.00    +0.000 C 
ATOM     10  C   UNL     1       2.760   3.568  17.321  0.00  0.00    +0.000 C 
ATOM     11  N   UNL     1       1.927   4.423  18.163  0.00  0.00    +0.000 NA
ATOM     12  C   UNL     1       1.254   3.622  19.172  0.00  0.00    +0.000 C 
ATOM     13  C   UNL     1       2.206   2.890  20.103  0.00  0.00    +0.000 C 
ENDBRANCH   1  11
BRANCH   4  14
ATOM     14  S   UNL     1       6.891   5.377  17.835  0.00  0.00    +0.000 S 
ATOM     15  O   UNL     1       7.910   6.403  17.762  0.00  0.00    +0.000 OA
ATOM     16  O   UNL     1       7.055   4.219  18.690  0.00  0.00    +0.000 OA
BRANCH  14  17
ATOM     17  C   UNL     1       6.632   4.806  16.183  0.00  0.00    +0.000 A 
ATOM     18  C   UNL     1       5.645   3.840  15.968  0.00  0.00    +0.000 A 
ATOM     19  C   UNL     1       5.414   3.378  14.679  0.00  0.00    +0.000 A 
ATOM     20  C   UNL     1       6.151   3.886  13.604  0.00  0.00    +0.000 A 
ATOM     21 BR   UNL     1       5.793   3.166  11.885  0.00  0.00    +0.000 Br
ATOM     22  C   UNL     1       7.115   4.882  13.823  0.00  0.00    +0.000 A 
ATOM     23 CL   UNL     1       8.043   5.576  12.544  0.00  0.00    +0.000 Cl
ATOM     24  C   UNL     1       7.354   5.350  15.116  0.00  0.00    +0.000 A 
ENDBRANCH  14  17
ENDBRANCH   4  14
TORSDOF 3
ENDMDL
MODEL 4
REMARK VINA RESULT:      -7.2      1.323      1.923
REMARK  Name = 
REMARK  4 active torsions:
REMARK  status: ('A' for Active; 'I' for Inactive)
REMARK    1  A    between atoms: C_1  and  C_2
REMARK    2  A    between atoms: N_5  and  C_6
REMARK    3  A    between atoms: N_9  and  S_10
REMARK    4  A    between atoms: S_10  and  C_13
REMARK                            x       y       z     vdW  Elec       q    Type
REMARK                         _______ _______ _______ _____ _____    ______ ____
ROOT
ATOM      1  C   UNL     1       1.680   5.383  19.300  0.00  0.00    +0.000 C 
ATOM      2  C   UNL     1       1.989   5.272  17.800  0.00  0.00    +0.000 C 
ATOM      3  C   UNL     1       3.445   5.064  17.422  0.00  0.00    +0.000 C 
ATOM      4  N   UNL     1       4.427   5.834  18.226  0.00  0.00    +0.000 NA
ATOM      5  C   UNL     1       4.065   6.285  19.591  0.00  0.00    +0.000 C 
ATOM      6  C   UNL     1       2.584   6.497  19.835  0.00  0.00    +0.000 C 
ENDROOT
BRANCH   1  11
ATOM      7  C   UNL     1       3.747   1.203  18.233  0.00  0.00    +0.000 C 
ATOM      8  C   UNL     1       2.839   1.674  19.376  0.00  0.00    +0.000 C 
ATOM      9  C   UNL     1       1.478   2.105  18.805  0.00  0.00    +0.000 C 
ATOM     10  C   UNL     1       0.714   3.107  19.664  0.00  0.00    +0.000 C 
ATOM     11  N   UNL     1       1.540   4.202  20.168  0.00  0.00    +0.000 NA
ATOM     12  C   UNL     1       2.628   3.673  20.973  0.00  0.00    +0.000 C 
ATOM     13  C   UNL     1       3.557   2.746  20.207  0.00  0.00    +0.000 C 
ENDBRANCH   1  11
BRANCH   4  14
ATOM     14  S   UNL     1       6.057   5.264  18.136  0.00  0.00    +0.000 S 
ATOM     15  O   UNL     1       6.953   6.392  18.276  0.00  0.00    +0.000 OA
ATOM     16  O   UNL     1       6.193   4.091  18.975  0.00  0.00    +0.000 OA
BRANCH  14  17
ATOM     17  C   UNL     1       6.160   4.745  16.450  0.00  0.00    +0.000 A 
ATOM     18  C   UNL     1       5.293   3.738  16.017  0.00  0.00    +0.000 A 
ATOM     19  C   UNL     1       5.346   3.315  14.695  0.00  0.00    +0.000 A 
ATOM     20  C   UNL     1       6.249   3.903  13.802  0.00  0.00    +0.000 A 
ATOM     21 BR   UNL     1       6.276   3.233  12.026  0.00  0.00    +0.000 Br
ATOM     22  C   UNL     1       7.091   4.939  14.235  0.00  0.00    +0.000 A 
ATOM     23 CL   UNL     1       8.208   5.730  13.184  0.00  0.00    +0.000 Cl
ATOM     24  C   UNL     1       7.044   5.368  15.562  0.00  0.00    +0.000 A 
ENDBRANCH  14  17
ENDBRANCH   4  14
TORSDOF 3
ENDMDL
MODEL 5
REMARK VINA RESULT:      -7.1      6.305      7.855
REMARK  Name = 
REMARK  4 active torsions:
REMARK  status: ('A' for Active; 'I' for Inactive)
REMARK    1  A    between atoms: C_1  and  C_2
REMARK    2  A    between atoms: N_5  and  C_6
REMARK    3  A    between atoms: N_9  and  S_10
REMARK    4  A    between atoms: S_10  and  C_13
REMARK                            x       y       z     vdW  Elec       q    Type
REMARK                         _______ _______ _______ _____ _____    ______ ____
ROOT
ATOM      1  C   UNL     1       2.491   5.981  19.432  0.00  0.00    +0.000 C 
ATOM      2  C   UNL     1       2.353   6.789  20.730  0.00  0.00    +0.000 C 
ATOM      3  C   UNL     1       1.461   8.017  20.672  0.00  0.00    +0.000 C 
ATOM      4  N   UNL     1       1.560   8.815  19.423  0.00  0.00    +0.000 NA
ATOM      5  C   UNL     1       2.027   8.168  18.174  0.00  0.00    +0.000 C 
ATOM      6  C   UNL     1       2.945   6.976  18.362  0.00  0.00    +0.000 C 
ENDROOT
BRANCH   1  11
ATOM      7  C   UNL     1       3.639   1.428  18.515  0.00  0.00    +0.000 C 
ATOM      8  C   UNL     1       2.333   2.226  18.438  0.00  0.00    +0.000 C 
ATOM      9  C   UNL     1       2.481   3.353  17.401  0.00  0.00    +0.000 C 
ATOM     10  C   UNL     1       1.553   4.544  17.615  0.00  0.00    +0.000 C 
ATOM     11  N   UNL     1       1.484   4.995  19.003  0.00  0.00    +0.000 NA
ATOM     12  C   UNL     1       1.017   3.915  19.854  0.00  0.00    +0.000 C 
ATOM     13  C   UNL     1       1.920   2.693  19.840  0.00  0.00    +0.000 C 
ENDBRANCH   1  11
BRANCH   4  14
ATOM     14  S   UNL     1       0.248   9.905  19.144  0.00  0.00    +0.000 S 
ATOM     15  O   UNL     1      -0.037   9.939  17.725  0.00  0.00    +0.000 OA
ATOM     16  O   UNL     1      -0.798   9.642  20.111  0.00  0.00    +0.000 OA
BRANCH  14  17
ATOM     17  C   UNL     1       0.985  11.461  19.546  0.00  0.00    +0.000 A 
ATOM     18  C   UNL     1       0.638  12.058  20.762  0.00  0.00    +0.000 A 
ATOM     19  C   UNL     1       1.207  13.276  21.108  0.00  0.00    +0.000 A 
ATOM     20  C   UNL     1       2.130  13.892  20.256  0.00  0.00    +0.000 A 
ATOM     21 BR   UNL     1       2.825  15.574  20.795  0.00  0.00    +0.000 Br
ATOM     22  C   UNL     1       2.500  13.268  19.054  0.00  0.00    +0.000 A 
ATOM     23 CL   UNL     1       3.653  13.954  17.967  0.00  0.00    +0.000 Cl
ATOM     24  C   UNL     1       1.931  12.045  18.699  0.00  0.00    +0.000 A 
ENDBRANCH  14  17
ENDBRANCH   4  14
TORSDOF 3
ENDMDL
MODEL 6
REMARK VINA RESULT:      -7.1      3.208      4.995
REMARK  Name = 
REMARK  4 active torsions:
REMARK  status: ('A' for Active; 'I' for Inactive)
REMARK    1  A    between atoms: C_1  and  C_2
REMARK    2  A    between atoms: N_5  and  C_6
REMARK    3  A    between atoms: N_9  and  S_10
REMARK    4  A    between atoms: S_10  and  C_13
REMARK                            x       y       z     vdW  Elec       q    Type
REMARK                         _______ _______ _______ _____ _____    ______ ____
ROOT
ATOM      1  C   UNL     1       1.261   5.703  19.830  0.00  0.00    +0.000 C 
ATOM      2  C   UNL     1       1.337   4.530  20.818  0.00  0.00    +0.000 C 
ATOM      3  C   UNL     1       2.455   3.527  20.593  0.00  0.00    +0.000 C 
ATOM      4  N   UNL     1       2.732   3.192  19.173  0.00  0.00    +0.000 NA
ATOM      5  C   UNL     1       2.363   4.154  18.108  0.00  0.00    +0.000 C 
ATOM      6  C   UNL     1       1.205   5.077  18.435  0.00  0.00    +0.000 C 
ENDROOT
BRANCH   1  11
ATOM      7  C   UNL     1      -0.106   9.958  18.122  0.00  0.00    +0.000 C 
ATOM      8  C   UNL     1       1.158   9.458  18.831  0.00  0.00    +0.000 C 
ATOM      9  C   UNL     1       1.844   8.389  17.965  0.00  0.00    +0.000 C 
ATOM     10  C   UNL     1       2.723   7.409  18.736  0.00  0.00    +0.000 C 
ATOM     11  N   UNL     1       2.106   6.902  19.959  0.00  0.00    +0.000 NA
ATOM     12  C   UNL     1       1.790   8.005  20.851  0.00  0.00    +0.000 C 
ATOM     13  C   UNL     1       0.815   9.008  20.258  0.00  0.00    +0.000 C 
ENDBRANCH   1  11
BRANCH   4  14
ATOM     14  S   UNL     1       4.265   2.448  18.881  0.00  0.00    +0.000 S 
ATOM     15  O   UNL     1       4.800   1.975  20.140  0.00  0.00    +0.000 OA
ATOM     16  O   UNL     1       4.151   1.567  17.738  0.00  0.00    +0.000 OA
BRANCH  14  17
ATOM     17  C   UNL     1       5.250   3.837  18.406  0.00  0.00    +0.000 A 
ATOM     18  C   UNL     1       5.603   4.761  19.393  0.00  0.00    +0.000 A 
ATOM     19  C   UNL     1       6.384   5.858  19.051  0.00  0.00    +0.000 A 
ATOM     20  C   UNL     1       6.825   6.027  17.734  0.00  0.00    +0.000 A 
ATOM     21 BR   UNL     1       7.853   7.576  17.353  0.00  0.00    +0.000 Br
ATOM     22  C   UNL     1       6.497   5.074  16.756  0.00  0.00    +0.000 A 
ATOM     23 CL   UNL     1       7.029   5.200  15.119  0.00  0.00    +0.000 Cl
ATOM     24  C   UNL     1       5.712   3.971  17.093  0.00  0.00    +0.000 A 
ENDBRANCH  14  17
ENDBRANCH   4  14
TORSDOF 3
ENDMDL
MODEL 7
REMARK VINA RESULT:      -7.0      1.982      3.139
REMARK  Name = 
REMARK  4 active torsions:
REMARK  status: ('A' for Active; 'I' for Inactive)
REMARK    1  A    between atoms: C_1  and  C_2
REMARK    2  A    between atoms: N_5  and  C_6
REMARK    3  A    between atoms: N_9  and  S_10
REMARK    4  A    between atoms: S_10  and  C_13
REMARK                            x       y       z     vdW  Elec       q    Type
REMARK                         _______ _______ _______ _____ _____    ______ ____
ROOT
ATOM      1  C   UNL     1       3.174   1.659  19.656  0.00  0.00    +0.000 C 
ATOM      2  C   UNL     1       4.481   2.242  20.213  0.00  0.00    +0.000 C 
ATOM      3  C   UNL     1       4.960   3.544  19.595  0.00  0.00    +0.000 C 
ATOM      4  N   UNL     1       4.781   3.653  18.125  0.00  0.00    +0.000 NA
ATOM      5  C   UNL     1       3.739   2.842  17.451  0.00  0.00    +0.000 C 
ATOM      6  C   UNL     1       3.374   1.544  18.143  0.00  0.00    +0.000 C 
ENDROOT
BRANCH   1  11
ATOM      7  C   UNL     1       2.210   6.312  20.213  0.00  0.00    +0.000 C 
ATOM      8  C   UNL     1       1.397   5.029  20.427  0.00  0.00    +0.000 C 
ATOM      9  C   UNL     1       2.064   4.175  21.519  0.00  0.00    +0.000 C 
ATOM     10  C   UNL     1       1.756   2.684  21.441  0.00  0.00    +0.000 C 
ATOM     11  N   UNL     1       1.849   2.133  20.091  0.00  0.00    +0.000 NA
ATOM     12  C   UNL     1       0.922   2.821  19.208  0.00  0.00    +0.000 C 
ATOM     13  C   UNL     1       1.188   4.311  19.087  0.00  0.00    +0.000 C 
ENDBRANCH   1  11
BRANCH   4  14
ATOM     14  S   UNL     1       4.871   5.260  17.493  0.00  0.00    +0.000 S 
ATOM     15  O   UNL     1       3.527   5.742  17.255  0.00  0.00    +0.000 OA
ATOM     16  O   UNL     1       5.812   6.026  18.283  0.00  0.00    +0.000 OA
BRANCH  14  17
ATOM     17  C   UNL     1       5.593   4.978  15.904  0.00  0.00    +0.000 A 
ATOM     18  C   UNL     1       6.943   5.295  15.730  0.00  0.00    +0.000 A 
ATOM     19  C   UNL     1       7.539   5.077  14.495  0.00  0.00    +0.000 A 
ATOM     20  C   UNL     1       6.800   4.531  13.440  0.00  0.00    +0.000 A 
ATOM     21 BR   UNL     1       7.689   4.306  11.779  0.00  0.00    +0.000 Br
ATOM     22  C   UNL     1       5.455   4.180  13.635  0.00  0.00    +0.000 A 
ATOM     23 CL   UNL     1       4.488   3.476  12.390  0.00  0.00    +0.000 Cl
ATOM     24  C   UNL     1       4.848   4.398  14.872  0.00  0.00    +0.000 A 
ENDBRANCH  14  17
ENDBRANCH   4  14
TORSDOF 3
ENDMDL
MODEL 8
REMARK VINA RESULT:      -7.0      2.614      3.925
REMARK  Name = 
REMARK  4 active torsions:
REMARK  status: ('A' for Active; 'I' for Inactive)
REMARK    1  A    between atoms: C_1  and  C_2
REMARK    2  A    between atoms: N_5  and  C_6
REMARK    3  A    between atoms: N_9  and  S_10
REMARK    4  A    between atoms: S_10  and  C_13
REMARK                            x       y       z     vdW  Elec       q    Type
REMARK                         _______ _______ _______ _____ _____    ______ ____
ROOT
ATOM      1  C   UNL     1       1.927   6.664  19.306  0.00  0.00    +0.000 C 
ATOM      2  C   UNL     1       2.530   5.476  20.069  0.00  0.00    +0.000 C 
ATOM      3  C   UNL     1       3.980   5.140  19.766  0.00  0.00    +0.000 C 
ATOM      4  N   UNL     1       4.373   5.255  18.339  0.00  0.00    +0.000 NA
ATOM      5  C   UNL     1       3.605   6.145  17.436  0.00  0.00    +0.000 C 
ATOM      6  C   UNL     1       2.156   6.371  17.821  0.00  0.00    +0.000 C 
ENDROOT
BRANCH   1  11
ATOM      7  C   UNL     1      -1.441  10.012  18.732  0.00  0.00    +0.000 C 
ATOM      8  C   UNL     1      -0.010  10.034  19.280  0.00  0.00    +0.000 C 
ATOM      9  C   UNL     1       0.973   9.634  18.166  0.00  0.00    +0.000 C 
ATOM     10  C   UNL     1       2.292   9.050  18.658  0.00  0.00    +0.000 C 
ATOM     11  N   UNL     1       2.139   8.061  19.722  0.00  0.00    +0.000 NA
ATOM     12  C   UNL     1       1.470   8.660  20.865  0.00  0.00    +0.000 C 
ATOM     13  C   UNL     1       0.078   9.179  20.552  0.00  0.00    +0.000 C 
ENDBRANCH   1  11
BRANCH   4  14
ATOM     14  S   UNL     1       6.076   5.345  18.052  0.00  0.00    +0.000 S 
ATOM     15  O   UNL     1       6.476   6.736  18.056  0.00  0.00    +0.000 OA
ATOM     16  O   UNL     1       6.746   4.371  18.889  0.00  0.00    +0.000 OA
BRANCH  14  17
ATOM     17  C   UNL     1       6.185   4.794  16.377  0.00  0.00    +0.000 A 
ATOM     18  C   UNL     1       5.308   3.790  15.956  0.00  0.00    +0.000 A 
ATOM     19  C   UNL     1       5.365   3.343  14.642  0.00  0.00    +0.000 A 
ATOM     20  C   UNL     1       6.281   3.902  13.745  0.00  0.00    +0.000 A 
ATOM     21 BR   UNL     1       6.313   3.200  11.983  0.00  0.00    +0.000 Br
ATOM     22  C   UNL     1       7.134   4.935  14.166  0.00  0.00    +0.000 A 
ATOM     23 CL   UNL     1       8.269   5.693  13.109  0.00  0.00    +0.000 Cl
ATOM     24  C   UNL     1       7.083   5.389  15.484  0.00  0.00    +0.000 A 
ENDBRANCH  14  17
ENDBRANCH   4  14
TORSDOF 3
ENDMDL
MODEL 9
REMARK VINA RESULT:      -6.9      7.290      8.768
REMARK  Name = 
REMARK  4 active torsions:
REMARK  status: ('A' for Active; 'I' for Inactive)
REMARK    1  A    between atoms: C_1  and  C_2
REMARK    2  A    between atoms: N_5  and  C_6
REMARK    3  A    between atoms: N_9  and  S_10
REMARK    4  A    between atoms: S_10  and  C_13
REMARK                            x       y       z     vdW  Elec       q    Type
REMARK                         _______ _______ _______ _____ _____    ______ ____
ROOT
ATOM      1  C   UNL     1      -0.757  13.011  18.793  0.00  0.00    +0.000 C 
ATOM      2  C   UNL     1      -1.493  11.712  18.438  0.00  0.00    +0.000 C 
ATOM      3  C   UNL     1      -1.130  10.483  19.254  0.00  0.00    +0.000 C 
ATOM      4  N   UNL     1       0.311  10.338  19.578  0.00  0.00    +0.000 NA
ATOM      5  C   UNL     1       1.181  11.538  19.604  0.00  0.00    +0.000 C 
ATOM      6  C   UNL     1       0.737  12.685  18.717  0.00  0.00    +0.000 C 
ENDROOT
BRANCH   1  11
ATOM      7  C   UNL     1      -1.530  11.246  23.172  0.00  0.00    +0.000 C 
ATOM      8  C   UNL     1      -1.643  12.648  22.560  0.00  0.00    +0.000 C 
ATOM      9  C   UNL     1      -2.711  12.640  21.453  0.00  0.00    +0.000 C 
ATOM     10  C   UNL     1      -2.540  13.723  20.393  0.00  0.00    +0.000 C 
ATOM     11  N   UNL     1      -1.166  13.870  19.917  0.00  0.00    +0.000 NA
ATOM     12  C   UNL     1      -0.288  14.199  21.028  0.00  0.00    +0.000 C 
ATOM     13  C   UNL     1      -0.259  13.139  22.115  0.00  0.00    +0.000 C 
ENDBRANCH   1  11
BRANCH   4  14
ATOM     14  S   UNL     1       0.666   9.245  20.869  0.00  0.00    +0.000 S 
ATOM     15  O   UNL     1       1.603   9.879  21.772  0.00  0.00    +0.000 OA
ATOM     16  O   UNL     1      -0.572   8.672  21.356  0.00  0.00    +0.000 OA
BRANCH  14  17
ATOM     17  C   UNL     1       1.562   7.976  20.025  0.00  0.00    +0.000 A 
ATOM     18  C   UNL     1       2.133   8.286  18.788  0.00  0.00    +0.000 A 
ATOM     19  C   UNL     1       2.849   7.311  18.106  0.00  0.00    +0.000 A 
ATOM     20  C   UNL     1       3.011   6.036  18.659  0.00  0.00    +0.000 A 
ATOM     21 BR   UNL     1       3.971   4.758  17.636  0.00  0.00    +0.000 Br
ATOM     22  C   UNL     1       2.466   5.744  19.919  0.00  0.00    +0.000 A 
ATOM     23 CL   UNL     1       2.648   4.205  20.678  0.00  0.00    +0.000 Cl
ATOM     24  C   UNL     1       1.743   6.718  20.610  0.00  0.00    +0.000 A 
ENDBRANCH  14  17
ENDBRANCH   4  14
TORSDOF 3
ENDMDL
