MODEL 1
REMARK VINA RESULT:      -8.9      0.000      0.000
REMARK  Name = 
REMARK  7 active torsions:
REMARK  status: ('A' for Active; 'I' for Inactive)
REMARK    1  A    between atoms: C_1  and  N_2
REMARK    2  A    between atoms: N_2  and  S_14
REMARK    3  A    between atoms: S_14  and  C_17
REMARK    4  A    between atoms: C_20  and  C_21
REMARK    5  A    between atoms: C_21  and  C_22
REMARK    6  A    between atoms: C_21  and  C_23
REMARK    7  A    between atoms: C_21  and  C_24
REMARK                            x       y       z     vdW  Elec       q    Type
REMARK                         _______ _______ _______ _____ _____    ______ ____
ROOT
ATOM      1  C   UNL     1       2.816   3.216  17.497  0.00  0.00    +0.000 C 
ATOM      2  N   UNL     1       3.876   4.235  17.659  0.00  0.00    +0.000 N 
ATOM      3  C   UNL     1       4.813   4.519  16.633  0.00  0.00    +0.000 A 
ATOM      4  N   UNL     1       4.654   3.949  15.485  0.00  0.00    +0.000 NA
ATOM      5  C   UNL     1       5.596   4.192  14.494  0.00  0.00    +0.000 A 
ATOM      6  C   UNL     1       5.484   3.544  13.263  0.00  0.00    +0.000 A 
ATOM      7  C   UNL     1       6.451   3.734  12.272  0.00  0.00    +0.000 A 
ATOM      8  C   UNL     1       7.531   4.584  12.505  0.00  0.00    +0.000 A 
ATOM      9  C   UNL     1       7.639   5.247  13.727  0.00  0.00    +0.000 A 
ATOM     10  C   UNL     1       6.668   5.038  14.714  0.00  0.00    +0.000 A 
ATOM     11  C   UNL     1       6.759   5.676  16.029  0.00  0.00    +0.000 A 
ATOM     12  O   UNL     1       7.678   6.446  16.280  0.00  0.00    +0.000 OA
ATOM     13  O   UNL     1       5.825   5.353  16.951  0.00  0.00    +0.000 OA
ENDROOT
BRANCH   2  14
ATOM     14  S   UNL     1       3.980   4.886  19.223  0.00  0.00    +0.000 S 
ATOM     15  O   UNL     1       3.352   3.994  20.174  0.00  0.00    +0.000 OA
ATOM     16  O   UNL     1       5.345   5.331  19.440  0.00  0.00    +0.000 OA
BRANCH  14  17
ATOM     17  C   UNL     1       2.967   6.352  19.116  0.00  0.00    +0.000 A 
ATOM     18  C   UNL     1       2.231   6.763  20.226  0.00  0.00    +0.000 A 
ATOM     19  C   UNL     1       1.540   7.982  20.193  0.00  0.00    +0.000 A 
ATOM     20  C   UNL     1       1.580   8.825  19.068  0.00  0.00    +0.000 A 
ATOM     21  C   UNL     1       2.325   8.379  17.956  0.00  0.00    +0.000 A 
ATOM     22  C   UNL     1       3.020   7.161  17.980  0.00  0.00    +0.000 A 
BRANCH  20  23
ATOM     23  C   UNL     1       0.889  10.205  19.043  0.00  0.00    +0.000 C 
ATOM     24  C   UNL     1       1.786  11.331  18.478  0.00  0.00    +0.000 C 
ATOM     25  C   UNL     1      -0.372  10.143  18.153  0.00  0.00    +0.000 C 
ATOM     26  C   UNL     1       0.471  10.626  20.467  0.00  0.00    +0.000 C 
ENDBRANCH  20  23
ENDBRANCH  14  17
ENDBRANCH   2  14
TORSDOF 3
ENDMDL
MODEL 2
REMARK VINA RESULT:      -8.6      0.266      1.254
REMARK  Name = 
REMARK  7 active torsions:
REMARK  status: ('A' for Active; 'I' for Inactive)
REMARK    1  A    between atoms: C_1  and  N_2
REMARK    2  A    between atoms: N_2  and  S_14
REMARK    3  A    between atoms: S_14  and  C_17
REMARK    4  A    between atoms: C_20  and  C_21
REMARK    5  A    between atoms: C_21  and  C_22
REMARK    6  A    between atoms: C_21  and  C_23
REMARK    7  A    between atoms: C_21  and  C_24
REMARK                            x       y       z     vdW  Elec       q    Type
REMARK                         _______ _______ _______ _____ _____    ______ ____
ROOT
ATOM      1  C   UNL     1       2.615   3.387  17.489  0.00  0.00    +0.000 C 
ATOM      2  N   UNL     1       3.747   4.317  17.696  0.00  0.00    +0.000 N 
ATOM      3  C   UNL     1       4.712   4.566  16.688  0.00  0.00    +0.000 A 
ATOM      4  N   UNL     1       4.521   4.053  15.518  0.00  0.00    +0.000 NA
ATOM      5  C   UNL     1       5.488   4.260  14.543  0.00  0.00    +0.000 A 
ATOM      6  C   UNL     1       5.339   3.669  13.287  0.00  0.00    +0.000 A 
ATOM      7  C   UNL     1       6.326   3.821  12.310  0.00  0.00    +0.000 A 
ATOM      8  C   UNL     1       7.465   4.579  12.582  0.00  0.00    +0.000 A 
ATOM      9  C   UNL     1       7.611   5.186  13.829  0.00  0.00    +0.000 A 
ATOM     10  C   UNL     1       6.618   5.015  14.801  0.00  0.00    +0.000 A 
ATOM     11  C   UNL     1       6.744   5.595  16.140  0.00  0.00    +0.000 A 
ATOM     12  O   UNL     1       7.717   6.284  16.425  0.00  0.00    +0.000 OA
ATOM     13  O   UNL     1       5.780   5.310  17.043  0.00  0.00    +0.000 OA
ENDROOT
BRANCH   2  14
ATOM     14  S   UNL     1       3.885   4.899  19.284  0.00  0.00    +0.000 S 
ATOM     15  O   UNL     1       3.148   4.046  20.191  0.00  0.00    +0.000 OA
ATOM     16  O   UNL     1       5.283   5.192  19.541  0.00  0.00    +0.000 OA
BRANCH  14  17
ATOM     17  C   UNL     1       3.032   6.466  19.212  0.00  0.00    +0.000 A 
ATOM     18  C   UNL     1       3.020   7.190  18.021  0.00  0.00    +0.000 A 
ATOM     19  C   UNL     1       2.243   8.352  17.919  0.00  0.00    +0.000 A 
ATOM     20  C   UNL     1       1.451   8.810  18.987  0.00  0.00    +0.000 A 
ATOM     21  C   UNL     1       1.490   8.062  20.183  0.00  0.00    +0.000 A 
ATOM     22  C   UNL     1       2.264   6.898  20.295  0.00  0.00    +0.000 A 
BRANCH  20  23
ATOM     23  C   UNL     1       0.531  10.043  18.866  0.00  0.00    +0.000 C 
ATOM     24  C   UNL     1      -0.530   9.910  17.750  0.00  0.00    +0.000 C 
ATOM     25  C   UNL     1      -0.231  10.260  20.192  0.00  0.00    +0.000 C 
ATOM     26  C   UNL     1       1.360  11.308  18.558  0.00  0.00    +0.000 C 
ENDBRANCH  20  23
ENDBRANCH  14  17
ENDBRANCH   2  14
TORSDOF 3
ENDMDL
MODEL 3
REMARK VINA RESULT:      -8.5      0.567      1.389
REMARK  Name = 
REMARK  7 active torsions:
REMARK  status: ('A' for Active; 'I' for Inactive)
REMARK    1  A    between atoms: C_1  and  N_2
REMARK    2  A    between atoms: N_2  and  S_14
REMARK    3  A    between atoms: S_14  and  C_17
REMARK    4  A    between atoms: C_20  and  C_21
REMARK    5  A    between atoms: C_21  and  C_22
REMARK    6  A    between atoms: C_21  and  C_23
REMARK    7  A    between atoms: C_21  and  C_24
REMARK                            x       y       z     vdW  Elec       q    Type
REMARK                         _______ _______ _______ _____ _____    ______ ____
ROOT
ATOM      1  C   UNL     1       3.194   2.630  17.439  0.00  0.00    +0.000 C 
ATOM      2  N   UNL     1       4.160   3.732  17.643  0.00  0.00    +0.000 N 
ATOM      3  C   UNL     1       5.033   4.170  16.616  0.00  0.00    +0.000 A 
ATOM      4  N   UNL     1       4.891   3.664  15.436  0.00  0.00    +0.000 NA
ATOM      5  C   UNL     1       5.775   4.059  14.441  0.00  0.00    +0.000 A 
ATOM      6  C   UNL     1       5.685   3.486  13.171  0.00  0.00    +0.000 A 
ATOM      7  C   UNL     1       6.598   3.831  12.171  0.00  0.00    +0.000 A 
ATOM      8  C   UNL     1       7.601   4.763  12.434  0.00  0.00    +0.000 A 
ATOM      9  C   UNL     1       7.686   5.352  13.696  0.00  0.00    +0.000 A 
ATOM     10  C   UNL     1       6.770   4.988  14.690  0.00  0.00    +0.000 A 
ATOM     11  C   UNL     1       6.843   5.544  16.043  0.00  0.00    +0.000 A 
ATOM     12  O   UNL     1       7.694   6.379  16.323  0.00  0.00    +0.000 OA
ATOM     13  O   UNL     1       5.972   5.074  16.964  0.00  0.00    +0.000 OA
ENDROOT
BRANCH   2  14
ATOM     14  S   UNL     1       4.252   4.286  19.245  0.00  0.00    +0.000 S 
ATOM     15  O   UNL     1       3.442   3.451  20.106  0.00  0.00    +0.000 OA
ATOM     16  O   UNL     1       5.649   4.517  19.566  0.00  0.00    +0.000 OA
BRANCH  14  17
ATOM     17  C   UNL     1       3.468   5.887  19.162  0.00  0.00    +0.000 A 
ATOM     18  C   UNL     1       3.634   6.678  18.027  0.00  0.00    +0.000 A 
ATOM     19  C   UNL     1       2.916   7.875  17.898  0.00  0.00    +0.000 A 
ATOM     20  C   UNL     1       2.007   8.302  18.882  0.00  0.00    +0.000 A 
ATOM     21  C   UNL     1       1.866   7.486  20.025  0.00  0.00    +0.000 A 
ATOM     22  C   UNL     1       2.579   6.287  20.162  0.00  0.00    +0.000 A 
BRANCH  20  23
ATOM     23  C   UNL     1       1.152   9.577  18.722  0.00  0.00    +0.000 C 
ATOM     24  C   UNL     1       0.579  10.105  20.057  0.00  0.00    +0.000 C 
ATOM     25  C   UNL     1       2.010  10.711  18.118  0.00  0.00    +0.000 C 
ATOM     26  C   UNL     1      -0.046   9.310  17.786  0.00  0.00    +0.000 C 
ENDBRANCH  20  23
ENDBRANCH  14  17
ENDBRANCH   2  14
TORSDOF 3
ENDMDL
MODEL 4
REMARK VINA RESULT:      -8.1      1.129      1.788
REMARK  Name = 
REMARK  7 active torsions:
REMARK  status: ('A' for Active; 'I' for Inactive)
REMARK    1  A    between atoms: C_1  and  N_2
REMARK    2  A    between atoms: N_2  and  S_14
REMARK    3  A    between atoms: S_14  and  C_17
REMARK    4  A    between atoms: C_20  and  C_21
REMARK    5  A    between atoms: C_21  and  C_22
REMARK    6  A    between atoms: C_21  and  C_23
REMARK    7  A    between atoms: C_21  and  C_24
REMARK                            x       y       z     vdW  Elec       q    Type
REMARK                         _______ _______ _______ _____ _____    ______ ____
ROOT
ATOM      1  C   UNL     1       3.094   2.293  17.447  0.00  0.00    +0.000 C 
ATOM      2  N   UNL     1       4.150   3.280  17.761  0.00  0.00    +0.000 N 
ATOM      3  C   UNL     1       5.012   3.806  16.766  0.00  0.00    +0.000 A 
ATOM      4  N   UNL     1       4.782   3.497  15.533  0.00  0.00    +0.000 NA
ATOM      5  C   UNL     1       5.652   3.976  14.562  0.00  0.00    +0.000 A 
ATOM      6  C   UNL     1       5.464   3.611  13.228  0.00  0.00    +0.000 A 
ATOM      7  C   UNL     1       6.359   4.039  12.244  0.00  0.00    +0.000 A 
ATOM      8  C   UNL     1       7.442   4.847  12.589  0.00  0.00    +0.000 A 
ATOM      9  C   UNL     1       7.625   5.228  13.918  0.00  0.00    +0.000 A 
ATOM     10  C   UNL     1       6.726   4.783  14.895  0.00  0.00    +0.000 A 
ATOM     11  C   UNL     1       6.898   5.119  16.309  0.00  0.00    +0.000 A 
ATOM     12  O   UNL     1       7.823   5.840  16.665  0.00  0.00    +0.000 OA
ATOM     13  O   UNL     1       6.033   4.578  17.195  0.00  0.00    +0.000 OA
ENDROOT
BRANCH   2  14
ATOM     14  S   UNL     1       4.353   3.575  19.421  0.00  0.00    +0.000 S 
ATOM     15  O   UNL     1       3.860   2.451  20.188  0.00  0.00    +0.000 OA
ATOM     16  O   UNL     1       5.703   4.062  19.635  0.00  0.00    +0.000 OA
BRANCH  14  17
ATOM     17  C   UNL     1       3.253   4.949  19.722  0.00  0.00    +0.000 A 
ATOM     18  C   UNL     1       2.301   4.861  20.736  0.00  0.00    +0.000 A 
ATOM     19  C   UNL     1       1.526   5.981  21.065  0.00  0.00    +0.000 A 
ATOM     20  C   UNL     1       1.691   7.214  20.409  0.00  0.00    +0.000 A 
ATOM     21  C   UNL     1       2.654   7.271  19.380  0.00  0.00    +0.000 A 
ATOM     22  C   UNL     1       3.435   6.155  19.044  0.00  0.00    +0.000 A 
BRANCH  20  23
ATOM     23  C   UNL     1       0.900   8.477  20.810  0.00  0.00    +0.000 C 
ATOM     24  C   UNL     1      -0.558   8.181  21.232  0.00  0.00    +0.000 C 
ATOM     25  C   UNL     1       1.587   9.166  22.010  0.00  0.00    +0.000 C 
ATOM     26  C   UNL     1       0.840   9.474  19.633  0.00  0.00    +0.000 C 
ENDBRANCH  20  23
ENDBRANCH  14  17
ENDBRANCH   2  14
TORSDOF 3
ENDMDL
MODEL 5
REMARK VINA RESULT:      -7.9      2.971      7.730
REMARK  Name = 
REMARK  7 active torsions:
REMARK  status: ('A' for Active; 'I' for Inactive)
REMARK    1  A    between atoms: C_1  and  N_2
REMARK    2  A    between atoms: N_2  and  S_14
REMARK    3  A    between atoms: S_14  and  C_17
REMARK    4  A    between atoms: C_20  and  C_21
REMARK    5  A    between atoms: C_21  and  C_22
REMARK    6  A    between atoms: C_21  and  C_23
REMARK    7  A    between atoms: C_21  and  C_24
REMARK                            x       y       z     vdW  Elec       q    Type
REMARK                         _______ _______ _______ _____ _____    ______ ____
ROOT
ATOM      1  C   UNL     1       4.938   7.232  17.389  0.00  0.00    +0.000 C 
ATOM      2  N   UNL     1       5.452   5.893  17.753  0.00  0.00    +0.000 N 
ATOM      3  C   UNL     1       4.712   4.996  18.564  0.00  0.00    +0.000 A 
ATOM      4  N   UNL     1       3.505   5.320  18.890  0.00  0.00    +0.000 NA
ATOM      5  C   UNL     1       2.795   4.463  19.720  0.00  0.00    +0.000 A 
ATOM      6  C   UNL     1       1.510   4.814  20.138  0.00  0.00    +0.000 A 
ATOM      7  C   UNL     1       0.800   3.991  21.016  0.00  0.00    +0.000 A 
ATOM      8  C   UNL     1       1.370   2.802  21.471  0.00  0.00    +0.000 A 
ATOM      9  C   UNL     1       2.646   2.437  21.044  0.00  0.00    +0.000 A 
ATOM     10  C   UNL     1       3.349   3.278  20.173  0.00  0.00    +0.000 A 
ATOM     11  C   UNL     1       4.708   2.963  19.729  0.00  0.00    +0.000 A 
ATOM     12  O   UNL     1       5.248   1.923  20.085  0.00  0.00    +0.000 OA
ATOM     13  O   UNL     1       5.345   3.871  18.956  0.00  0.00    +0.000 OA
ENDROOT
BRANCH   2  14
ATOM     14  S   UNL     1       7.057   5.612  17.276  0.00  0.00    +0.000 S 
ATOM     15  O   UNL     1       7.730   6.870  17.037  0.00  0.00    +0.000 OA
ATOM     16  O   UNL     1       7.638   4.641  18.186  0.00  0.00    +0.000 OA
BRANCH  14  17
ATOM     17  C   UNL     1       6.870   4.798  15.699  0.00  0.00    +0.000 A 
ATOM     18  C   UNL     1       5.970   3.741  15.571  0.00  0.00    +0.000 A 
ATOM     19  C   UNL     1       5.720   3.185  14.309  0.00  0.00    +0.000 A 
ATOM     20  C   UNL     1       6.343   3.677  13.148  0.00  0.00    +0.000 A 
ATOM     21  C   UNL     1       7.256   4.740  13.308  0.00  0.00    +0.000 A 
ATOM     22  C   UNL     1       7.512   5.303  14.567  0.00  0.00    +0.000 A 
BRANCH  20  23
ATOM     23  C   UNL     1       6.022   3.128  11.742  0.00  0.00    +0.000 C 
ATOM     24  C   UNL     1       6.358   1.627  11.577  0.00  0.00    +0.000 C 
ATOM     25  C   UNL     1       4.514   3.289  11.448  0.00  0.00    +0.000 C 
ATOM     26  C   UNL     1       6.821   3.894  10.666  0.00  0.00    +0.000 C 
ENDBRANCH  20  23
ENDBRANCH  14  17
ENDBRANCH   2  14
TORSDOF 3
ENDMDL
MODEL 6
REMARK VINA RESULT:      -7.7      3.915      6.649
REMARK  Name = 
REMARK  7 active torsions:
REMARK  status: ('A' for Active; 'I' for Inactive)
REMARK    1  A    between atoms: C_1  and  N_2
REMARK    2  A    between atoms: N_2  and  S_14
REMARK    3  A    between atoms: S_14  and  C_17
REMARK    4  A    between atoms: C_20  and  C_21
REMARK    5  A    between atoms: C_21  and  C_22
REMARK    6  A    between atoms: C_21  and  C_23
REMARK    7  A    between atoms: C_21  and  C_24
REMARK                            x       y       z     vdW  Elec       q    Type
REMARK                         _______ _______ _______ _____ _____    ______ ____
ROOT
ATOM      1  C   UNL     1       4.747   6.673  16.566  0.00  0.00    +0.000 C 
ATOM      2  N   UNL     1       5.374   5.559  17.312  0.00  0.00    +0.000 N 
ATOM      3  C   UNL     1       4.638   4.741  18.205  0.00  0.00    +0.000 A 
ATOM      4  N   UNL     1       3.358   4.906  18.272  0.00  0.00    +0.000 NA
ATOM      5  C   UNL     1       2.643   4.135  19.179  0.00  0.00    +0.000 A 
ATOM      6  C   UNL     1       1.267   4.332  19.317  0.00  0.00    +0.000 A 
ATOM      7  C   UNL     1       0.538   3.604  20.261  0.00  0.00    +0.000 A 
ATOM      8  C   UNL     1       1.182   2.664  21.065  0.00  0.00    +0.000 A 
ATOM      9  C   UNL     1       2.553   2.451  20.920  0.00  0.00    +0.000 A 
ATOM     10  C   UNL     1       3.271   3.196  19.978  0.00  0.00    +0.000 A 
ATOM     11  C   UNL     1       4.718   3.042  19.817  0.00  0.00    +0.000 A 
ATOM     12  O   UNL     1       5.330   2.217  20.486  0.00  0.00    +0.000 OA
ATOM     13  O   UNL     1       5.345   3.860  18.943  0.00  0.00    +0.000 OA
ENDROOT
BRANCH   2  14
ATOM     14  S   UNL     1       7.061   5.475  17.145  0.00  0.00    +0.000 S 
ATOM     15  O   UNL     1       7.598   4.464  18.031  0.00  0.00    +0.000 OA
ATOM     16  O   UNL     1       7.376   5.437  15.728  0.00  0.00    +0.000 OA
BRANCH  14  17
ATOM     17  C   UNL     1       7.605   7.063  17.754  0.00  0.00    +0.000 A 
ATOM     18  C   UNL     1       8.384   7.128  18.908  0.00  0.00    +0.000 A 
ATOM     19  C   UNL     1       8.924   8.355  19.317  0.00  0.00    +0.000 A 
ATOM     20  C   UNL     1       8.718   9.536  18.582  0.00  0.00    +0.000 A 
ATOM     21  C   UNL     1       7.918   9.441  17.424  0.00  0.00    +0.000 A 
ATOM     22  C   UNL     1       7.374   8.218  17.006  0.00  0.00    +0.000 A 
BRANCH  20  23
ATOM     23  C   UNL     1       9.369  10.879  18.975  0.00  0.00    +0.000 C 
ATOM     24  C   UNL     1       9.338  11.154  20.497  0.00  0.00    +0.000 C 
ATOM     25  C   UNL     1      10.852  10.889  18.544  0.00  0.00    +0.000 C 
ATOM     26  C   UNL     1       8.644  12.054  18.285  0.00  0.00    +0.000 C 
ENDBRANCH  20  23
ENDBRANCH  14  17
ENDBRANCH   2  14
TORSDOF 3
ENDMDL
MODEL 7
REMARK VINA RESULT:      -7.5      4.959      7.534
REMARK  Name = 
REMARK  7 active torsions:
REMARK  status: ('A' for Active; 'I' for Inactive)
REMARK    1  A    between atoms: C_1  and  N_2
REMARK    2  A    between atoms: N_2  and  S_14
REMARK    3  A    between atoms: S_14  and  C_17
REMARK    4  A    between atoms: C_20  and  C_21
REMARK    5  A    between atoms: C_21  and  C_22
REMARK    6  A    between atoms: C_21  and  C_23
REMARK    7  A    between atoms: C_21  and  C_24
REMARK                            x       y       z     vdW  Elec       q    Type
REMARK                         _______ _______ _______ _____ _____    ______ ____
ROOT
ATOM      1  C   UNL     1      -0.021  10.039  22.807  0.00  0.00    +0.000 C 
ATOM      2  N   UNL     1       0.286  10.340  21.392  0.00  0.00    +0.000 N 
ATOM      3  C   UNL     1       0.898   9.391  20.535  0.00  0.00    +0.000 A 
ATOM      4  N   UNL     1       1.079   8.192  20.980  0.00  0.00    +0.000 NA
ATOM      5  C   UNL     1       1.718   7.275  20.157  0.00  0.00    +0.000 A 
ATOM      6  C   UNL     1       1.982   5.988  20.631  0.00  0.00    +0.000 A 
ATOM      7  C   UNL     1       2.671   5.067  19.838  0.00  0.00    +0.000 A 
ATOM      8  C   UNL     1       3.090   5.426  18.557  0.00  0.00    +0.000 A 
ATOM      9  C   UNL     1       2.815   6.704  18.071  0.00  0.00    +0.000 A 
ATOM     10  C   UNL     1       2.133   7.619  18.882  0.00  0.00    +0.000 A 
ATOM     11  C   UNL     1       1.857   8.986  18.436  0.00  0.00    +0.000 A 
ATOM     12  O   UNL     1       2.188   9.347  17.313  0.00  0.00    +0.000 OA
ATOM     13  O   UNL     1       1.270   9.829  19.313  0.00  0.00    +0.000 OA
ENDROOT
BRANCH   2  14
ATOM     14  S   UNL     1       0.016  11.957  20.952  0.00  0.00    +0.000 S 
ATOM     15  O   UNL     1       0.012  12.797  22.130  0.00  0.00    +0.000 OA
ATOM     16  O   UNL     1       0.890  12.277  19.838  0.00  0.00    +0.000 OA
BRANCH  14  17
ATOM     17  C   UNL     1      -1.650  11.925  20.312  0.00  0.00    +0.000 A 
ATOM     18  C   UNL     1      -2.673  12.555  21.020  0.00  0.00    +0.000 A 
ATOM     19  C   UNL     1      -3.954  12.649  20.460  0.00  0.00    +0.000 A 
ATOM     20  C   UNL     1      -4.243  12.138  19.182  0.00  0.00    +0.000 A 
ATOM     21  C   UNL     1      -3.191  11.498  18.492  0.00  0.00    +0.000 A 
ATOM     22  C   UNL     1      -1.906  11.400  19.044  0.00  0.00    +0.000 A 
BRANCH  20  23
ATOM     23  C   UNL     1      -5.627  12.301  18.519  0.00  0.00    +0.000 C 
ATOM     24  C   UNL     1      -6.632  11.195  18.916  0.00  0.00    +0.000 C 
ATOM     25  C   UNL     1      -6.252  13.650  18.937  0.00  0.00    +0.000 C 
ATOM     26  C   UNL     1      -5.498  12.269  16.982  0.00  0.00    +0.000 C 
ENDBRANCH  20  23
ENDBRANCH  14  17
ENDBRANCH   2  14
TORSDOF 3
ENDMDL
MODEL 8
REMARK VINA RESULT:      -7.5      5.900     10.361
REMARK  Name = 
REMARK  7 active torsions:
REMARK  status: ('A' for Active; 'I' for Inactive)
REMARK    1  A    between atoms: C_1  and  N_2
REMARK    2  A    between atoms: N_2  and  S_14
REMARK    3  A    between atoms: S_14  and  C_17
REMARK    4  A    between atoms: C_20  and  C_21
REMARK    5  A    between atoms: C_21  and  C_22
REMARK    6  A    between atoms: C_21  and  C_23
REMARK    7  A    between atoms: C_21  and  C_24
REMARK                            x       y       z     vdW  Elec       q    Type
REMARK                         _______ _______ _______ _____ _____    ______ ____
ROOT
ATOM      1  C   UNL     1      -1.167   9.977  17.461  0.00  0.00    +0.000 C 
ATOM      2  N   UNL     1      -1.301  10.899  18.609  0.00  0.00    +0.000 N 
ATOM      3  C   UNL     1      -2.540  11.491  18.961  0.00  0.00    +0.000 A 
ATOM      4  N   UNL     1      -3.599  11.115  18.325  0.00  0.00    +0.000 NA
ATOM      5  C   UNL     1      -4.806  11.727  18.638  0.00  0.00    +0.000 A 
ATOM      6  C   UNL     1      -5.958  11.385  17.928  0.00  0.00    +0.000 A 
ATOM      7  C   UNL     1      -7.171  12.027  18.191  0.00  0.00    +0.000 A 
ATOM      8  C   UNL     1      -7.239  13.009  19.179  0.00  0.00    +0.000 A 
ATOM      9  C   UNL     1      -6.095  13.344  19.904  0.00  0.00    +0.000 A 
ATOM     10  C   UNL     1      -4.886  12.699  19.620  0.00  0.00    +0.000 A 
ATOM     11  C   UNL     1      -3.648  13.044  20.322  0.00  0.00    +0.000 A 
ATOM     12  O   UNL     1      -3.656  13.888  21.211  0.00  0.00    +0.000 OA
ATOM     13  O   UNL     1      -2.509  12.432  19.928  0.00  0.00    +0.000 OA
ENDROOT
BRANCH   2  14
ATOM     14  S   UNL     1       0.174  11.320  19.337  0.00  0.00    +0.000 S 
ATOM     15  O   UNL     1       0.810  12.383  18.589  0.00  0.00    +0.000 OA
ATOM     16  O   UNL     1      -0.049  11.472  20.763  0.00  0.00    +0.000 OA
BRANCH  14  17
ATOM     17  C   UNL     1       1.162   9.849  19.120  0.00  0.00    +0.000 A 
ATOM     18  C   UNL     1       1.175   8.875  20.117  0.00  0.00    +0.000 A 
ATOM     19  C   UNL     1       1.840   7.661  19.898  0.00  0.00    +0.000 A 
ATOM     20  C   UNL     1       2.490   7.382  18.682  0.00  0.00    +0.000 A 
ATOM     21  C   UNL     1       2.469   8.390  17.696  0.00  0.00    +0.000 A 
ATOM     22  C   UNL     1       1.806   9.608  17.905  0.00  0.00    +0.000 A 
BRANCH  20  23
ATOM     23  C   UNL     1       3.161   6.022  18.396  0.00  0.00    +0.000 C 
ATOM     24  C   UNL     1       2.179   4.953  17.863  0.00  0.00    +0.000 C 
ATOM     25  C   UNL     1       4.263   6.196  17.327  0.00  0.00    +0.000 C 
ATOM     26  C   UNL     1       3.801   5.454  19.680  0.00  0.00    +0.000 C 
ENDBRANCH  20  23
ENDBRANCH  14  17
ENDBRANCH   2  14
TORSDOF 3
ENDMDL
MODEL 9
REMARK VINA RESULT:      -7.4      4.173      6.676
REMARK  Name = 
REMARK  7 active torsions:
REMARK  status: ('A' for Active; 'I' for Inactive)
REMARK    1  A    between atoms: C_1  and  N_2
REMARK    2  A    between atoms: N_2  and  S_14
REMARK    3  A    between atoms: S_14  and  C_17
REMARK    4  A    between atoms: C_20  and  C_21
REMARK    5  A    between atoms: C_21  and  C_22
REMARK    6  A    between atoms: C_21  and  C_23
REMARK    7  A    between atoms: C_21  and  C_24
REMARK                            x       y       z     vdW  Elec       q    Type
REMARK                         _______ _______ _______ _____ _____    ______ ____
ROOT
ATOM      1  C   UNL     1       0.011   9.297  21.668  0.00  0.00    +0.000 C 
ATOM      2  N   UNL     1       0.784   9.258  20.407  0.00  0.00    +0.000 N 
ATOM      3  C   UNL     1       1.469   8.093  19.979  0.00  0.00    +0.000 A 
ATOM      4  N   UNL     1       1.309   7.005  20.656  0.00  0.00    +0.000 NA
ATOM      5  C   UNL     1       2.015   5.876  20.263  0.00  0.00    +0.000 A 
ATOM      6  C   UNL     1       1.908   4.701  21.010  0.00  0.00    +0.000 A 
ATOM      7  C   UNL     1       2.651   3.570  20.661  0.00  0.00    +0.000 A 
ATOM      8  C   UNL     1       3.496   3.605  19.553  0.00  0.00    +0.000 A 
ATOM      9  C   UNL     1       3.594   4.770  18.793  0.00  0.00    +0.000 A 
ATOM     10  C   UNL     1       2.852   5.899  19.161  0.00  0.00    +0.000 A 
ATOM     11  C   UNL     1       2.952   7.159  18.423  0.00  0.00    +0.000 A 
ATOM     12  O   UNL     1       3.667   7.239  17.431  0.00  0.00    +0.000 OA
ATOM     13  O   UNL     1       2.265   8.222  18.896  0.00  0.00    +0.000 OA
ENDROOT
BRANCH   2  14
ATOM     14  S   UNL     1       0.927  10.762  19.634  0.00  0.00    +0.000 S 
ATOM     15  O   UNL     1       1.348  11.770  20.583  0.00  0.00    +0.000 OA
ATOM     16  O   UNL     1       1.672  10.572  18.403  0.00  0.00    +0.000 OA
BRANCH  14  17
ATOM     17  C   UNL     1      -0.755  11.136  19.169  0.00  0.00    +0.000 A 
ATOM     18  C   UNL     1      -1.392  10.359  18.201  0.00  0.00    +0.000 A 
ATOM     19  C   UNL     1      -2.751  10.561  17.927  0.00  0.00    +0.000 A 
ATOM     20  C   UNL     1      -3.510  11.522  18.618  0.00  0.00    +0.000 A 
ATOM     21  C   UNL     1      -2.839  12.299  19.585  0.00  0.00    +0.000 A 
ATOM     22  C   UNL     1      -1.479  12.104  19.866  0.00  0.00    +0.000 A 
BRANCH  20  23
ATOM     23  C   UNL     1      -5.025  11.705  18.383  0.00  0.00    +0.000 C 
ATOM     24  C   UNL     1      -5.849  10.429  18.673  0.00  0.00    +0.000 C 
ATOM     25  C   UNL     1      -5.569  12.815  19.310  0.00  0.00    +0.000 C 
ATOM     26  C   UNL     1      -5.301  12.102  16.918  0.00  0.00    +0.000 C 
ENDBRANCH  20  23
ENDBRANCH  14  17
ENDBRANCH   2  14
TORSDOF 3
ENDMDL
