MODEL 1
REMARK VINA RESULT:      -7.7      0.000      0.000
REMARK  Name = 
REMARK  5 active torsions:
REMARK  status: ('A' for Active; 'I' for Inactive)
REMARK    1  A    between atoms: C_1  and  C_2
REMARK    2  A    between atoms: C_5  and  C_6
REMARK    3  A    between atoms: N_13  and  C_14
REMARK    4  A    between atoms: C_14  and  C_15
REMARK    5  A    between atoms: C_19  and  C_20
REMARK                            x       y       z     vdW  Elec       q    Type
REMARK                         _______ _______ _______ _____ _____    ______ ____
ROOT
ATOM      1  C   UNL     1       3.429   3.868  18.464  0.00  0.00    +0.000 C 
ATOM      2  C   UNL     1       3.394   2.626  17.510  0.00  0.00    +0.000 C 
ATOM      3  C   UNL     1       3.632   1.442  18.435  0.00  0.00    +0.000 C 
ATOM      4  O   UNL     1       2.905   1.761  19.605  0.00  0.00    +0.000 OA
ATOM      5  C   UNL     1       3.034   3.189  19.794  0.00  0.00    +0.000 C 
ATOM      6  C   UNL     1       1.657   3.606  20.310  0.00  0.00    +0.000 C 
ATOM      7  C   UNL     1       1.545   5.102  20.498  0.00  0.00    +0.000 C 
ATOM      8  N   UNL     1       1.890   5.873  19.309  0.00  0.00    +0.000 NA
ATOM      9  C   UNL     1       2.432   5.065  18.174  0.00  0.00    +0.000 C 
ENDROOT
BRANCH   1  14
ATOM     10  C   UNL     1       7.327   6.833  17.722  0.00  0.00    +0.000 C 
ATOM     11  C   UNL     1       6.462   5.720  18.146  0.00  0.00    +0.000 A 
ATOM     12  N   UNL     1       6.675   5.091  19.309  0.00  0.00    +0.000 NA
ATOM     13  O   UNL     1       5.628   4.198  19.377  0.00  0.00    +0.000 OA
ATOM     14  C   UNL     1       4.845   4.370  18.247  0.00  0.00    +0.000 A 
ATOM     15  N   UNL     1       5.325   5.314  17.467  0.00  0.00    +0.000 NA
ENDBRANCH   1  14
BRANCH   8  16
ATOM     16  C   UNL     1       2.618   7.123  19.624  0.00  0.00    +0.000 C 
BRANCH  16  17
ATOM     17  C   UNL     1       1.806   8.413  19.489  0.00  0.00    +0.000 A 
ATOM     18  S   UNL     1       1.707   9.209  17.950  0.00  0.00    +0.000 S 
ATOM     19  C   UNL     1       0.645  10.375  18.606  0.00  0.00    +0.000 A 
ATOM     20  N   UNL     1       0.369  10.233  19.877  0.00  0.00    +0.000 NA
ATOM     21  C   UNL     1       1.017   9.111  20.394  0.00  0.00    +0.000 A 
ATOM     22  C   UNL     1       0.757   8.801  21.823  0.00  0.00    +0.000 C 
ENDBRANCH  16  17
ENDBRANCH   8  16
TORSDOF 3
ENDMDL
MODEL 2
REMARK VINA RESULT:      -7.6      0.976      1.361
REMARK  Name = 
REMARK  5 active torsions:
REMARK  status: ('A' for Active; 'I' for Inactive)
REMARK    1  A    between atoms: C_1  and  C_2
REMARK    2  A    between atoms: C_5  and  C_6
REMARK    3  A    between atoms: N_13  and  C_14
REMARK    4  A    between atoms: C_14  and  C_15
REMARK    5  A    between atoms: C_19  and  C_20
REMARK                            x       y       z     vdW  Elec       q    Type
REMARK                         _______ _______ _______ _____ _____    ______ ____
ROOT
ATOM      1  C   UNL     1       3.471   3.818  18.461  0.00  0.00    +0.000 C 
ATOM      2  C   UNL     1       3.484   2.657  17.410  0.00  0.00    +0.000 C 
ATOM      3  C   UNL     1       3.673   1.400  18.247  0.00  0.00    +0.000 C 
ATOM      4  O   UNL     1       2.888   1.628  19.400  0.00  0.00    +0.000 OA
ATOM      5  C   UNL     1       3.008   3.035  19.710  0.00  0.00    +0.000 C 
ATOM      6  C   UNL     1       1.607   3.417  20.187  0.00  0.00    +0.000 C 
ATOM      7  C   UNL     1       1.487   4.894  20.489  0.00  0.00    +0.000 C 
ATOM      8  N   UNL     1       1.894   5.755  19.386  0.00  0.00    +0.000 NA
ATOM      9  C   UNL     1       2.492   5.039  18.218  0.00  0.00    +0.000 C 
ENDROOT
BRANCH   1  14
ATOM     10  C   UNL     1       7.395   6.782  17.865  0.00  0.00    +0.000 C 
ATOM     11  C   UNL     1       6.499   5.699  18.302  0.00  0.00    +0.000 A 
ATOM     12  N   UNL     1       6.580   5.200  19.542  0.00  0.00    +0.000 NA
ATOM     13  O   UNL     1       5.543   4.294  19.583  0.00  0.00    +0.000 OA
ATOM     14  C   UNL     1       4.897   4.328  18.358  0.00  0.00    +0.000 A 
ATOM     15  N   UNL     1       5.455   5.197  17.543  0.00  0.00    +0.000 NA
ENDBRANCH   1  14
BRANCH   8  16
ATOM     16  C   UNL     1       2.606   6.972  19.837  0.00  0.00    +0.000 C 
BRANCH  16  17
ATOM     17  C   UNL     1       1.734   8.216  20.031  0.00  0.00    +0.000 A 
ATOM     18  S   UNL     1       1.079   8.570  21.598  0.00  0.00    +0.000 S 
ATOM     19  C   UNL     1       0.397  10.018  21.000  0.00  0.00    +0.000 A 
ATOM     20  N   UNL     1       0.601  10.254  19.730  0.00  0.00    +0.000 NA
ATOM     21  C   UNL     1       1.372   9.238  19.163  0.00  0.00    +0.000 A 
ATOM     22  C   UNL     1       1.721   9.400  17.729  0.00  0.00    +0.000 C 
ENDBRANCH  16  17
ENDBRANCH   8  16
TORSDOF 3
ENDMDL
MODEL 3
REMARK VINA RESULT:      -7.4      2.410      5.522
REMARK  Name = 
REMARK  5 active torsions:
REMARK  status: ('A' for Active; 'I' for Inactive)
REMARK    1  A    between atoms: C_1  and  C_2
REMARK    2  A    between atoms: C_5  and  C_6
REMARK    3  A    between atoms: N_13  and  C_14
REMARK    4  A    between atoms: C_14  and  C_15
REMARK    5  A    between atoms: C_19  and  C_20
REMARK                            x       y       z     vdW  Elec       q    Type
REMARK                         _______ _______ _______ _____ _____    ______ ____
ROOT
ATOM      1  C   UNL     1       2.693   4.087  20.008  0.00  0.00    +0.000 C 
ATOM      2  C   UNL     1       2.535   3.728  21.523  0.00  0.00    +0.000 C 
ATOM      3  C   UNL     1       1.320   2.813  21.563  0.00  0.00    +0.000 C 
ATOM      4  O   UNL     1       1.449   2.011  20.406  0.00  0.00    +0.000 OA
ATOM      5  C   UNL     1       1.997   2.863  19.373  0.00  0.00    +0.000 C 
ATOM      6  C   UNL     1       2.952   1.938  18.619  0.00  0.00    +0.000 C 
ATOM      7  C   UNL     1       3.709   2.662  17.528  0.00  0.00    +0.000 C 
ATOM      8  N   UNL     1       4.420   3.848  17.992  0.00  0.00    +0.000 NA
ATOM      9  C   UNL     1       4.157   4.220  19.416  0.00  0.00    +0.000 C 
ENDROOT
BRANCH   1  14
ATOM     10  C   UNL     1       1.189   8.651  21.211  0.00  0.00    +0.000 C 
ATOM     11  C   UNL     1       1.625   7.461  20.461  0.00  0.00    +0.000 A 
ATOM     12  N   UNL     1       2.371   7.583  19.356  0.00  0.00    +0.000 NA
ATOM     13  O   UNL     1       2.636   6.276  19.013  0.00  0.00    +0.000 OA
ATOM     14  C   UNL     1       2.038   5.456  19.956  0.00  0.00    +0.000 A 
ATOM     15  N   UNL     1       1.413   6.157  20.877  0.00  0.00    +0.000 NA
ENDBRANCH   1  14
BRANCH   8  16
ATOM     16  C   UNL     1       4.388   4.959  17.013  0.00  0.00    +0.000 C 
BRANCH  16  17
ATOM     17  C   UNL     1       5.599   5.054  16.082  0.00  0.00    +0.000 A 
ATOM     18  S   UNL     1       5.554   4.276  14.531  0.00  0.00    +0.000 S 
ATOM     19  C   UNL     1       7.097   4.905  14.156  0.00  0.00    +0.000 A 
ATOM     20  N   UNL     1       7.652   5.632  15.092  0.00  0.00    +0.000 NA
ATOM     21  C   UNL     1       6.804   5.735  16.196  0.00  0.00    +0.000 A 
ATOM     22  C   UNL     1       7.289   6.575  17.321  0.00  0.00    +0.000 C 
ENDBRANCH  16  17
ENDBRANCH   8  16
TORSDOF 3
ENDMDL
MODEL 4
REMARK VINA RESULT:      -7.1      1.031      1.209
REMARK  Name = 
REMARK  5 active torsions:
REMARK  status: ('A' for Active; 'I' for Inactive)
REMARK    1  A    between atoms: C_1  and  C_2
REMARK    2  A    between atoms: C_5  and  C_6
REMARK    3  A    between atoms: N_13  and  C_14
REMARK    4  A    between atoms: C_14  and  C_15
REMARK    5  A    between atoms: C_19  and  C_20
REMARK                            x       y       z     vdW  Elec       q    Type
REMARK                         _______ _______ _______ _____ _____    ______ ____
ROOT
ATOM      1  C   UNL     1       2.991   4.002  18.365  0.00  0.00    +0.000 C 
ATOM      2  C   UNL     1       2.747   2.741  17.468  0.00  0.00    +0.000 C 
ATOM      3  C   UNL     1       3.185   1.574  18.341  0.00  0.00    +0.000 C 
ATOM      4  O   UNL     1       2.735   1.919  19.636  0.00  0.00    +0.000 OA
ATOM      5  C   UNL     1       2.902   3.350  19.763  0.00  0.00    +0.000 C 
ATOM      6  C   UNL     1       1.673   3.782  20.563  0.00  0.00    +0.000 C 
ATOM      7  C   UNL     1       1.603   5.281  20.742  0.00  0.00    +0.000 C 
ATOM      8  N   UNL     1       1.676   6.027  19.491  0.00  0.00    +0.000 NA
ATOM      9  C   UNL     1       1.953   5.196  18.280  0.00  0.00    +0.000 C 
ENDROOT
BRANCH   1  14
ATOM     10  C   UNL     1       7.848   4.537  17.555  0.00  0.00    +0.000 C 
ATOM     11  C   UNL     1       6.385   4.507  17.390  0.00  0.00    +0.000 A 
ATOM     12  N   UNL     1       5.835   4.180  16.214  0.00  0.00    +0.000 NA
ATOM     13  O   UNL     1       4.485   4.181  16.490  0.00  0.00    +0.000 OA
ATOM     14  C   UNL     1       4.323   4.495  17.830  0.00  0.00    +0.000 A 
ATOM     15  N   UNL     1       5.481   4.691  18.423  0.00  0.00    +0.000 NA
ENDBRANCH   1  14
BRANCH   8  16
ATOM     16  C   UNL     1       2.454   7.281  19.612  0.00  0.00    +0.000 C 
BRANCH  16  17
ATOM     17  C   UNL     1       1.644   8.576  19.505  0.00  0.00    +0.000 A 
ATOM     18  S   UNL     1       1.627   9.459  18.012  0.00  0.00    +0.000 S 
ATOM     19  C   UNL     1       0.524  10.582  18.673  0.00  0.00    +0.000 A 
ATOM     20  N   UNL     1       0.178  10.367  19.916  0.00  0.00    +0.000 NA
ATOM     21  C   UNL     1       0.801   9.218  20.404  0.00  0.00    +0.000 A 
ATOM     22  C   UNL     1       0.462   8.825  21.795  0.00  0.00    +0.000 C 
ENDBRANCH  16  17
ENDBRANCH   8  16
TORSDOF 3
ENDMDL
MODEL 5
REMARK VINA RESULT:      -7.0      1.574      1.950
REMARK  Name = 
REMARK  5 active torsions:
REMARK  status: ('A' for Active; 'I' for Inactive)
REMARK    1  A    between atoms: C_1  and  C_2
REMARK    2  A    between atoms: C_5  and  C_6
REMARK    3  A    between atoms: N_13  and  C_14
REMARK    4  A    between atoms: C_14  and  C_15
REMARK    5  A    between atoms: C_19  and  C_20
REMARK                            x       y       z     vdW  Elec       q    Type
REMARK                         _______ _______ _______ _____ _____    ______ ____
ROOT
ATOM      1  C   UNL     1       3.153   3.995  18.349  0.00  0.00    +0.000 C 
ATOM      2  C   UNL     1       2.895   2.780  17.396  0.00  0.00    +0.000 C 
ATOM      3  C   UNL     1       3.535   1.602  18.116  0.00  0.00    +0.000 C 
ATOM      4  O   UNL     1       3.233   1.820  19.479  0.00  0.00    +0.000 OA
ATOM      5  C   UNL     1       3.301   3.248  19.694  0.00  0.00    +0.000 C 
ATOM      6  C   UNL     1       2.157   3.517  20.671  0.00  0.00    +0.000 C 
ATOM      7  C   UNL     1       1.992   4.990  20.971  0.00  0.00    +0.000 C 
ATOM      8  N   UNL     1       1.841   5.819  19.781  0.00  0.00    +0.000 NA
ATOM      9  C   UNL     1       2.022   5.096  18.485  0.00  0.00    +0.000 C 
ENDROOT
BRANCH   1  14
ATOM     10  C   UNL     1       6.967   4.876  15.312  0.00  0.00    +0.000 C 
ATOM     11  C   UNL     1       5.824   5.040  16.227  0.00  0.00    +0.000 A 
ATOM     12  N   UNL     1       4.982   6.071  16.092  0.00  0.00    +0.000 NA
ATOM     13  O   UNL     1       4.027   5.823  17.054  0.00  0.00    +0.000 OA
ATOM     14  C   UNL     1       4.361   4.638  17.690  0.00  0.00    +0.000 A 
ATOM     15  N   UNL     1       5.463   4.118  17.195  0.00  0.00    +0.000 NA
ENDBRANCH   1  14
BRANCH   8  16
ATOM     16  C   UNL     1       2.527   7.126  19.899  0.00  0.00    +0.000 C 
BRANCH  16  17
ATOM     17  C   UNL     1       1.612   8.337  20.101  0.00  0.00    +0.000 A 
ATOM     18  S   UNL     1       0.957   8.666  21.673  0.00  0.00    +0.000 S 
ATOM     19  C   UNL     1       0.219  10.089  21.083  0.00  0.00    +0.000 A 
ATOM     20  N   UNL     1       0.405  10.334  19.811  0.00  0.00    +0.000 NA
ATOM     21  C   UNL     1       1.207   9.347  19.237  0.00  0.00    +0.000 A 
ATOM     22  C   UNL     1       1.539   9.523  17.800  0.00  0.00    +0.000 C 
ENDBRANCH  16  17
ENDBRANCH   8  16
TORSDOF 3
ENDMDL
MODEL 6
REMARK VINA RESULT:      -7.0      2.536      5.491
REMARK  Name = 
REMARK  5 active torsions:
REMARK  status: ('A' for Active; 'I' for Inactive)
REMARK    1  A    between atoms: C_1  and  C_2
REMARK    2  A    between atoms: C_5  and  C_6
REMARK    3  A    between atoms: N_13  and  C_14
REMARK    4  A    between atoms: C_14  and  C_15
REMARK    5  A    between atoms: C_19  and  C_20
REMARK                            x       y       z     vdW  Elec       q    Type
REMARK                         _______ _______ _______ _____ _____    ______ ____
ROOT
ATOM      1  C   UNL     1       2.773   4.034  19.878  0.00  0.00    +0.000 C 
ATOM      2  C   UNL     1       2.696   3.441  21.325  0.00  0.00    +0.000 C 
ATOM      3  C   UNL     1       1.263   2.945  21.447  0.00  0.00    +0.000 C 
ATOM      4  O   UNL     1       0.976   2.392  20.178  0.00  0.00    +0.000 OA
ATOM      5  C   UNL     1       1.640   3.229  19.204  0.00  0.00    +0.000 C 
ATOM      6  C   UNL     1       2.136   2.232  18.157  0.00  0.00    +0.000 C 
ATOM      7  C   UNL     1       2.946   2.899  17.068  0.00  0.00    +0.000 C 
ATOM      8  N   UNL     1       4.059   3.699  17.568  0.00  0.00    +0.000 NA
ATOM      9  C   UNL     1       4.113   3.837  19.056  0.00  0.00    +0.000 C 
ENDROOT
BRANCH   1  14
ATOM     10  C   UNL     1       1.673   8.838  19.370  0.00  0.00    +0.000 C 
ATOM     11  C   UNL     1       1.909   7.496  19.928  0.00  0.00    +0.000 A 
ATOM     12  N   UNL     1       1.176   7.041  20.953  0.00  0.00    +0.000 NA
ATOM     13  O   UNL     1       1.632   5.752  21.115  0.00  0.00    +0.000 OA
ATOM     14  C   UNL     1       2.603   5.518  20.154  0.00  0.00    +0.000 A 
ATOM     15  N   UNL     1       2.792   6.573  19.393  0.00  0.00    +0.000 NA
ENDBRANCH   1  14
BRANCH   8  16
ATOM     16  C   UNL     1       4.272   4.940  16.791  0.00  0.00    +0.000 C 
BRANCH  16  17
ATOM     17  C   UNL     1       5.533   4.970  15.924  0.00  0.00    +0.000 A 
ATOM     18  S   UNL     1       5.521   4.210  14.364  0.00  0.00    +0.000 S 
ATOM     19  C   UNL     1       7.117   4.746  14.076  0.00  0.00    +0.000 A 
ATOM     20  N   UNL     1       7.666   5.429  15.047  0.00  0.00    +0.000 NA
ATOM     21  C   UNL     1       6.770   5.574  16.107  0.00  0.00    +0.000 A 
ATOM     22  C   UNL     1       7.246   6.372  17.265  0.00  0.00    +0.000 C 
ENDBRANCH  16  17
ENDBRANCH   8  16
TORSDOF 3
ENDMDL
MODEL 7
REMARK VINA RESULT:      -6.9      2.134      5.381
REMARK  Name = 
REMARK  5 active torsions:
REMARK  status: ('A' for Active; 'I' for Inactive)
REMARK    1  A    between atoms: C_1  and  C_2
REMARK    2  A    between atoms: C_5  and  C_6
REMARK    3  A    between atoms: N_13  and  C_14
REMARK    4  A    between atoms: C_14  and  C_15
REMARK    5  A    between atoms: C_19  and  C_20
REMARK                            x       y       z     vdW  Elec       q    Type
REMARK                         _______ _______ _______ _____ _____    ______ ____
ROOT
ATOM      1  C   UNL     1       2.601   3.990  20.040  0.00  0.00    +0.000 C 
ATOM      2  C   UNL     1       2.518   3.678  21.572  0.00  0.00    +0.000 C 
ATOM      3  C   UNL     1       1.275   2.812  21.708  0.00  0.00    +0.000 C 
ATOM      4  O   UNL     1       1.307   1.975  20.569  0.00  0.00    +0.000 OA
ATOM      5  C   UNL     1       1.825   2.775  19.483  0.00  0.00    +0.000 C 
ATOM      6  C   UNL     1       2.701   1.795  18.703  0.00  0.00    +0.000 C 
ATOM      7  C   UNL     1       3.420   2.459  17.550  0.00  0.00    +0.000 C 
ATOM      8  N   UNL     1       4.198   3.629  17.938  0.00  0.00    +0.000 NA
ATOM      9  C   UNL     1       4.032   4.049  19.363  0.00  0.00    +0.000 C 
ENDROOT
BRANCH   1  14
ATOM     10  C   UNL     1       1.280   8.616  21.221  0.00  0.00    +0.000 C 
ATOM     11  C   UNL     1       1.661   7.404  20.477  0.00  0.00    +0.000 A 
ATOM     12  N   UNL     1       2.395   7.489  19.359  0.00  0.00    +0.000 NA
ATOM     13  O   UNL     1       2.608   6.170  19.025  0.00  0.00    +0.000 OA
ATOM     14  C   UNL     1       1.995   5.381  19.985  0.00  0.00    +0.000 A 
ATOM     15  N   UNL     1       1.409   6.112  20.908  0.00  0.00    +0.000 NA
ENDBRANCH   1  14
BRANCH   8  16
ATOM     16  C   UNL     1       4.152   4.713  16.930  0.00  0.00    +0.000 C 
BRANCH  16  17
ATOM     17  C   UNL     1       5.473   5.444  16.683  0.00  0.00    +0.000 A 
ATOM     18  S   UNL     1       5.953   6.733  17.742  0.00  0.00    +0.000 S 
ATOM     19  C   UNL     1       7.426   6.899  16.894  0.00  0.00    +0.000 A 
ATOM     20  N   UNL     1       7.587   6.088  15.880  0.00  0.00    +0.000 NA
ATOM     21  C   UNL     1       6.484   5.243  15.752  0.00  0.00    +0.000 A 
ATOM     22  C   UNL     1       6.551   4.235  14.664  0.00  0.00    +0.000 C 
ENDBRANCH  16  17
ENDBRANCH   8  16
TORSDOF 3
ENDMDL
MODEL 8
REMARK VINA RESULT:      -6.7      2.516      5.001
REMARK  Name = 
REMARK  5 active torsions:
REMARK  status: ('A' for Active; 'I' for Inactive)
REMARK    1  A    between atoms: C_1  and  C_2
REMARK    2  A    between atoms: C_5  and  C_6
REMARK    3  A    between atoms: N_13  and  C_14
REMARK    4  A    between atoms: C_14  and  C_15
REMARK    5  A    between atoms: C_19  and  C_20
REMARK                            x       y       z     vdW  Elec       q    Type
REMARK                         _______ _______ _______ _____ _____    ______ ____
ROOT
ATOM      1  C   UNL     1       2.797   4.406  19.285  0.00  0.00    +0.000 C 
ATOM      2  C   UNL     1       2.334   4.437  20.781  0.00  0.00    +0.000 C 
ATOM      3  C   UNL     1       0.847   4.126  20.715  0.00  0.00    +0.000 C 
ATOM      4  O   UNL     1       0.741   3.138  19.709  0.00  0.00    +0.000 OA
ATOM      5  C   UNL     1       1.713   3.478  18.694  0.00  0.00    +0.000 C 
ATOM      6  C   UNL     1       2.249   2.118  18.245  0.00  0.00    +0.000 C 
ATOM      7  C   UNL     1       3.358   2.247  17.226  0.00  0.00    +0.000 C 
ATOM      8  N   UNL     1       4.458   3.103  17.659  0.00  0.00    +0.000 NA
ATOM      9  C   UNL     1       4.228   3.812  18.954  0.00  0.00    +0.000 C 
ENDROOT
BRANCH   1  14
ATOM     10  C   UNL     1       1.494   8.876  17.596  0.00  0.00    +0.000 C 
ATOM     11  C   UNL     1       2.084   7.784  18.388  0.00  0.00    +0.000 A 
ATOM     12  N   UNL     1       2.240   7.906  19.713  0.00  0.00    +0.000 NA
ATOM     13  O   UNL     1       2.726   6.672  20.084  0.00  0.00    +0.000 OA
ATOM     14  C   UNL     1       2.811   5.886  18.947  0.00  0.00    +0.000 A 
ATOM     15  N   UNL     1       2.408   6.538  17.878  0.00  0.00    +0.000 NA
ENDBRANCH   1  14
BRANCH   8  16
ATOM     16  C   UNL     1       5.018   3.921  16.559  0.00  0.00    +0.000 C 
BRANCH  16  17
ATOM     17  C   UNL     1       5.878   5.111  16.993  0.00  0.00    +0.000 A 
ATOM     18  S   UNL     1       7.254   4.849  18.017  0.00  0.00    +0.000 S 
ATOM     19  C   UNL     1       7.649   6.508  17.933  0.00  0.00    +0.000 A 
ATOM     20  N   UNL     1       6.837   7.245  17.220  0.00  0.00    +0.000 NA
ATOM     21  C   UNL     1       5.824   6.460  16.668  0.00  0.00    +0.000 A 
ATOM     22  C   UNL     1       4.851   7.162  15.793  0.00  0.00    +0.000 C 
ENDBRANCH  16  17
ENDBRANCH   8  16
TORSDOF 3
ENDMDL
MODEL 9
REMARK VINA RESULT:      -6.5      1.452      1.821
REMARK  Name = 
REMARK  5 active torsions:
REMARK  status: ('A' for Active; 'I' for Inactive)
REMARK    1  A    between atoms: C_1  and  C_2
REMARK    2  A    between atoms: C_5  and  C_6
REMARK    3  A    between atoms: N_13  and  C_14
REMARK    4  A    between atoms: C_14  and  C_15
REMARK    5  A    between atoms: C_19  and  C_20
REMARK                            x       y       z     vdW  Elec       q    Type
REMARK                         _______ _______ _______ _____ _____    ______ ____
ROOT
ATOM      1  C   UNL     1       2.974   4.493  18.200  0.00  0.00    +0.000 C 
ATOM      2  C   UNL     1       2.728   3.299  17.218  0.00  0.00    +0.000 C 
ATOM      3  C   UNL     1       3.462   2.132  17.862  0.00  0.00    +0.000 C 
ATOM      4  O   UNL     1       3.219   2.288  19.246  0.00  0.00    +0.000 OA
ATOM      5  C   UNL     1       3.226   3.710  19.508  0.00  0.00    +0.000 C 
ATOM      6  C   UNL     1       2.121   3.886  20.550  0.00  0.00    +0.000 C 
ATOM      7  C   UNL     1       1.899   5.337  20.910  0.00  0.00    +0.000 C 
ATOM      8  N   UNL     1       1.646   6.197  19.760  0.00  0.00    +0.000 NA
ATOM      9  C   UNL     1       1.798   5.529  18.432  0.00  0.00    +0.000 C 
ENDROOT
BRANCH   1  14
ATOM     10  C   UNL     1       7.357   6.605  17.271  0.00  0.00    +0.000 C 
ATOM     11  C   UNL     1       6.071   5.902  17.128  0.00  0.00    +0.000 A 
ATOM     12  N   UNL     1       5.927   4.913  16.237  0.00  0.00    +0.000 NA
ATOM     13  O   UNL     1       4.644   4.468  16.470  0.00  0.00    +0.000 OA
ATOM     14  C   UNL     1       4.113   5.219  17.507  0.00  0.00    +0.000 A 
ATOM     15  N   UNL     1       4.974   6.110  17.948  0.00  0.00    +0.000 NA
ENDBRANCH   1  14
BRANCH   8  16
ATOM     16  C   UNL     1       2.271   7.533  19.891  0.00  0.00    +0.000 C 
BRANCH  16  17
ATOM     17  C   UNL     1       1.333   8.662  20.328  0.00  0.00    +0.000 A 
ATOM     18  S   UNL     1       1.105   8.983  22.018  0.00  0.00    +0.000 S 
ATOM     19  C   UNL     1       0.099  10.312  21.643  0.00  0.00    +0.000 A 
ATOM     20  N   UNL     1      -0.095  10.529  20.368  0.00  0.00    +0.000 NA
ATOM     21  C   UNL     1       0.612   9.600  19.602  0.00  0.00    +0.000 A 
ATOM     22  C   UNL     1       0.519   9.757  18.128  0.00  0.00    +0.000 C 
ENDBRANCH  16  17
ENDBRANCH   8  16
TORSDOF 3
ENDMDL
