MODEL 1
REMARK VINA RESULT:      -7.4      0.000      0.000
REMARK  Name = 
REMARK  8 active torsions:
REMARK  status: ('A' for Active; 'I' for Inactive)
REMARK    1  A    between atoms: C_1  and  C_2
REMARK    2  A    between atoms: C_2  and  C_3
REMARK    3  A    between atoms: C_3  and  N_4
REMARK    4  A    between atoms: C_9  and  C_10
REMARK    5  A    between atoms: N_12  and  C_13
REMARK    6  A    between atoms: C_13  and  C_14
REMARK    7  A    between atoms: C_18  and  O_19
REMARK    8  A    between atoms: O_19  and  C_20
REMARK                            x       y       z     vdW  Elec       q    Type
REMARK                         _______ _______ _______ _____ _____    ______ ____
ROOT
ATOM      1  C   UNL     1       2.834   5.648  20.099  0.00  0.00    +0.000 C 
ATOM      2  O   UNL     1       2.519   4.728  20.854  0.00  0.00    +0.000 OA
ATOM      3  N   UNL     1       2.265   6.895  20.164  0.00  0.00    +0.000 N 
ATOM      4  H   UNL     1       2.585   7.592  19.500  0.00  0.00    +0.000 HD
ENDROOT
BRANCH   1  10
ATOM      5  N   UNL     1       6.625   5.317  15.424  0.00  0.00    +0.000 NA
ATOM      6  C   UNL     1       7.422   4.509  16.372  0.00  0.00    +0.000 C 
ATOM      7  C   UNL     1       7.180   4.906  17.833  0.00  0.00    +0.000 C 
ATOM      8  N   UNL     1       5.780   5.130  18.109  0.00  0.00    +0.000 N 
ATOM      9  C   UNL     1       5.193   5.240  19.326  0.00  0.00    +0.000 A 
ATOM     10  C   UNL     1       3.856   5.471  19.067  0.00  0.00    +0.000 A 
ATOM     11  N   UNL     1       3.638   5.503  17.694  0.00  0.00    +0.000 NA
ATOM     12  C   UNL     1       4.823   5.289  17.144  0.00  0.00    +0.000 A 
ATOM     13  C   UNL     1       5.173   5.155  15.690  0.00  0.00    +0.000 C 
BRANCH   5  14
ATOM     14  C   UNL     1       6.985   4.951  14.039  0.00  0.00    +0.000 C 
BRANCH  14  16
ATOM     15  C   UNL     1       6.589   3.483  11.990  0.00  0.00    +0.000 C 
ATOM     16  C   UNL     1       6.227   3.757  13.441  0.00  0.00    +0.000 C 
ENDBRANCH  14  16
ENDBRANCH   5  14
ENDBRANCH   1  10
BRANCH   3  17
ATOM     17  C   UNL     1       1.253   7.196  21.148  0.00  0.00    +0.000 C 
BRANCH  17  18
ATOM     18  C   UNL     1       0.814   8.633  21.070  0.00  0.00    +0.000 A 
ATOM     19  C   UNL     1       0.994   9.380  19.898  0.00  0.00    +0.000 A 
ATOM     20  C   UNL     1       0.638  10.728  19.862  0.00  0.00    +0.000 A 
ATOM     21  C   UNL     1       0.105  11.338  20.999  0.00  0.00    +0.000 A 
ATOM     22  C   UNL     1      -0.095  10.604  22.169  0.00  0.00    +0.000 A 
ATOM     23  C   UNL     1       0.254   9.253  22.197  0.00  0.00    +0.000 A 
BRANCH  22  24
ATOM     24  O   UNL     1      -0.621  11.309  23.219  0.00  0.00    +0.000 OA
ATOM     25  C   UNL     1      -1.841  11.997  22.969  0.00  0.00    +0.000 C 
ENDBRANCH  22  24
ENDBRANCH  17  18
ENDBRANCH   3  17
TORSDOF 6
ENDMDL
MODEL 2
REMARK VINA RESULT:      -7.2      2.589      9.057
REMARK  Name = 
REMARK  8 active torsions:
REMARK  status: ('A' for Active; 'I' for Inactive)
REMARK    1  A    between atoms: C_1  and  C_2
REMARK    2  A    between atoms: C_2  and  C_3
REMARK    3  A    between atoms: C_3  and  N_4
REMARK    4  A    between atoms: C_9  and  C_10
REMARK    5  A    between atoms: N_12  and  C_13
REMARK    6  A    between atoms: C_13  and  C_14
REMARK    7  A    between atoms: C_18  and  O_19
REMARK    8  A    between atoms: O_19  and  C_20
REMARK                            x       y       z     vdW  Elec       q    Type
REMARK                         _______ _______ _______ _____ _____    ______ ____
ROOT
ATOM      1  C   UNL     1       2.561   6.357  19.001  0.00  0.00    +0.000 C 
ATOM      2  O   UNL     1       2.091   5.718  18.061  0.00  0.00    +0.000 OA
ATOM      3  N   UNL     1       3.659   5.942  19.711  0.00  0.00    +0.000 N 
ATOM      4  H   UNL     1       3.976   6.533  20.473  0.00  0.00    +0.000 HD
ENDROOT
BRANCH   1  10
ATOM      5  N   UNL     1       0.371  11.422  21.428  0.00  0.00    +0.000 NA
ATOM      6  C   UNL     1      -0.082  11.665  20.041  0.00  0.00    +0.000 C 
ATOM      7  C   UNL     1       0.826  11.001  19.000  0.00  0.00    +0.000 C 
ATOM      8  N   UNL     1       1.208   9.662  19.388  0.00  0.00    +0.000 N 
ATOM      9  C   UNL     1       1.779   8.715  18.604  0.00  0.00    +0.000 A 
ATOM     10  C   UNL     1       1.971   7.625  19.431  0.00  0.00    +0.000 A 
ATOM     11  N   UNL     1       1.518   7.917  20.713  0.00  0.00    +0.000 NA
ATOM     12  C   UNL     1       1.058   9.157  20.650  0.00  0.00    +0.000 A 
ATOM     13  C   UNL     1       0.392   9.967  21.724  0.00  0.00    +0.000 C 
BRANCH   5  14
ATOM     14  C   UNL     1      -0.488  12.174  22.366  0.00  0.00    +0.000 C 
BRANCH  14  16
ATOM     15  C   UNL     1      -2.865  12.132  23.291  0.00  0.00    +0.000 C 
ATOM     16  C   UNL     1      -1.573  11.358  23.083  0.00  0.00    +0.000 C 
ENDBRANCH  14  16
ENDBRANCH   5  14
ENDBRANCH   1  10
BRANCH   3  17
ATOM     17  C   UNL     1       4.336   4.713  19.375  0.00  0.00    +0.000 C 
BRANCH  17  18
ATOM     18  C   UNL     1       5.159   4.857  18.123  0.00  0.00    +0.000 A 
ATOM     19  C   UNL     1       5.059   3.925  17.082  0.00  0.00    +0.000 A 
ATOM     20  C   UNL     1       5.874   4.039  15.956  0.00  0.00    +0.000 A 
ATOM     21  C   UNL     1       6.796   5.083  15.866  0.00  0.00    +0.000 A 
ATOM     22  C   UNL     1       6.896   6.029  16.887  0.00  0.00    +0.000 A 
ATOM     23  C   UNL     1       6.073   5.916  18.008  0.00  0.00    +0.000 A 
BRANCH  22  24
ATOM     24  O   UNL     1       7.836   7.005  16.690  0.00  0.00    +0.000 OA
ATOM     25  C   UNL     1       7.812   8.098  17.602  0.00  0.00    +0.000 C 
ENDBRANCH  22  24
ENDBRANCH  17  18
ENDBRANCH   3  17
TORSDOF 6
ENDMDL
MODEL 3
REMARK VINA RESULT:      -7.2      1.214      1.752
REMARK  Name = 
REMARK  8 active torsions:
REMARK  status: ('A' for Active; 'I' for Inactive)
REMARK    1  A    between atoms: C_1  and  C_2
REMARK    2  A    between atoms: C_2  and  C_3
REMARK    3  A    between atoms: C_3  and  N_4
REMARK    4  A    between atoms: C_9  and  C_10
REMARK    5  A    between atoms: N_12  and  C_13
REMARK    6  A    between atoms: C_13  and  C_14
REMARK    7  A    between atoms: C_18  and  O_19
REMARK    8  A    between atoms: O_19  and  C_20
REMARK                            x       y       z     vdW  Elec       q    Type
REMARK                         _______ _______ _______ _____ _____    ______ ____
ROOT
ATOM      1  C   UNL     1       2.335   5.934  19.993  0.00  0.00    +0.000 C 
ATOM      2  O   UNL     1       1.666   5.000  20.437  0.00  0.00    +0.000 OA
ATOM      3  N   UNL     1       2.106   7.243  20.334  0.00  0.00    +0.000 N 
ATOM      4  H   UNL     1       2.705   7.948  19.918  0.00  0.00    +0.000 HD
ENDROOT
BRANCH   1  10
ATOM      5  N   UNL     1       6.512   5.398  15.680  0.00  0.00    +0.000 NA
ATOM      6  C   UNL     1       7.194   4.583  16.708  0.00  0.00    +0.000 C 
ATOM      7  C   UNL     1       6.837   5.014  18.135  0.00  0.00    +0.000 C 
ATOM      8  N   UNL     1       5.426   5.287  18.282  0.00  0.00    +0.000 N 
ATOM      9  C   UNL     1       4.738   5.438  19.440  0.00  0.00    +0.000 A 
ATOM     10  C   UNL     1       3.437   5.706  19.059  0.00  0.00    +0.000 A 
ATOM     11  N   UNL     1       3.343   5.720  17.672  0.00  0.00    +0.000 NA
ATOM     12  C   UNL     1       4.565   5.458  17.233  0.00  0.00    +0.000 A 
ATOM     13  C   UNL     1       5.038   5.287  15.819  0.00  0.00    +0.000 C 
BRANCH   5  14
ATOM     14  C   UNL     1       6.981   4.995  14.339  0.00  0.00    +0.000 C 
BRANCH  14  16
ATOM     15  C   UNL     1       6.559   3.660  12.207  0.00  0.00    +0.000 C 
ATOM     16  C   UNL     1       6.210   3.845  13.675  0.00  0.00    +0.000 C 
ENDBRANCH  14  16
ENDBRANCH   5  14
ENDBRANCH   1  10
BRANCH   3  17
ATOM     17  C   UNL     1       1.052   7.594  21.256  0.00  0.00    +0.000 C 
BRANCH  17  18
ATOM     18  C   UNL     1       0.665   9.043  21.130  0.00  0.00    +0.000 A 
ATOM     19  C   UNL     1       0.223   9.771  22.243  0.00  0.00    +0.000 A 
ATOM     20  C   UNL     1      -0.191  11.095  22.097  0.00  0.00    +0.000 A 
ATOM     21  C   UNL     1      -0.169  11.697  20.837  0.00  0.00    +0.000 A 
ATOM     22  C   UNL     1       0.284  10.991  19.723  0.00  0.00    +0.000 A 
ATOM     23  C   UNL     1       0.705   9.669  19.875  0.00  0.00    +0.000 A 
BRANCH  22  24
ATOM     24  O   UNL     1       0.257  11.682  18.541  0.00  0.00    +0.000 OA
ATOM     25  C   UNL     1      -0.909  12.459  18.291  0.00  0.00    +0.000 C 
ENDBRANCH  22  24
ENDBRANCH  17  18
ENDBRANCH   3  17
TORSDOF 6
ENDMDL
MODEL 4
REMARK VINA RESULT:      -7.1      3.102      4.054
REMARK  Name = 
REMARK  8 active torsions:
REMARK  status: ('A' for Active; 'I' for Inactive)
REMARK    1  A    between atoms: C_1  and  C_2
REMARK    2  A    between atoms: C_2  and  C_3
REMARK    3  A    between atoms: C_3  and  N_4
REMARK    4  A    between atoms: C_9  and  C_10
REMARK    5  A    between atoms: N_12  and  C_13
REMARK    6  A    between atoms: C_13  and  C_14
REMARK    7  A    between atoms: C_18  and  O_19
REMARK    8  A    between atoms: O_19  and  C_20
REMARK                            x       y       z     vdW  Elec       q    Type
REMARK                         _______ _______ _______ _____ _____    ______ ____
ROOT
ATOM      1  C   UNL     1       1.584   8.655  19.748  0.00  0.00    +0.000 C 
ATOM      2  O   UNL     1       1.244   8.663  20.930  0.00  0.00    +0.000 OA
ATOM      3  N   UNL     1       1.273   9.667  18.875  0.00  0.00    +0.000 N 
ATOM      4  H   UNL     1       1.594   9.575  17.916  0.00  0.00    +0.000 HD
ENDROOT
BRANCH   1  10
ATOM      5  N   UNL     1       5.214   4.594  17.165  0.00  0.00    +0.000 NA
ATOM      6  C   UNL     1       4.250   3.640  17.754  0.00  0.00    +0.000 C 
ATOM      7  C   UNL     1       3.590   4.179  19.028  0.00  0.00    +0.000 C 
ATOM      8  N   UNL     1       3.209   5.567  18.895  0.00  0.00    +0.000 N 
ATOM      9  C   UNL     1       2.391   6.273  19.714  0.00  0.00    +0.000 A 
ATOM     10  C   UNL     1       2.358   7.548  19.185  0.00  0.00    +0.000 A 
ATOM     11  N   UNL     1       3.160   7.612  18.050  0.00  0.00    +0.000 NA
ATOM     12  C   UNL     1       3.656   6.393  17.901  0.00  0.00    +0.000 A 
ATOM     13  C   UNL     1       4.537   5.866  16.806  0.00  0.00    +0.000 C 
BRANCH   5  14
ATOM     14  C   UNL     1       5.882   3.968  16.006  0.00  0.00    +0.000 C 
BRANCH  14  16
ATOM     15  C   UNL     1       6.238   3.867  13.482  0.00  0.00    +0.000 C 
ATOM     16  C   UNL     1       5.418   4.447  14.623  0.00  0.00    +0.000 C 
ENDBRANCH  14  16
ENDBRANCH   5  14
ENDBRANCH   1  10
BRANCH   3  17
ATOM     17  C   UNL     1       0.524  10.819  19.315  0.00  0.00    +0.000 C 
BRANCH  17  18
ATOM     18  C   UNL     1      -0.837  10.874  18.673  0.00  0.00    +0.000 A 
ATOM     19  C   UNL     1      -1.870  11.634  19.237  0.00  0.00    +0.000 A 
ATOM     20  C   UNL     1      -3.142  11.625  18.664  0.00  0.00    +0.000 A 
ATOM     21  C   UNL     1      -3.389  10.852  17.528  0.00  0.00    +0.000 A 
ATOM     22  C   UNL     1      -2.366  10.103  16.946  0.00  0.00    +0.000 A 
ATOM     23  C   UNL     1      -1.093  10.122  17.517  0.00  0.00    +0.000 A 
BRANCH  22  24
ATOM     24  O   UNL     1      -2.727   9.383  15.838  0.00  0.00    +0.000 OA
ATOM     25  C   UNL     1      -3.019  10.135  14.665  0.00  0.00    +0.000 C 
ENDBRANCH  22  24
ENDBRANCH  17  18
ENDBRANCH   3  17
TORSDOF 6
ENDMDL
MODEL 5
REMARK VINA RESULT:      -7.1      2.444      9.269
REMARK  Name = 
REMARK  8 active torsions:
REMARK  status: ('A' for Active; 'I' for Inactive)
REMARK    1  A    between atoms: C_1  and  C_2
REMARK    2  A    between atoms: C_2  and  C_3
REMARK    3  A    between atoms: C_3  and  N_4
REMARK    4  A    between atoms: C_9  and  C_10
REMARK    5  A    between atoms: N_12  and  C_13
REMARK    6  A    between atoms: C_13  and  C_14
REMARK    7  A    between atoms: C_18  and  O_19
REMARK    8  A    between atoms: O_19  and  C_20
REMARK                            x       y       z     vdW  Elec       q    Type
REMARK                         _______ _______ _______ _____ _____    ______ ____
ROOT
ATOM      1  C   UNL     1       2.537   6.197  19.127  0.00  0.00    +0.000 C 
ATOM      2  O   UNL     1       2.093   5.560  18.172  0.00  0.00    +0.000 OA
ATOM      3  N   UNL     1       3.571   5.747  19.908  0.00  0.00    +0.000 N 
ATOM      4  H   UNL     1       3.871   6.338  20.677  0.00  0.00    +0.000 HD
ENDROOT
BRANCH   1  10
ATOM      5  N   UNL     1       0.431  11.398  21.330  0.00  0.00    +0.000 NA
ATOM      6  C   UNL     1       0.117  11.653  19.907  0.00  0.00    +0.000 C 
ATOM      7  C   UNL     1       1.075  10.931  18.953  0.00  0.00    +0.000 C 
ATOM      8  N   UNL     1       1.345   9.576  19.379  0.00  0.00    +0.000 N 
ATOM      9  C   UNL     1       1.929   8.592  18.653  0.00  0.00    +0.000 A 
ATOM     10  C   UNL     1       1.984   7.500  19.497  0.00  0.00    +0.000 A 
ATOM     11  N   UNL     1       1.436   7.828  20.733  0.00  0.00    +0.000 NA
ATOM     12  C   UNL     1       1.055   9.092  20.625  0.00  0.00    +0.000 A 
ATOM     13  C   UNL     1       0.343   9.947  21.632  0.00  0.00    +0.000 C 
BRANCH   5  14
ATOM     14  C   UNL     1      -0.464  12.205  22.184  0.00  0.00    +0.000 C 
BRANCH  14  16
ATOM     15  C   UNL     1      -2.761  12.202  23.293  0.00  0.00    +0.000 C 
ATOM     16  C   UNL     1      -1.488  11.418  23.014  0.00  0.00    +0.000 C 
ENDBRANCH  14  16
ENDBRANCH   5  14
ENDBRANCH   1  10
BRANCH   3  17
ATOM     17  C   UNL     1       4.207   4.480  19.635  0.00  0.00    +0.000 C 
BRANCH  17  18
ATOM     18  C   UNL     1       5.314   4.622  18.626  0.00  0.00    +0.000 A 
ATOM     19  C   UNL     1       6.494   5.310  18.940  0.00  0.00    +0.000 A 
ATOM     20  C   UNL     1       7.484   5.485  17.973  0.00  0.00    +0.000 A 
ATOM     21  C   UNL     1       7.299   4.977  16.686  0.00  0.00    +0.000 A 
ATOM     22  C   UNL     1       6.137   4.275  16.362  0.00  0.00    +0.000 A 
ATOM     23  C   UNL     1       5.152   4.095  17.336  0.00  0.00    +0.000 A 
BRANCH  22  24
ATOM     24  O   UNL     1       6.065   3.827  15.071  0.00  0.00    +0.000 OA
ATOM     25  C   UNL     1       6.775   4.587  14.099  0.00  0.00    +0.000 C 
ENDBRANCH  22  24
ENDBRANCH  17  18
ENDBRANCH   3  17
TORSDOF 6
ENDMDL
MODEL 6
REMARK VINA RESULT:      -7.0      1.306      1.435
REMARK  Name = 
REMARK  8 active torsions:
REMARK  status: ('A' for Active; 'I' for Inactive)
REMARK    1  A    between atoms: C_1  and  C_2
REMARK    2  A    between atoms: C_2  and  C_3
REMARK    3  A    between atoms: C_3  and  N_4
REMARK    4  A    between atoms: C_9  and  C_10
REMARK    5  A    between atoms: N_12  and  C_13
REMARK    6  A    between atoms: C_13  and  C_14
REMARK    7  A    between atoms: C_18  and  O_19
REMARK    8  A    between atoms: O_19  and  C_20
REMARK                            x       y       z     vdW  Elec       q    Type
REMARK                         _______ _______ _______ _____ _____    ______ ____
ROOT
ATOM      1  C   UNL     1       2.068   6.148  20.119  0.00  0.00    +0.000 C 
ATOM      2  O   UNL     1       1.531   5.222  20.727  0.00  0.00    +0.000 OA
ATOM      3  N   UNL     1       1.913   7.464  20.474  0.00  0.00    +0.000 N 
ATOM      4  H   UNL     1       2.392   8.161  19.914  0.00  0.00    +0.000 HD
ENDROOT
BRANCH   1  10
ATOM      5  N   UNL     1       5.273   4.495  15.288  0.00  0.00    +0.000 NA
ATOM      6  C   UNL     1       5.883   5.830  15.474  0.00  0.00    +0.000 C 
ATOM      7  C   UNL     1       4.923   6.832  16.125  0.00  0.00    +0.000 C 
ATOM      8  N   UNL     1       4.183   6.242  17.217  0.00  0.00    +0.000 N 
ATOM      9  C   UNL     1       3.454   6.893  18.157  0.00  0.00    +0.000 A 
ATOM     10  C   UNL     1       2.925   5.901  18.960  0.00  0.00    +0.000 A 
ATOM     11  N   UNL     1       3.333   4.653  18.501  0.00  0.00    +0.000 NA
ATOM     12  C   UNL     1       4.097   4.897  17.447  0.00  0.00    +0.000 A 
ATOM     13  C   UNL     1       4.859   3.924  16.595  0.00  0.00    +0.000 C 
BRANCH   5  14
ATOM     14  C   UNL     1       6.216   3.618  14.566  0.00  0.00    +0.000 C 
BRANCH  14  16
ATOM     15  C   UNL     1       5.630   3.142  12.129  0.00  0.00    +0.000 C 
ATOM     16  C   UNL     1       6.466   3.969  13.092  0.00  0.00    +0.000 C 
ENDBRANCH  14  16
ENDBRANCH   5  14
ENDBRANCH   1  10
BRANCH   3  17
ATOM     17  C   UNL     1       1.100   7.833  21.609  0.00  0.00    +0.000 C 
BRANCH  17  18
ATOM     18  C   UNL     1       0.398   9.145  21.384  0.00  0.00    +0.000 A 
ATOM     19  C   UNL     1       0.252   9.673  20.094  0.00  0.00    +0.000 A 
ATOM     20  C   UNL     1      -0.347  10.919  19.909  0.00  0.00    +0.000 A 
ATOM     21  C   UNL     1      -0.798  11.646  21.013  0.00  0.00    +0.000 A 
ATOM     22  C   UNL     1      -0.675  11.126  22.302  0.00  0.00    +0.000 A 
ATOM     23  C   UNL     1      -0.083   9.875  22.481  0.00  0.00    +0.000 A 
BRANCH  22  24
ATOM     24  O   UNL     1      -1.150  11.929  23.304  0.00  0.00    +0.000 OA
ATOM     25  C   UNL     1      -2.524  12.290  23.226  0.00  0.00    +0.000 C 
ENDBRANCH  22  24
ENDBRANCH  17  18
ENDBRANCH   3  17
TORSDOF 6
ENDMDL
MODEL 7
REMARK VINA RESULT:      -6.9      3.194      9.483
REMARK  Name = 
REMARK  8 active torsions:
REMARK  status: ('A' for Active; 'I' for Inactive)
REMARK    1  A    between atoms: C_1  and  C_2
REMARK    2  A    between atoms: C_2  and  C_3
REMARK    3  A    between atoms: C_3  and  N_4
REMARK    4  A    between atoms: C_9  and  C_10
REMARK    5  A    between atoms: N_12  and  C_13
REMARK    6  A    between atoms: C_13  and  C_14
REMARK    7  A    between atoms: C_18  and  O_19
REMARK    8  A    between atoms: O_19  and  C_20
REMARK                            x       y       z     vdW  Elec       q    Type
REMARK                         _______ _______ _______ _____ _____    ______ ____
ROOT
ATOM      1  C   UNL     1       2.076   8.396  18.453  0.00  0.00    +0.000 C 
ATOM      2  O   UNL     1       2.325   8.923  17.369  0.00  0.00    +0.000 OA
ATOM      3  N   UNL     1       2.537   7.152  18.803  0.00  0.00    +0.000 N 
ATOM      4  H   UNL     1       2.279   6.796  19.717  0.00  0.00    +0.000 HD
ENDROOT
BRANCH   1  10
ATOM      5  N   UNL     1      -1.646  11.489  22.049  0.00  0.00    +0.000 NA
ATOM      6  C   UNL     1      -0.861  10.826  23.113  0.00  0.00    +0.000 C 
ATOM      7  C   UNL     1      -0.296   9.471  22.672  0.00  0.00    +0.000 C 
ATOM      8  N   UNL     1       0.241   9.518  21.331  0.00  0.00    +0.000 N 
ATOM      9  C   UNL     1       1.032   8.593  20.734  0.00  0.00    +0.000 A 
ATOM     10  C   UNL     1       1.259   9.075  19.459  0.00  0.00    +0.000 A 
ATOM     11  N   UNL     1       0.602  10.289  19.288  0.00  0.00    +0.000 NA
ATOM     12  C   UNL     1      -0.000  10.529  20.443  0.00  0.00    +0.000 A 
ATOM     13  C   UNL     1      -0.803  11.731  20.851  0.00  0.00    +0.000 C 
BRANCH   5  14
ATOM     14  C   UNL     1      -2.241  12.733  22.577  0.00  0.00    +0.000 C 
BRANCH  14  16
ATOM     15  C   UNL     1      -4.036  12.635  24.387  0.00  0.00    +0.000 C 
ATOM     16  C   UNL     1      -3.742  12.677  22.896  0.00  0.00    +0.000 C 
ENDBRANCH  14  16
ENDBRANCH   5  14
ENDBRANCH   1  10
BRANCH   3  17
ATOM     17  C   UNL     1       3.363   6.389  17.898  0.00  0.00    +0.000 C 
BRANCH  17  18
ATOM     18  C   UNL     1       3.380   4.928  18.262  0.00  0.00    +0.000 A 
ATOM     19  C   UNL     1       3.549   3.943  17.281  0.00  0.00    +0.000 A 
ATOM     20  C   UNL     1       3.501   2.592  17.626  0.00  0.00    +0.000 A 
ATOM     21  C   UNL     1       3.280   2.220  18.953  0.00  0.00    +0.000 A 
ATOM     22  C   UNL     1       3.126   3.190  19.945  0.00  0.00    +0.000 A 
ATOM     23  C   UNL     1       3.184   4.540  19.596  0.00  0.00    +0.000 A 
BRANCH  22  24
ATOM     24  O   UNL     1       2.912   2.706  21.208  0.00  0.00    +0.000 OA
ATOM     25  C   UNL     1       1.564   2.710  21.665  0.00  0.00    +0.000 C 
ENDBRANCH  22  24
ENDBRANCH  17  18
ENDBRANCH   3  17
TORSDOF 6
ENDMDL
MODEL 8
REMARK VINA RESULT:      -6.9      3.172      3.718
REMARK  Name = 
REMARK  8 active torsions:
REMARK  status: ('A' for Active; 'I' for Inactive)
REMARK    1  A    between atoms: C_1  and  C_2
REMARK    2  A    between atoms: C_2  and  C_3
REMARK    3  A    between atoms: C_3  and  N_4
REMARK    4  A    between atoms: C_9  and  C_10
REMARK    5  A    between atoms: N_12  and  C_13
REMARK    6  A    between atoms: C_13  and  C_14
REMARK    7  A    between atoms: C_18  and  O_19
REMARK    8  A    between atoms: O_19  and  C_20
REMARK                            x       y       z     vdW  Elec       q    Type
REMARK                         _______ _______ _______ _____ _____    ______ ____
ROOT
ATOM      1  C   UNL     1       1.444   8.610  19.534  0.00  0.00    +0.000 C 
ATOM      2  O   UNL     1       1.115   8.494  20.714  0.00  0.00    +0.000 OA
ATOM      3  N   UNL     1       0.935   9.581  18.709  0.00  0.00    +0.000 N 
ATOM      4  H   UNL     1       1.263   9.600  17.748  0.00  0.00    +0.000 HD
ENDROOT
BRANCH   1  10
ATOM      5  N   UNL     1       5.769   5.474  16.740  0.00  0.00    +0.000 NA
ATOM      6  C   UNL     1       5.067   4.326  17.354  0.00  0.00    +0.000 C 
ATOM      7  C   UNL     1       4.360   4.697  18.663  0.00  0.00    +0.000 C 
ATOM      8  N   UNL     1       3.675   5.966  18.567  0.00  0.00    +0.000 N 
ATOM      9  C   UNL     1       2.757   6.467  19.429  0.00  0.00    +0.000 A 
ATOM     10  C   UNL     1       2.419   7.707  18.922  0.00  0.00    +0.000 A 
ATOM     11  N   UNL     1       3.136   7.954  17.756  0.00  0.00    +0.000 NA
ATOM     12  C   UNL     1       3.884   6.877  17.568  0.00  0.00    +0.000 A 
ATOM     13  C   UNL     1       4.811   6.565  16.429  0.00  0.00    +0.000 C 
BRANCH   5  14
ATOM     14  C   UNL     1       6.508   5.019  15.545  0.00  0.00    +0.000 C 
BRANCH  14  16
ATOM     15  C   UNL     1       6.393   3.895  13.258  0.00  0.00    +0.000 C 
ATOM     16  C   UNL     1       5.771   4.021  14.639  0.00  0.00    +0.000 C 
ENDBRANCH  14  16
ENDBRANCH   5  14
ENDBRANCH   1  10
BRANCH   3  17
ATOM     17  C   UNL     1      -0.026  10.540  19.199  0.00  0.00    +0.000 C 
BRANCH  17  18
ATOM     18  C   UNL     1      -1.286  10.533  18.376  0.00  0.00    +0.000 A 
ATOM     19  C   UNL     1      -1.379   9.766  17.207  0.00  0.00    +0.000 A 
ATOM     20  C   UNL     1      -2.531   9.819  16.422  0.00  0.00    +0.000 A 
ATOM     21  C   UNL     1      -3.594  10.642  16.800  0.00  0.00    +0.000 A 
ATOM     22  C   UNL     1      -3.522  11.400  17.969  0.00  0.00    +0.000 A 
ATOM     23  C   UNL     1      -2.371  11.337  18.756  0.00  0.00    +0.000 A 
BRANCH  22  24
ATOM     24  O   UNL     1      -4.622  12.170  18.236  0.00  0.00    +0.000 OA
ATOM     25  C   UNL     1      -5.872  11.666  17.777  0.00  0.00    +0.000 C 
ENDBRANCH  22  24
ENDBRANCH  17  18
ENDBRANCH   3  17
TORSDOF 6
ENDMDL
MODEL 9
REMARK VINA RESULT:      -6.9      3.359      9.480
REMARK  Name = 
REMARK  8 active torsions:
REMARK  status: ('A' for Active; 'I' for Inactive)
REMARK    1  A    between atoms: C_1  and  C_2
REMARK    2  A    between atoms: C_2  and  C_3
REMARK    3  A    between atoms: C_3  and  N_4
REMARK    4  A    between atoms: C_9  and  C_10
REMARK    5  A    between atoms: N_12  and  C_13
REMARK    6  A    between atoms: C_13  and  C_14
REMARK    7  A    between atoms: C_18  and  O_19
REMARK    8  A    between atoms: O_19  and  C_20
REMARK                            x       y       z     vdW  Elec       q    Type
REMARK                         _______ _______ _______ _____ _____    ______ ____
ROOT
ATOM      1  C   UNL     1       1.819   8.769  18.575  0.00  0.00    +0.000 C 
ATOM      2  O   UNL     1       2.051   9.208  17.448  0.00  0.00    +0.000 OA
ATOM      3  N   UNL     1       2.327   7.580  19.031  0.00  0.00    +0.000 N 
ATOM      4  H   UNL     1       2.081   7.295  19.974  0.00  0.00    +0.000 HD
ENDROOT
BRANCH   1  10
ATOM      5  N   UNL     1      -2.030  12.016  21.889  0.00  0.00    +0.000 NA
ATOM      6  C   UNL     1      -1.220  11.483  23.006  0.00  0.00    +0.000 C 
ATOM      7  C   UNL     1      -0.600  10.118  22.686  0.00  0.00    +0.000 C 
ATOM      8  N   UNL     1      -0.063  10.067  21.345  0.00  0.00    +0.000 N 
ATOM      9  C   UNL     1       0.765   9.126  20.831  0.00  0.00    +0.000 A 
ATOM     10  C   UNL     1       0.974   9.501  19.518  0.00  0.00    +0.000 A 
ATOM     11  N   UNL     1       0.268  10.667  19.241  0.00  0.00    +0.000 NA
ATOM     12  C   UNL     1      -0.345  10.985  20.371  0.00  0.00    +0.000 A 
ATOM     13  C   UNL     1      -1.196  12.185  20.672  0.00  0.00    +0.000 C 
BRANCH   5  14
ATOM     14  C   UNL     1      -2.676  13.277  22.306  0.00  0.00    +0.000 C 
BRANCH  14  16
ATOM     15  C   UNL     1      -4.970  12.644  21.386  0.00  0.00    +0.000 C 
ATOM     16  C   UNL     1      -4.188  13.204  22.563  0.00  0.00    +0.000 C 
ENDBRANCH  14  16
ENDBRANCH   5  14
ENDBRANCH   1  10
BRANCH   3  17
ATOM     17  C   UNL     1       3.185   6.772  18.197  0.00  0.00    +0.000 C 
BRANCH  17  18
ATOM     18  C   UNL     1       2.811   5.316  18.262  0.00  0.00    +0.000 A 
ATOM     19  C   UNL     1       3.192   4.427  17.248  0.00  0.00    +0.000 A 
ATOM     20  C   UNL     1       2.785   3.094  17.292  0.00  0.00    +0.000 A 
ATOM     21  C   UNL     1       1.992   2.643  18.349  0.00  0.00    +0.000 A 
ATOM     22  C   UNL     1       1.617   3.511  19.375  0.00  0.00    +0.000 A 
ATOM     23  C   UNL     1       2.035   4.843  19.330  0.00  0.00    +0.000 A 
BRANCH  22  24
ATOM     24  O   UNL     1       0.838   2.958  20.355  0.00  0.00    +0.000 OA
ATOM     25  C   UNL     1       1.451   2.788  21.628  0.00  0.00    +0.000 C 
ENDBRANCH  22  24
ENDBRANCH  17  18
ENDBRANCH   3  17
TORSDOF 6
ENDMDL
