MODEL 1
REMARK VINA RESULT:      -8.1      0.000      0.000
REMARK  Name = 
REMARK  6 active torsions:
REMARK  status: ('A' for Active; 'I' for Inactive)
REMARK    1  A    between atoms: C_2  and  C_3
REMARK    2  A    between atoms: C_6  and  C_7
REMARK    3  A    between atoms: C_7  and  C_8
REMARK    4  A    between atoms: C_7  and  C_20
REMARK    5  A    between atoms: C_9  and  O_10
REMARK    6  A    between atoms: C_21  and  O_22
REMARK                            x       y       z     vdW  Elec       q    Type
REMARK                         _______ _______ _______ _____ _____    ______ ____
ROOT
ATOM      1  C   UNL     1       0.200  11.271  20.193  0.00  0.00    +0.000 C 
ENDROOT
BRANCH   1   2
ATOM      2  C   UNL     1      -1.300  11.443  19.900  0.00  0.00    +0.000 A 
ATOM      3  C   UNL     1      -1.885  11.186  18.710  0.00  0.00    +0.000 A 
ATOM      4  C   UNL     1      -3.271  11.580  18.452  0.00  0.00    +0.000 A 
ATOM      5  C   UNL     1      -3.924  11.339  17.238  0.00  0.00    +0.000 A 
ATOM      6  C   UNL     1      -5.217  11.830  17.017  0.00  0.00    +0.000 A 
ATOM      7  C   UNL     1      -5.864  12.569  18.005  0.00  0.00    +0.000 A 
ATOM      8  C   UNL     1      -5.231  12.800  19.223  0.00  0.00    +0.000 A 
ATOM      9  C   UNL     1      -3.951  12.289  19.433  0.00  0.00    +0.000 A 
ATOM     10  O   UNL     1      -3.379  12.506  20.692  0.00  0.00    +0.000 OA
ATOM     11  C   UNL     1      -2.137  11.984  21.017  0.00  0.00    +0.000 A 
ATOM     12  O   UNL     1      -1.732  12.022  22.174  0.00  0.00    +0.000 OA
BRANCH   3  13
ATOM     13  O   UNL     1      -1.247  10.627  17.626  0.00  0.00    +0.000 OA
ATOM     14  H   UNL     1      -1.264   9.662  17.685  0.00  0.00    +0.000 HD
ENDBRANCH   3  13
ENDBRANCH   1   2
BRANCH   1  15
ATOM     15  C   UNL     1       0.780   9.884  19.830  0.00  0.00    +0.000 A 
ATOM     16  C   UNL     1       1.426   9.550  18.690  0.00  0.00    +0.000 A 
ATOM     17  C   UNL     1       2.212   8.321  18.593  0.00  0.00    +0.000 A 
ATOM     18  C   UNL     1       3.053   8.031  17.507  0.00  0.00    +0.000 A 
ATOM     19  C   UNL     1       3.820   6.862  17.492  0.00  0.00    +0.000 A 
ATOM     20  C   UNL     1       3.762   5.973  18.565  0.00  0.00    +0.000 A 
ATOM     21  C   UNL     1       2.943   6.258  19.656  0.00  0.00    +0.000 A 
ATOM     22  C   UNL     1       2.185   7.429  19.655  0.00  0.00    +0.000 A 
ATOM     23  O   UNL     1       1.368   7.672  20.767  0.00  0.00    +0.000 OA
ATOM     24  C   UNL     1       0.553   8.793  20.823  0.00  0.00    +0.000 A 
ATOM     25  O   UNL     1      -0.352   8.857  21.649  0.00  0.00    +0.000 OA
BRANCH  16  26
ATOM     26  O   UNL     1       1.509  10.355  17.571  0.00  0.00    +0.000 OA
ATOM     27  H   UNL     1       1.012   9.950  16.849  0.00  0.00    +0.000 HD
ENDBRANCH  16  26
ENDBRANCH   1  15
BRANCH   1  31
ATOM     28  C   UNL     1       2.365  14.811  18.789  0.00  0.00    +0.000 A 
ATOM     29  C   UNL     1       2.938  13.956  19.730  0.00  0.00    +0.000 A 
ATOM     30  C   UNL     1       2.242  12.816  20.152  0.00  0.00    +0.000 A 
ATOM     31  C   UNL     1       0.949  12.523  19.674  0.00  0.00    +0.000 A 
ATOM     32  C   UNL     1       0.378  13.410  18.745  0.00  0.00    +0.000 A 
ATOM     33  C   UNL     1       1.090  14.532  18.293  0.00  0.00    +0.000 A 
BRANCH  28  35
ATOM     34  N   UNL     1       3.663  16.906  17.978  0.00  0.00    +0.000 NA
ATOM     35  C   UNL     1       3.085  15.961  18.337  0.00  0.00    +0.000 C 
ENDBRANCH  28  35
ENDBRANCH   1  31
TORSDOF 6
ENDMDL
MODEL 2
REMARK VINA RESULT:      -7.9      2.654      6.939
REMARK  Name = 
REMARK  6 active torsions:
REMARK  status: ('A' for Active; 'I' for Inactive)
REMARK    1  A    between atoms: C_2  and  C_3
REMARK    2  A    between atoms: C_6  and  C_7
REMARK    3  A    between atoms: C_7  and  C_8
REMARK    4  A    between atoms: C_7  and  C_20
REMARK    5  A    between atoms: C_9  and  O_10
REMARK    6  A    between atoms: C_21  and  O_22
REMARK                            x       y       z     vdW  Elec       q    Type
REMARK                         _______ _______ _______ _____ _____    ______ ____
ROOT
ATOM      1  C   UNL     1       0.088  10.989  19.497  0.00  0.00    +0.000 C 
ENDROOT
BRANCH   1   2
ATOM      2  C   UNL     1       0.982   9.740  19.581  0.00  0.00    +0.000 A 
ATOM      3  C   UNL     1       1.752   9.275  18.573  0.00  0.00    +0.000 A 
ATOM      4  C   UNL     1       2.400   7.967  18.663  0.00  0.00    +0.000 A 
ATOM      5  C   UNL     1       3.206   7.439  17.647  0.00  0.00    +0.000 A 
ATOM      6  C   UNL     1       3.716   6.139  17.749  0.00  0.00    +0.000 A 
ATOM      7  C   UNL     1       3.420   5.355  18.863  0.00  0.00    +0.000 A 
ATOM      8  C   UNL     1       2.634   5.875  19.887  0.00  0.00    +0.000 A 
ATOM      9  C   UNL     1       2.148   7.178  19.777  0.00  0.00    +0.000 A 
ATOM     10  O   UNL     1       1.406   7.671  20.856  0.00  0.00    +0.000 OA
ATOM     11  C   UNL     1       0.934   8.974  20.868  0.00  0.00    +0.000 A 
ATOM     12  O   UNL     1       0.449   9.449  21.889  0.00  0.00    +0.000 OA
BRANCH   3  13
ATOM     13  O   UNL     1       1.936   9.915  17.369  0.00  0.00    +0.000 OA
ATOM     14  H   UNL     1       1.802  10.868  17.468  0.00  0.00    +0.000 HD
ENDBRANCH   3  13
ENDBRANCH   1   2
BRANCH   1  15
ATOM     15  C   UNL     1       0.832  12.334  19.664  0.00  0.00    +0.000 A 
ATOM     16  C   UNL     1       1.658  12.919  18.766  0.00  0.00    +0.000 A 
ATOM     17  C   UNL     1       2.038  14.326  18.887  0.00  0.00    +0.000 A 
ATOM     18  C   UNL     1       2.727  15.023  17.883  0.00  0.00    +0.000 A 
ATOM     19  C   UNL     1       3.020  16.382  18.032  0.00  0.00    +0.000 A 
ATOM     20  C   UNL     1       2.622  17.061  19.182  0.00  0.00    +0.000 A 
ATOM     21  C   UNL     1       1.923  16.384  20.179  0.00  0.00    +0.000 A 
ATOM     22  C   UNL     1       1.638  15.028  20.014  0.00  0.00    +0.000 A 
ATOM     23  O   UNL     1       0.943  14.383  21.045  0.00  0.00    +0.000 OA
ATOM     24  C   UNL     1       0.659  13.027  20.974  0.00  0.00    +0.000 A 
ATOM     25  O   UNL     1       0.309  12.417  21.980  0.00  0.00    +0.000 OA
BRANCH  16  26
ATOM     26  O   UNL     1       2.124  12.311  17.618  0.00  0.00    +0.000 OA
ATOM     27  H   UNL     1       2.345  11.391  17.810  0.00  0.00    +0.000 HD
ENDBRANCH  16  26
ENDBRANCH   1  15
BRANCH   1  31
ATOM     28  C   UNL     1      -2.557  10.482  16.042  0.00  0.00    +0.000 A 
ATOM     29  C   UNL     1      -1.907   9.385  16.605  0.00  0.00    +0.000 A 
ATOM     30  C   UNL     1      -1.082   9.560  17.724  0.00  0.00    +0.000 A 
ATOM     31  C   UNL     1      -0.859  10.835  18.282  0.00  0.00    +0.000 A 
ATOM     32  C   UNL     1      -1.502  11.932  17.685  0.00  0.00    +0.000 A 
ATOM     33  C   UNL     1      -2.359  11.752  16.588  0.00  0.00    +0.000 A 
BRANCH  28  35
ATOM     34  N   UNL     1      -4.117  10.143  13.997  0.00  0.00    +0.000 NA
ATOM     35  C   UNL     1      -3.419  10.302  14.916  0.00  0.00    +0.000 C 
ENDBRANCH  28  35
ENDBRANCH   1  31
TORSDOF 6
ENDMDL
MODEL 3
REMARK VINA RESULT:      -7.6      1.089      1.320
REMARK  Name = 
REMARK  6 active torsions:
REMARK  status: ('A' for Active; 'I' for Inactive)
REMARK    1  A    between atoms: C_2  and  C_3
REMARK    2  A    between atoms: C_6  and  C_7
REMARK    3  A    between atoms: C_7  and  C_8
REMARK    4  A    between atoms: C_7  and  C_20
REMARK    5  A    between atoms: C_9  and  O_10
REMARK    6  A    between atoms: C_21  and  O_22
REMARK                            x       y       z     vdW  Elec       q    Type
REMARK                         _______ _______ _______ _____ _____    ______ ____
ROOT
ATOM      1  C   UNL     1       0.211  11.882  20.942  0.00  0.00    +0.000 C 
ENDROOT
BRANCH   1   2
ATOM      2  C   UNL     1      -1.304  12.136  21.022  0.00  0.00    +0.000 A 
ATOM      3  C   UNL     1      -2.173  11.935  20.008  0.00  0.00    +0.000 A 
ATOM      4  C   UNL     1      -3.556  12.404  20.097  0.00  0.00    +0.000 A 
ATOM      5  C   UNL     1      -4.495  12.223  19.075  0.00  0.00    +0.000 A 
ATOM      6  C   UNL     1      -5.774  12.783  19.178  0.00  0.00    +0.000 A 
ATOM      7  C   UNL     1      -6.122  13.533  20.301  0.00  0.00    +0.000 A 
ATOM      8  C   UNL     1      -5.203  13.704  21.331  0.00  0.00    +0.000 A 
ATOM      9  C   UNL     1      -3.939  13.125  21.219  0.00  0.00    +0.000 A 
ATOM     10  O   UNL     1      -3.070  13.285  22.304  0.00  0.00    +0.000 OA
ATOM     11  C   UNL     1      -1.816  12.694  22.314  0.00  0.00    +0.000 A 
ATOM     12  O   UNL     1      -1.142  12.686  23.339  0.00  0.00    +0.000 OA
BRANCH   3  13
ATOM     13  O   UNL     1      -1.847  11.368  18.796  0.00  0.00    +0.000 OA
ATOM     14  H   UNL     1      -1.762  10.409  18.884  0.00  0.00    +0.000 HD
ENDBRANCH   3  13
ENDBRANCH   1   2
BRANCH   1  15
ATOM     15  C   UNL     1       0.610  10.455  20.498  0.00  0.00    +0.000 A 
ATOM     16  C   UNL     1       0.987  10.069  19.258  0.00  0.00    +0.000 A 
ATOM     17  C   UNL     1       1.652   8.787  19.030  0.00  0.00    +0.000 A 
ATOM     18  C   UNL     1       2.234   8.431  17.803  0.00  0.00    +0.000 A 
ATOM     19  C   UNL     1       2.900   7.211  17.658  0.00  0.00    +0.000 A 
ATOM     20  C   UNL     1       3.000   6.336  18.738  0.00  0.00    +0.000 A 
ATOM     21  C   UNL     1       2.441   6.684  19.966  0.00  0.00    +0.000 A 
ATOM     22  C   UNL     1       1.780   7.906  20.093  0.00  0.00    +0.000 A 
ATOM     23  O   UNL     1       1.222   8.213  21.342  0.00  0.00    +0.000 OA
ATOM     24  C   UNL     1       0.514   9.389  21.538  0.00  0.00    +0.000 A 
ATOM     25  O   UNL     1      -0.199   9.522  22.527  0.00  0.00    +0.000 OA
BRANCH  16  26
ATOM     26  O   UNL     1       0.896  10.859  18.129  0.00  0.00    +0.000 OA
ATOM     27  H   UNL     1       1.230  11.743  18.331  0.00  0.00    +0.000 HD
ENDBRANCH  16  26
ENDBRANCH   1  15
BRANCH   1  31
ATOM     28  C   UNL     1       2.142  15.250  18.912  0.00  0.00    +0.000 A 
ATOM     29  C   UNL     1       2.899  14.324  19.629  0.00  0.00    +0.000 A 
ATOM     30  C   UNL     1       2.269  13.240  20.253  0.00  0.00    +0.000 A 
ATOM     31  C   UNL     1       0.870  13.075  20.208  0.00  0.00    +0.000 A 
ATOM     32  C   UNL     1       0.121  14.033  19.503  0.00  0.00    +0.000 A 
ATOM     33  C   UNL     1       0.755  15.098  18.844  0.00  0.00    +0.000 A 
BRANCH  28  35
ATOM     34  N   UNL     1       3.321  17.230  17.721  0.00  0.00    +0.000 NA
ATOM     35  C   UNL     1       2.785  16.343  18.252  0.00  0.00    +0.000 C 
ENDBRANCH  28  35
ENDBRANCH   1  31
TORSDOF 6
ENDMDL
MODEL 4
REMARK VINA RESULT:      -7.5      1.800      2.376
REMARK  Name = 
REMARK  6 active torsions:
REMARK  status: ('A' for Active; 'I' for Inactive)
REMARK    1  A    between atoms: C_2  and  C_3
REMARK    2  A    between atoms: C_6  and  C_7
REMARK    3  A    between atoms: C_7  and  C_8
REMARK    4  A    between atoms: C_7  and  C_20
REMARK    5  A    between atoms: C_9  and  O_10
REMARK    6  A    between atoms: C_21  and  O_22
REMARK                            x       y       z     vdW  Elec       q    Type
REMARK                         _______ _______ _______ _____ _____    ______ ____
ROOT
ATOM      1  C   UNL     1      -0.025  12.701  21.232  0.00  0.00    +0.000 C 
ENDROOT
BRANCH   1   2
ATOM      2  C   UNL     1      -1.500  12.923  21.606  0.00  0.00    +0.000 A 
ATOM      3  C   UNL     1      -2.550  12.606  20.817  0.00  0.00    +0.000 A 
ATOM      4  C   UNL     1      -3.904  13.047  21.153  0.00  0.00    +0.000 A 
ATOM      5  C   UNL     1      -5.025  12.748  20.370  0.00  0.00    +0.000 A 
ATOM      6  C   UNL     1      -6.279  13.283  20.690  0.00  0.00    +0.000 A 
ATOM      7  C   UNL     1      -6.420  14.125  21.791  0.00  0.00    +0.000 A 
ATOM      8  C   UNL     1      -5.316  14.416  22.588  0.00  0.00    +0.000 A 
ATOM      9  C   UNL     1      -4.079  13.861  22.264  0.00  0.00    +0.000 A 
ATOM     10  O   UNL     1      -3.012  14.143  23.125  0.00  0.00    +0.000 OA
ATOM     11  C   UNL     1      -1.758  13.588  22.923  0.00  0.00    +0.000 A 
ATOM     12  O   UNL     1      -0.888  13.692  23.780  0.00  0.00    +0.000 OA
BRANCH   3  13
ATOM     13  O   UNL     1      -2.456  11.937  19.618  0.00  0.00    +0.000 OA
ATOM     14  H   UNL     1      -2.142  11.033  19.759  0.00  0.00    +0.000 HD
ENDBRANCH   3  13
ENDBRANCH   1   2
BRANCH   1  15
ATOM     15  C   UNL     1       0.324  11.263  20.783  0.00  0.00    +0.000 A 
ATOM     16  C   UNL     1       0.474  10.826  19.511  0.00  0.00    +0.000 A 
ATOM     17  C   UNL     1       1.120   9.547  19.218  0.00  0.00    +0.000 A 
ATOM     18  C   UNL     1       1.473   9.146  17.920  0.00  0.00    +0.000 A 
ATOM     19  C   UNL     1       2.134   7.933  17.705  0.00  0.00    +0.000 A 
ATOM     20  C   UNL     1       2.458   7.112  18.784  0.00  0.00    +0.000 A 
ATOM     21  C   UNL     1       2.128   7.507  20.079  0.00  0.00    +0.000 A 
ATOM     22  C   UNL     1       1.469   8.721  20.275  0.00  0.00    +0.000 A 
ATOM     23  O   UNL     1       1.146   9.075  21.592  0.00  0.00    +0.000 OA
ATOM     24  C   UNL     1       0.454  10.245  21.866  0.00  0.00    +0.000 A 
ATOM     25  O   UNL     1      -0.066  10.411  22.966  0.00  0.00    +0.000 OA
BRANCH  16  26
ATOM     26  O   UNL     1       0.152  11.560  18.387  0.00  0.00    +0.000 OA
ATOM     27  H   UNL     1       0.840  11.440  17.720  0.00  0.00    +0.000 HD
ENDBRANCH  16  26
ENDBRANCH   1  15
BRANCH   1  31
ATOM     28  C   UNL     1       1.343  16.008  18.706  0.00  0.00    +0.000 A 
ATOM     29  C   UNL     1       2.260  15.209  19.386  0.00  0.00    +0.000 A 
ATOM     30  C   UNL     1       1.808  14.141  20.172  0.00  0.00    +0.000 A 
ATOM     31  C   UNL     1       0.434  13.870  20.326  0.00  0.00    +0.000 A 
ATOM     32  C   UNL     1      -0.477  14.702  19.652  0.00  0.00    +0.000 A 
ATOM     33  C   UNL     1      -0.023  15.748  18.834  0.00  0.00    +0.000 A 
BRANCH  28  35
ATOM     34  N   UNL     1       2.177  17.950  17.201  0.00  0.00    +0.000 NA
ATOM     35  C   UNL     1       1.803  17.083  17.883  0.00  0.00    +0.000 C 
ENDBRANCH  28  35
ENDBRANCH   1  31
TORSDOF 6
ENDMDL
MODEL 5
REMARK VINA RESULT:      -7.5      2.575      7.052
REMARK  Name = 
REMARK  6 active torsions:
REMARK  status: ('A' for Active; 'I' for Inactive)
REMARK    1  A    between atoms: C_2  and  C_3
REMARK    2  A    between atoms: C_6  and  C_7
REMARK    3  A    between atoms: C_7  and  C_8
REMARK    4  A    between atoms: C_7  and  C_20
REMARK    5  A    between atoms: C_9  and  O_10
REMARK    6  A    between atoms: C_21  and  O_22
REMARK                            x       y       z     vdW  Elec       q    Type
REMARK                         _______ _______ _______ _____ _____    ______ ____
ROOT
ATOM      1  C   UNL     1      -0.698  10.921  19.568  0.00  0.00    +0.000 C 
ENDROOT
BRANCH   1   2
ATOM      2  C   UNL     1       0.386   9.835  19.674  0.00  0.00    +0.000 A 
ATOM      3  C   UNL     1       1.215   9.474  18.671  0.00  0.00    +0.000 A 
ATOM      4  C   UNL     1       2.066   8.290  18.787  0.00  0.00    +0.000 A 
ATOM      5  C   UNL     1       2.942   7.872  17.777  0.00  0.00    +0.000 A 
ATOM      6  C   UNL     1       3.656   6.675  17.907  0.00  0.00    +0.000 A 
ATOM      7  C   UNL     1       3.495   5.883  19.042  0.00  0.00    +0.000 A 
ATOM      8  C   UNL     1       2.641   6.296  20.060  0.00  0.00    +0.000 A 
ATOM      9  C   UNL     1       1.951   7.501  19.923  0.00  0.00    +0.000 A 
ATOM     10  O   UNL     1       1.144   7.896  20.996  0.00  0.00    +0.000 OA
ATOM     11  C   UNL     1       0.468   9.106  20.980  0.00  0.00    +0.000 A 
ATOM     12  O   UNL     1      -0.081   9.523  21.994  0.00  0.00    +0.000 OA
BRANCH   3  13
ATOM     13  O   UNL     1       1.288  10.104  17.449  0.00  0.00    +0.000 OA
ATOM     14  H   UNL     1       2.151  10.524  17.336  0.00  0.00    +0.000 HD
ENDBRANCH   3  13
ENDBRANCH   1   2
BRANCH   1  15
ATOM     15  C   UNL     1      -0.220  12.353  19.902  0.00  0.00    +0.000 A 
ATOM     16  C   UNL     1       0.707  13.074  19.231  0.00  0.00    +0.000 A 
ATOM     17  C   UNL     1       0.839  14.517  19.430  0.00  0.00    +0.000 A 
ATOM     18  C   UNL     1       1.644  15.333  18.621  0.00  0.00    +0.000 A 
ATOM     19  C   UNL     1       1.693  16.715  18.828  0.00  0.00    +0.000 A 
ATOM     20  C   UNL     1       0.932  17.298  19.840  0.00  0.00    +0.000 A 
ATOM     21  C   UNL     1       0.115  16.500  20.639  0.00  0.00    +0.000 A 
ATOM     22  C   UNL     1       0.079  15.124  20.419  0.00  0.00    +0.000 A 
ATOM     23  O   UNL     1      -0.747  14.357  21.252  0.00  0.00    +0.000 OA
ATOM     24  C   UNL     1      -0.807  12.977  21.124  0.00  0.00    +0.000 A 
ATOM     25  O   UNL     1      -1.300  12.295  22.017  0.00  0.00    +0.000 OA
BRANCH  16  26
ATOM     26  O   UNL     1       1.522  12.572  18.237  0.00  0.00    +0.000 OA
ATOM     27  H   UNL     1       1.109  11.790  17.849  0.00  0.00    +0.000 HD
ENDBRANCH  16  26
ENDBRANCH   1  15
BRANCH   1  31
ATOM     28  C   UNL     1      -2.913  10.406  15.824  0.00  0.00    +0.000 A 
ATOM     29  C   UNL     1      -2.448  11.663  16.206  0.00  0.00    +0.000 A 
ATOM     30  C   UNL     1      -1.722  11.808  17.395  0.00  0.00    +0.000 A 
ATOM     31  C   UNL     1      -1.475  10.711  18.245  0.00  0.00    +0.000 A 
ATOM     32  C   UNL     1      -1.973   9.456  17.855  0.00  0.00    +0.000 A 
ATOM     33  C   UNL     1      -2.668   9.304  16.645  0.00  0.00    +0.000 A 
BRANCH  28  35
ATOM     34  N   UNL     1      -4.211  10.116  13.596  0.00  0.00    +0.000 NA
ATOM     35  C   UNL     1      -3.633  10.251  14.598  0.00  0.00    +0.000 C 
ENDBRANCH  28  35
ENDBRANCH   1  31
TORSDOF 6
ENDMDL
MODEL 6
REMARK VINA RESULT:      -7.4      3.544      7.346
REMARK  Name = 
REMARK  6 active torsions:
REMARK  status: ('A' for Active; 'I' for Inactive)
REMARK    1  A    between atoms: C_2  and  C_3
REMARK    2  A    between atoms: C_6  and  C_7
REMARK    3  A    between atoms: C_7  and  C_8
REMARK    4  A    between atoms: C_7  and  C_20
REMARK    5  A    between atoms: C_9  and  O_10
REMARK    6  A    between atoms: C_21  and  O_22
REMARK                            x       y       z     vdW  Elec       q    Type
REMARK                         _______ _______ _______ _____ _____    ______ ____
ROOT
ATOM      1  C   UNL     1      -1.119  11.666  19.948  0.00  0.00    +0.000 C 
ENDROOT
BRANCH   1   2
ATOM      2  C   UNL     1       0.032  12.631  19.617  0.00  0.00    +0.000 A 
ATOM      3  C   UNL     1      -0.106  13.965  19.452  0.00  0.00    +0.000 A 
ATOM      4  C   UNL     1       0.994  14.775  18.928  0.00  0.00    +0.000 A 
ATOM      5  C   UNL     1       0.903  16.159  18.736  0.00  0.00    +0.000 A 
ATOM      6  C   UNL     1       1.954  16.864  18.137  0.00  0.00    +0.000 A 
ATOM      7  C   UNL     1       3.101  16.191  17.720  0.00  0.00    +0.000 A 
ATOM      8  C   UNL     1       3.210  14.818  17.921  0.00  0.00    +0.000 A 
ATOM      9  C   UNL     1       2.161  14.135  18.535  0.00  0.00    +0.000 A 
ATOM     10  O   UNL     1       2.340  12.765  18.760  0.00  0.00    +0.000 OA
ATOM     11  C   UNL     1       1.381  12.012  19.419  0.00  0.00    +0.000 A 
ATOM     12  O   UNL     1       1.629  10.865  19.773  0.00  0.00    +0.000 OA
BRANCH   3  13
ATOM     13  O   UNL     1      -1.271  14.665  19.668  0.00  0.00    +0.000 OA
ATOM     14  H   UNL     1      -1.098  15.617  19.664  0.00  0.00    +0.000 HD
ENDBRANCH   3  13
ENDBRANCH   1   2
BRANCH   1  15
ATOM     15  C   UNL     1      -2.048  12.128  21.095  0.00  0.00    +0.000 A 
ATOM     16  C   UNL     1      -3.260  12.714  20.968  0.00  0.00    +0.000 A 
ATOM     17  C   UNL     1      -4.183  12.804  22.099  0.00  0.00    +0.000 A 
ATOM     18  C   UNL     1      -5.517  13.221  21.970  0.00  0.00    +0.000 A 
ATOM     19  C   UNL     1      -6.367  13.241  23.078  0.00  0.00    +0.000 A 
ATOM     20  C   UNL     1      -5.898  12.837  24.328  0.00  0.00    +0.000 A 
ATOM     21  C   UNL     1      -4.581  12.405  24.466  0.00  0.00    +0.000 A 
ATOM     22  C   UNL     1      -3.746  12.391  23.348  0.00  0.00    +0.000 A 
ATOM     23  O   UNL     1      -2.425  11.961  23.533  0.00  0.00    +0.000 OA
ATOM     24  C   UNL     1      -1.522  11.957  22.481  0.00  0.00    +0.000 A 
ATOM     25  O   UNL     1      -0.319  11.852  22.701  0.00  0.00    +0.000 OA
BRANCH  16  26
ATOM     26  O   UNL     1      -3.790  13.169  19.777  0.00  0.00    +0.000 OA
ATOM     27  H   UNL     1      -4.707  13.439  19.918  0.00  0.00    +0.000 HD
ENDBRANCH  16  26
ENDBRANCH   1  15
BRANCH   1  31
ATOM     28  C   UNL     1      -2.987  10.471  16.170  0.00  0.00    +0.000 A 
ATOM     29  C   UNL     1      -2.291  11.676  16.268  0.00  0.00    +0.000 A 
ATOM     30  C   UNL     1      -1.680  12.032  17.477  0.00  0.00    +0.000 A 
ATOM     31  C   UNL     1      -1.780  11.217  18.622  0.00  0.00    +0.000 A 
ATOM     32  C   UNL     1      -2.507  10.020  18.511  0.00  0.00    +0.000 A 
ATOM     33  C   UNL     1      -3.087   9.643  17.289  0.00  0.00    +0.000 A 
BRANCH  28  35
ATOM     34  N   UNL     1      -4.083   9.798  13.918  0.00  0.00    +0.000 NA
ATOM     35  C   UNL     1      -3.590  10.093  14.930  0.00  0.00    +0.000 C 
ENDBRANCH  28  35
ENDBRANCH   1  31
TORSDOF 6
ENDMDL
MODEL 7
REMARK VINA RESULT:      -7.4      1.622      2.155
REMARK  Name = 
REMARK  6 active torsions:
REMARK  status: ('A' for Active; 'I' for Inactive)
REMARK    1  A    between atoms: C_2  and  C_3
REMARK    2  A    between atoms: C_6  and  C_7
REMARK    3  A    between atoms: C_7  and  C_8
REMARK    4  A    between atoms: C_7  and  C_20
REMARK    5  A    between atoms: C_9  and  O_10
REMARK    6  A    between atoms: C_21  and  O_22
REMARK                            x       y       z     vdW  Elec       q    Type
REMARK                         _______ _______ _______ _____ _____    ______ ____
ROOT
ATOM      1  C   UNL     1      -0.898  12.539  21.051  0.00  0.00    +0.000 C 
ENDROOT
BRANCH   1   2
ATOM      2  C   UNL     1      -2.433  12.624  21.079  0.00  0.00    +0.000 A 
ATOM      3  C   UNL     1      -3.232  12.471  20.000  0.00  0.00    +0.000 A 
ATOM      4  C   UNL     1      -4.660  12.781  20.072  0.00  0.00    +0.000 A 
ATOM      5  C   UNL     1      -5.531  12.641  18.984  0.00  0.00    +0.000 A 
ATOM      6  C   UNL     1      -6.867  13.049  19.087  0.00  0.00    +0.000 A 
ATOM      7  C   UNL     1      -7.340  13.605  20.274  0.00  0.00    +0.000 A 
ATOM      8  C   UNL     1      -6.489  13.733  21.368  0.00  0.00    +0.000 A 
ATOM      9  C   UNL     1      -5.166  13.305  21.253  0.00  0.00    +0.000 A 
ATOM     10  O   UNL     1      -4.365  13.409  22.396  0.00  0.00    +0.000 OA
ATOM     11  C   UNL     1      -3.056  12.953  22.401  0.00  0.00    +0.000 A 
ATOM     12  O   UNL     1      -2.428  12.878  23.451  0.00  0.00    +0.000 OA
BRANCH   3  13
ATOM     13  O   UNL     1      -2.797  12.105  18.747  0.00  0.00    +0.000 OA
ATOM     14  H   UNL     1      -2.677  11.146  18.698  0.00  0.00    +0.000 HD
ENDBRANCH   3  13
ENDBRANCH   1   2
BRANCH   1  15
ATOM     15  C   UNL     1      -0.329  11.165  20.625  0.00  0.00    +0.000 A 
ATOM     16  C   UNL     1       0.042  10.794  19.379  0.00  0.00    +0.000 A 
ATOM     17  C   UNL     1       0.864   9.606  19.153  0.00  0.00    +0.000 A 
ATOM     18  C   UNL     1       1.435   9.293  17.909  0.00  0.00    +0.000 A 
ATOM     19  C   UNL     1       2.253   8.169  17.763  0.00  0.00    +0.000 A 
ATOM     20  C   UNL     1       2.518   7.349  18.860  0.00  0.00    +0.000 A 
ATOM     21  C   UNL     1       1.970   7.659  20.103  0.00  0.00    +0.000 A 
ATOM     22  C   UNL     1       1.156   8.784  20.231  0.00  0.00    +0.000 A 
ATOM     23  O   UNL     1       0.617   9.053  21.496  0.00  0.00    +0.000 OA
ATOM     24  C   UNL     1      -0.234  10.129  21.695  0.00  0.00    +0.000 A 
ATOM     25  O   UNL     1      -0.915  10.197  22.714  0.00  0.00    +0.000 OA
BRANCH  16  26
ATOM     26  O   UNL     1      -0.204  11.528  18.236  0.00  0.00    +0.000 OA
ATOM     27  H   UNL     1      -0.396  12.443  18.479  0.00  0.00    +0.000 HD
ENDBRANCH  16  26
ENDBRANCH   1  15
BRANCH   1  31
ATOM     28  C   UNL     1       0.727  16.086  19.058  0.00  0.00    +0.000 A 
ATOM     29  C   UNL     1       1.569  15.049  19.460  0.00  0.00    +0.000 A 
ATOM     30  C   UNL     1       1.031  13.912  20.076  0.00  0.00    +0.000 A 
ATOM     31  C   UNL     1      -0.349  13.798  20.337  0.00  0.00    +0.000 A 
ATOM     32  C   UNL     1      -1.178  14.864  19.946  0.00  0.00    +0.000 A 
ATOM     33  C   UNL     1      -0.645  15.987  19.295  0.00  0.00    +0.000 A 
BRANCH  28  35
ATOM     34  N   UNL     1       1.710  18.168  17.864  0.00  0.00    +0.000 NA
ATOM     35  C   UNL     1       1.271  17.236  18.406  0.00  0.00    +0.000 C 
ENDBRANCH  28  35
ENDBRANCH   1  31
TORSDOF 6
ENDMDL
MODEL 8
REMARK VINA RESULT:      -7.3      2.902      7.255
REMARK  Name = 
REMARK  6 active torsions:
REMARK  status: ('A' for Active; 'I' for Inactive)
REMARK    1  A    between atoms: C_2  and  C_3
REMARK    2  A    between atoms: C_6  and  C_7
REMARK    3  A    between atoms: C_7  and  C_8
REMARK    4  A    between atoms: C_7  and  C_20
REMARK    5  A    between atoms: C_9  and  O_10
REMARK    6  A    between atoms: C_21  and  O_22
REMARK                            x       y       z     vdW  Elec       q    Type
REMARK                         _______ _______ _______ _____ _____    ______ ____
ROOT
ATOM      1  C   UNL     1      -0.609  12.563  20.568  0.00  0.00    +0.000 C 
ENDROOT
BRANCH   1   2
ATOM      2  C   UNL     1       0.260  11.304  20.403  0.00  0.00    +0.000 A 
ATOM      3  C   UNL     1       0.880  10.941  19.259  0.00  0.00    +0.000 A 
ATOM      4  C   UNL     1       1.504   9.625  19.127  0.00  0.00    +0.000 A 
ATOM      5  C   UNL     1       2.157   9.199  17.964  0.00  0.00    +0.000 A 
ATOM      6  C   UNL     1       2.647   7.891  17.863  0.00  0.00    +0.000 A 
ATOM      7  C   UNL     1       2.482   6.998  18.919  0.00  0.00    +0.000 A 
ATOM      8  C   UNL     1       1.850   7.415  20.087  0.00  0.00    +0.000 A 
ATOM      9  C   UNL     1       1.384   8.726  20.177  0.00  0.00    +0.000 A 
ATOM     10  O   UNL     1       0.801   9.110  21.390  0.00  0.00    +0.000 OA
ATOM     11  C   UNL     1       0.364  10.409  21.599  0.00  0.00    +0.000 A 
ATOM     12  O   UNL     1       0.030  10.779  22.719  0.00  0.00    +0.000 OA
BRANCH   3  13
ATOM     13  O   UNL     1       0.918  11.702  18.113  0.00  0.00    +0.000 OA
ATOM     14  H   UNL     1       0.097  11.601  17.613  0.00  0.00    +0.000 HD
ENDBRANCH   3  13
ENDBRANCH   1   2
BRANCH   1  15
ATOM     15  C   UNL     1       0.076  13.886  20.151  0.00  0.00    +0.000 A 
ATOM     16  C   UNL     1      -0.084  14.546  18.981  0.00  0.00    +0.000 A 
ATOM     17  C   UNL     1       0.346  15.935  18.828  0.00  0.00    +0.000 A 
ATOM     18  C   UNL     1       0.027  16.718  17.707  0.00  0.00    +0.000 A 
ATOM     19  C   UNL     1       0.423  18.056  17.637  0.00  0.00    +0.000 A 
ATOM     20  C   UNL     1       1.137  18.631  18.688  0.00  0.00    +0.000 A 
ATOM     21  C   UNL     1       1.445  17.869  19.813  0.00  0.00    +0.000 A 
ATOM     22  C   UNL     1       1.041  16.535  19.867  0.00  0.00    +0.000 A 
ATOM     23  O   UNL     1       1.382  15.801  21.011  0.00  0.00    +0.000 OA
ATOM     24  C   UNL     1       1.053  14.459  21.122  0.00  0.00    +0.000 A 
ATOM     25  O   UNL     1       1.587  13.762  21.980  0.00  0.00    +0.000 OA
BRANCH  16  26
ATOM     26  O   UNL     1      -0.748  14.042  17.881  0.00  0.00    +0.000 OA
ATOM     27  H   UNL     1      -1.520  13.541  18.176  0.00  0.00    +0.000 HD
ENDBRANCH  16  26
ENDBRANCH   1  15
BRANCH   1  31
ATOM     28  C   UNL     1      -4.622  11.755  19.010  0.00  0.00    +0.000 A 
ATOM     29  C   UNL     1      -4.438  12.639  20.072  0.00  0.00    +0.000 A 
ATOM     30  C   UNL     1      -3.146  12.904  20.544  0.00  0.00    +0.000 A 
ATOM     31  C   UNL     1      -2.016  12.268  19.993  0.00  0.00    +0.000 A 
ATOM     32  C   UNL     1      -2.224  11.361  18.940  0.00  0.00    +0.000 A 
ATOM     33  C   UNL     1      -3.514  11.124  18.441  0.00  0.00    +0.000 A 
BRANCH  28  35
ATOM     34  N   UNL     1      -7.010  11.310  18.100  0.00  0.00    +0.000 NA
ATOM     35  C   UNL     1      -5.938  11.502  18.509  0.00  0.00    +0.000 C 
ENDBRANCH  28  35
ENDBRANCH   1  31
TORSDOF 6
ENDMDL
MODEL 9
REMARK VINA RESULT:      -7.3      3.575      7.500
REMARK  Name = 
REMARK  6 active torsions:
REMARK  status: ('A' for Active; 'I' for Inactive)
REMARK    1  A    between atoms: C_2  and  C_3
REMARK    2  A    between atoms: C_6  and  C_7
REMARK    3  A    between atoms: C_7  and  C_8
REMARK    4  A    between atoms: C_7  and  C_20
REMARK    5  A    between atoms: C_9  and  O_10
REMARK    6  A    between atoms: C_21  and  O_22
REMARK                            x       y       z     vdW  Elec       q    Type
REMARK                         _______ _______ _______ _____ _____    ______ ____
ROOT
ATOM      1  C   UNL     1      -1.438  11.861  20.495  0.00  0.00    +0.000 C 
ENDROOT
BRANCH   1   2
ATOM      2  C   UNL     1      -0.229  12.788  20.287  0.00  0.00    +0.000 A 
ATOM      3  C   UNL     1      -0.282  14.002  19.697  0.00  0.00    +0.000 A 
ATOM      4  C   UNL     1       0.942  14.721  19.345  0.00  0.00    +0.000 A 
ATOM      5  C   UNL     1       0.943  15.980  18.731  0.00  0.00    +0.000 A 
ATOM      6  C   UNL     1       2.146  16.573  18.328  0.00  0.00    +0.000 A 
ATOM      7  C   UNL     1       3.356  15.910  18.529  0.00  0.00    +0.000 A 
ATOM      8  C   UNL     1       3.369  14.667  19.154  0.00  0.00    +0.000 A 
ATOM      9  C   UNL     1       2.163  14.099  19.564  0.00  0.00    +0.000 A 
ATOM     10  O   UNL     1       2.235  12.871  20.232  0.00  0.00    +0.000 OA
ATOM     11  C   UNL     1       1.098  12.257  20.734  0.00  0.00    +0.000 A 
ATOM     12  O   UNL     1       1.194  11.284  21.474  0.00  0.00    +0.000 OA
BRANCH   3  13
ATOM     13  O   UNL     1      -1.440  14.631  19.301  0.00  0.00    +0.000 OA
ATOM     14  H   UNL     1      -2.066  14.681  20.036  0.00  0.00    +0.000 HD
ENDBRANCH   3  13
ENDBRANCH   1   2
BRANCH   1  15
ATOM     15  C   UNL     1      -2.462  12.352  21.545  0.00  0.00    +0.000 A 
ATOM     16  C   UNL     1      -3.470  13.232  21.343  0.00  0.00    +0.000 A 
ATOM     17  C   UNL     1      -4.564  13.368  22.305  0.00  0.00    +0.000 A 
ATOM     18  C   UNL     1      -5.722  14.117  22.047  0.00  0.00    +0.000 A 
ATOM     19  C   UNL     1      -6.758  14.172  22.984  0.00  0.00    +0.000 A 
ATOM     20  C   UNL     1      -6.652  13.472  24.186  0.00  0.00    +0.000 A 
ATOM     21  C   UNL     1      -5.514  12.711  24.446  0.00  0.00    +0.000 A 
ATOM     22  C   UNL     1      -4.490  12.668  23.499  0.00  0.00    +0.000 A 
ATOM     23  O   UNL     1      -3.358  11.900  23.805  0.00  0.00    +0.000 OA
ATOM     24  C   UNL     1      -2.281  11.839  22.934  0.00  0.00    +0.000 A 
ATOM     25  O   UNL     1      -1.199  11.406  23.321  0.00  0.00    +0.000 OA
BRANCH  16  26
ATOM     26  O   UNL     1      -3.635  13.986  20.199  0.00  0.00    +0.000 OA
ATOM     27  H   UNL     1      -3.842  14.897  20.444  0.00  0.00    +0.000 HD
ENDBRANCH  16  26
ENDBRANCH   1  15
BRANCH   1  31
ATOM     28  C   UNL     1      -2.888  10.651  16.542  0.00  0.00    +0.000 A 
ATOM     29  C   UNL     1      -1.614  10.285  16.973  0.00  0.00    +0.000 A 
ATOM     30  C   UNL     1      -1.173  10.661  18.249  0.00  0.00    +0.000 A 
ATOM     31  C   UNL     1      -1.977  11.438  19.106  0.00  0.00    +0.000 A 
ATOM     32  C   UNL     1      -3.249  11.819  18.644  0.00  0.00    +0.000 A 
ATOM     33  C   UNL     1      -3.706  11.410  17.381  0.00  0.00    +0.000 A 
BRANCH  28  35
ATOM     34  N   UNL     1      -3.736   9.926  14.200  0.00  0.00    +0.000 NA
ATOM     35  C   UNL     1      -3.349  10.247  15.250  0.00  0.00    +0.000 C 
ENDBRANCH  28  35
ENDBRANCH   1  31
TORSDOF 6
ENDMDL
