MODEL 1
REMARK VINA RESULT:      -6.2      0.000      0.000
REMARK  Name = 
REMARK  7 active torsions:
REMARK  status: ('A' for Active; 'I' for Inactive)
REMARK    1  A    between atoms: C_1  and  N_2
REMARK    2  A    between atoms: N_2  and  C_3
REMARK    3  A    between atoms: N_2  and  C_4
REMARK    4  A    between atoms: N_2  and  C_5
REMARK    5  A    between atoms: C_5  and  C_6
REMARK    6  A    between atoms: C_6  and  C_7
REMARK    7  A    between atoms: C_7  and  N_8
REMARK                            x       y       z     vdW  Elec       q    Type
REMARK                         _______ _______ _______ _____ _____    ______ ____
ROOT
ATOM      1  N   UNL     1       2.995   2.953  18.938  0.00  0.00    +0.000 N 
ATOM      2  C   UNL     1       1.632   3.218  18.803  0.00  0.00    +0.000 C 
ATOM      3  O   UNL     1       1.081   3.298  17.705  0.00  0.00    +0.000 OA
ATOM      4  C   UNL     1       0.822   3.266  20.077  0.00  0.00    +0.000 C 
ATOM      5  C   UNL     1       1.675   3.683  21.257  0.00  0.00    +0.000 C 
ATOM      6  C   UNL     1       2.830   2.715  21.401  0.00  0.00    +0.000 C 
ATOM      7  C   UNL     1       3.628   2.585  20.123  0.00  0.00    +0.000 C 
ATOM      8  O   UNL     1       4.750   2.073  20.140  0.00  0.00    +0.000 OA
ENDROOT
BRANCH   1   9
ATOM      9  C   UNL     1       3.766   2.791  17.706  0.00  0.00    +0.000 C 
BRANCH   9  10
ATOM     10  C   UNL     1       4.157   4.161  17.137  0.00  0.00    +0.000 C 
BRANCH  10  11
ATOM     11  C   UNL     1       5.578   4.547  17.528  0.00  0.00    +0.000 C 
BRANCH  11  13
ATOM     12  C   UNL     1       7.262   6.367  17.307  0.00  0.00    +0.000 C 
ATOM     13  N   UNL     1       6.225   5.544  16.538  0.00  0.00    +0.000 N 
ATOM     14  C   UNL     1       5.193   6.506  15.959  0.00  0.00    +0.000 C 
ATOM     15  C   UNL     1       6.945   4.820  15.403  0.00  0.00    +0.000 C 
ENDBRANCH  11  13
ENDBRANCH  10  11
ENDBRANCH   9  10
ENDBRANCH   1   9
TORSDOF 4
ENDMDL
MODEL 2
REMARK VINA RESULT:      -6.2      1.025      1.500
REMARK  Name = 
REMARK  7 active torsions:
REMARK  status: ('A' for Active; 'I' for Inactive)
REMARK    1  A    between atoms: C_1  and  N_2
REMARK    2  A    between atoms: N_2  and  C_3
REMARK    3  A    between atoms: N_2  and  C_4
REMARK    4  A    between atoms: N_2  and  C_5
REMARK    5  A    between atoms: C_5  and  C_6
REMARK    6  A    between atoms: C_6  and  C_7
REMARK    7  A    between atoms: C_7  and  N_8
REMARK                            x       y       z     vdW  Elec       q    Type
REMARK                         _______ _______ _______ _____ _____    ______ ____
ROOT
ATOM      1  N   UNL     1       2.993   3.504  18.829  0.00  0.00    +0.000 N 
ATOM      2  C   UNL     1       1.612   3.550  18.638  0.00  0.00    +0.000 C 
ATOM      3  O   UNL     1       1.106   3.836  17.553  0.00  0.00    +0.000 OA
ATOM      4  C   UNL     1       0.753   3.094  19.793  0.00  0.00    +0.000 C 
ATOM      5  C   UNL     1       1.453   3.308  21.119  0.00  0.00    +0.000 C 
ATOM      6  C   UNL     1       2.769   2.559  21.111  0.00  0.00    +0.000 C 
ATOM      7  C   UNL     1       3.634   2.937  19.929  0.00  0.00    +0.000 C 
ATOM      8  O   UNL     1       4.832   2.649  19.918  0.00  0.00    +0.000 OA
ENDROOT
BRANCH   1   9
ATOM      9  C   UNL     1       3.836   3.834  17.681  0.00  0.00    +0.000 C 
BRANCH   9  10
ATOM     10  C   UNL     1       4.201   5.324  17.697  0.00  0.00    +0.000 C 
BRANCH  10  11
ATOM     11  C   UNL     1       5.454   5.603  16.875  0.00  0.00    +0.000 C 
BRANCH  11  13
ATOM     12  C   UNL     1       7.664   4.560  17.349  0.00  0.00    +0.000 C 
ATOM     13  N   UNL     1       6.731   5.709  17.740  0.00  0.00    +0.000 N 
ATOM     14  C   UNL     1       6.411   5.572  19.226  0.00  0.00    +0.000 C 
ATOM     15  C   UNL     1       7.469   7.022  17.493  0.00  0.00    +0.000 C 
ENDBRANCH  11  13
ENDBRANCH  10  11
ENDBRANCH   9  10
ENDBRANCH   1   9
TORSDOF 4
ENDMDL
MODEL 3
REMARK VINA RESULT:      -6.1      0.772      2.239
REMARK  Name = 
REMARK  7 active torsions:
REMARK  status: ('A' for Active; 'I' for Inactive)
REMARK    1  A    between atoms: C_1  and  N_2
REMARK    2  A    between atoms: N_2  and  C_3
REMARK    3  A    between atoms: N_2  and  C_4
REMARK    4  A    between atoms: N_2  and  C_5
REMARK    5  A    between atoms: C_5  and  C_6
REMARK    6  A    between atoms: C_6  and  C_7
REMARK    7  A    between atoms: C_7  and  N_8
REMARK                            x       y       z     vdW  Elec       q    Type
REMARK                         _______ _______ _______ _____ _____    ______ ____
ROOT
ATOM      1  N   UNL     1       2.856   2.824  18.952  0.00  0.00    +0.000 N 
ATOM      2  C   UNL     1       3.537   2.617  20.151  0.00  0.00    +0.000 C 
ATOM      3  O   UNL     1       4.731   2.318  20.189  0.00  0.00    +0.000 OA
ATOM      4  C   UNL     1       2.777   2.914  21.422  0.00  0.00    +0.000 C 
ATOM      5  C   UNL     1       1.286   2.731  21.228  0.00  0.00    +0.000 C 
ATOM      6  C   UNL     1       0.817   3.635  20.108  0.00  0.00    +0.000 C 
ATOM      7  C   UNL     1       1.601   3.417  18.833  0.00  0.00    +0.000 C 
ATOM      8  O   UNL     1       1.176   3.851  17.760  0.00  0.00    +0.000 OA
ENDROOT
BRANCH   1   9
ATOM      9  C   UNL     1       3.617   2.649  17.716  0.00  0.00    +0.000 C 
BRANCH   9  10
ATOM     10  C   UNL     1       4.268   3.974  17.297  0.00  0.00    +0.000 C 
BRANCH  10  11
ATOM     11  C   UNL     1       5.276   3.773  16.172  0.00  0.00    +0.000 C 
BRANCH  11  13
ATOM     12  C   UNL     1       7.388   4.591  17.204  0.00  0.00    +0.000 C 
ATOM     13  N   UNL     1       6.349   4.885  16.119  0.00  0.00    +0.000 N 
ATOM     14  C   UNL     1       5.745   6.257  16.403  0.00  0.00    +0.000 C 
ATOM     15  C   UNL     1       7.067   4.909  14.772  0.00  0.00    +0.000 C 
ENDBRANCH  11  13
ENDBRANCH  10  11
ENDBRANCH   9  10
ENDBRANCH   1   9
TORSDOF 4
ENDMDL
MODEL 4
REMARK VINA RESULT:      -6.1      0.771      2.506
REMARK  Name = 
REMARK  7 active torsions:
REMARK  status: ('A' for Active; 'I' for Inactive)
REMARK    1  A    between atoms: C_1  and  N_2
REMARK    2  A    between atoms: N_2  and  C_3
REMARK    3  A    between atoms: N_2  and  C_4
REMARK    4  A    between atoms: N_2  and  C_5
REMARK    5  A    between atoms: C_5  and  C_6
REMARK    6  A    between atoms: C_6  and  C_7
REMARK    7  A    between atoms: C_7  and  N_8
REMARK                            x       y       z     vdW  Elec       q    Type
REMARK                         _______ _______ _______ _____ _____    ______ ____
ROOT
ATOM      1  N   UNL     1       2.874   2.843  18.961  0.00  0.00    +0.000 N 
ATOM      2  C   UNL     1       3.544   2.628  20.166  0.00  0.00    +0.000 C 
ATOM      3  O   UNL     1       4.736   2.327  20.213  0.00  0.00    +0.000 OA
ATOM      4  C   UNL     1       2.772   2.919  21.431  0.00  0.00    +0.000 C 
ATOM      5  C   UNL     1       1.283   2.740  21.222  0.00  0.00    +0.000 C 
ATOM      6  C   UNL     1       0.826   3.651  20.103  0.00  0.00    +0.000 C 
ATOM      7  C   UNL     1       1.621   3.439  18.834  0.00  0.00    +0.000 C 
ATOM      8  O   UNL     1       1.207   3.879  17.760  0.00  0.00    +0.000 OA
ENDROOT
BRANCH   1   9
ATOM      9  C   UNL     1       3.647   2.674  17.732  0.00  0.00    +0.000 C 
BRANCH   9  10
ATOM     10  C   UNL     1       4.266   4.010  17.302  0.00  0.00    +0.000 C 
BRANCH  10  11
ATOM     11  C   UNL     1       5.275   3.824  16.174  0.00  0.00    +0.000 C 
BRANCH  11  13
ATOM     12  C   UNL     1       7.070   4.877  14.809  0.00  0.00    +0.000 C 
ATOM     13  N   UNL     1       6.390   4.895  16.181  0.00  0.00    +0.000 N 
ATOM     14  C   UNL     1       7.449   4.591  17.237  0.00  0.00    +0.000 C 
ATOM     15  C   UNL     1       5.823   6.294  16.410  0.00  0.00    +0.000 C 
ENDBRANCH  11  13
ENDBRANCH  10  11
ENDBRANCH   9  10
ENDBRANCH   1   9
TORSDOF 4
ENDMDL
MODEL 5
REMARK VINA RESULT:      -6.1      0.779      2.391
REMARK  Name = 
REMARK  7 active torsions:
REMARK  status: ('A' for Active; 'I' for Inactive)
REMARK    1  A    between atoms: C_1  and  N_2
REMARK    2  A    between atoms: N_2  and  C_3
REMARK    3  A    between atoms: N_2  and  C_4
REMARK    4  A    between atoms: N_2  and  C_5
REMARK    5  A    between atoms: C_5  and  C_6
REMARK    6  A    between atoms: C_6  and  C_7
REMARK    7  A    between atoms: C_7  and  N_8
REMARK                            x       y       z     vdW  Elec       q    Type
REMARK                         _______ _______ _______ _____ _____    ______ ____
ROOT
ATOM      1  N   UNL     1       2.824   2.825  18.971  0.00  0.00    +0.000 N 
ATOM      2  C   UNL     1       3.477   2.544  20.172  0.00  0.00    +0.000 C 
ATOM      3  O   UNL     1       4.655   2.189  20.215  0.00  0.00    +0.000 OA
ATOM      4  C   UNL     1       2.712   2.831  21.442  0.00  0.00    +0.000 C 
ATOM      5  C   UNL     1       1.217   2.724  21.222  0.00  0.00    +0.000 C 
ATOM      6  C   UNL     1       0.807   3.688  20.128  0.00  0.00    +0.000 C 
ATOM      7  C   UNL     1       1.599   3.480  18.857  0.00  0.00    +0.000 C 
ATOM      8  O   UNL     1       1.211   3.970  17.795  0.00  0.00    +0.000 OA
ENDROOT
BRANCH   1   9
ATOM      9  C   UNL     1       3.595   2.659  17.740  0.00  0.00    +0.000 C 
BRANCH   9  10
ATOM     10  C   UNL     1       4.504   3.874  17.511  0.00  0.00    +0.000 C 
BRANCH  10  11
ATOM     11  C   UNL     1       5.157   3.834  16.135  0.00  0.00    +0.000 C 
BRANCH  11  13
ATOM     12  C   UNL     1       5.668   6.270  16.163  0.00  0.00    +0.000 C 
ATOM     13  N   UNL     1       6.283   4.881  15.972  0.00  0.00    +0.000 N 
ATOM     14  C   UNL     1       6.901   4.825  14.578  0.00  0.00    +0.000 C 
ATOM     15  C   UNL     1       7.374   4.699  17.025  0.00  0.00    +0.000 C 
ENDBRANCH  11  13
ENDBRANCH  10  11
ENDBRANCH   9  10
ENDBRANCH   1   9
TORSDOF 4
ENDMDL
MODEL 6
REMARK VINA RESULT:      -5.9      2.078      5.335
REMARK  Name = 
REMARK  7 active torsions:
REMARK  status: ('A' for Active; 'I' for Inactive)
REMARK    1  A    between atoms: C_1  and  N_2
REMARK    2  A    between atoms: N_2  and  C_3
REMARK    3  A    between atoms: N_2  and  C_4
REMARK    4  A    between atoms: N_2  and  C_5
REMARK    5  A    between atoms: C_5  and  C_6
REMARK    6  A    between atoms: C_6  and  C_7
REMARK    7  A    between atoms: C_7  and  N_8
REMARK                            x       y       z     vdW  Elec       q    Type
REMARK                         _______ _______ _______ _____ _____    ______ ____
ROOT
ATOM      1  N   UNL     1       5.731   5.227  17.663  0.00  0.00    +0.000 N 
ATOM      2  C   UNL     1       4.873   6.029  16.910  0.00  0.00    +0.000 C 
ATOM      3  O   UNL     1       3.935   6.645  17.415  0.00  0.00    +0.000 OA
ATOM      4  C   UNL     1       5.229   6.223  15.456  0.00  0.00    +0.000 C 
ATOM      5  C   UNL     1       6.009   5.041  14.917  0.00  0.00    +0.000 C 
ATOM      6  C   UNL     1       7.260   4.853  15.747  0.00  0.00    +0.000 C 
ATOM      7  C   UNL     1       6.953   4.723  17.222  0.00  0.00    +0.000 C 
ATOM      8  O   UNL     1       7.804   4.285  17.998  0.00  0.00    +0.000 OA
ENDROOT
BRANCH   1   9
ATOM      9  C   UNL     1       5.461   5.125  19.096  0.00  0.00    +0.000 C 
BRANCH   9  10
ATOM     10  C   UNL     1       4.730   3.812  19.410  0.00  0.00    +0.000 C 
BRANCH  10  11
ATOM     11  C   UNL     1       3.254   4.050  19.708  0.00  0.00    +0.000 C 
BRANCH  11  13
ATOM     12  C   UNL     1       3.170   2.276  17.963  0.00  0.00    +0.000 C 
ATOM     13  N   UNL     1       2.316   3.263  18.764  0.00  0.00    +0.000 N 
ATOM     14  C   UNL     1       1.612   4.189  17.776  0.00  0.00    +0.000 C 
ATOM     15  C   UNL     1       1.277   2.462  19.545  0.00  0.00    +0.000 C 
ENDBRANCH  11  13
ENDBRANCH  10  11
ENDBRANCH   9  10
ENDBRANCH   1   9
TORSDOF 4
ENDMDL
MODEL 7
REMARK VINA RESULT:      -5.9      2.099      5.465
REMARK  Name = 
REMARK  7 active torsions:
REMARK  status: ('A' for Active; 'I' for Inactive)
REMARK    1  A    between atoms: C_1  and  N_2
REMARK    2  A    between atoms: N_2  and  C_3
REMARK    3  A    between atoms: N_2  and  C_4
REMARK    4  A    between atoms: N_2  and  C_5
REMARK    5  A    between atoms: C_5  and  C_6
REMARK    6  A    between atoms: C_6  and  C_7
REMARK    7  A    between atoms: C_7  and  N_8
REMARK                            x       y       z     vdW  Elec       q    Type
REMARK                         _______ _______ _______ _____ _____    ______ ____
ROOT
ATOM      1  N   UNL     1       5.739   5.288  17.669  0.00  0.00    +0.000 N 
ATOM      2  C   UNL     1       4.891   6.110  16.926  0.00  0.00    +0.000 C 
ATOM      3  O   UNL     1       3.979   6.755  17.443  0.00  0.00    +0.000 OA
ATOM      4  C   UNL     1       5.228   6.288  15.465  0.00  0.00    +0.000 C 
ATOM      5  C   UNL     1       5.965   5.083  14.919  0.00  0.00    +0.000 C 
ATOM      6  C   UNL     1       7.225   4.863  15.729  0.00  0.00    +0.000 C 
ATOM      7  C   UNL     1       6.939   4.749  17.209  0.00  0.00    +0.000 C 
ATOM      8  O   UNL     1       7.791   4.291  17.974  0.00  0.00    +0.000 OA
ENDROOT
BRANCH   1   9
ATOM      9  C   UNL     1       5.490   5.200  19.106  0.00  0.00    +0.000 C 
BRANCH   9  10
ATOM     10  C   UNL     1       4.652   3.956  19.428  0.00  0.00    +0.000 C 
BRANCH  10  11
ATOM     11  C   UNL     1       3.239   4.327  19.860  0.00  0.00    +0.000 C 
BRANCH  11  13
ATOM     12  C   UNL     1       0.962   3.358  20.128  0.00  0.00    +0.000 C 
ATOM     13  N   UNL     1       2.154   3.466  19.173  0.00  0.00    +0.000 N 
ATOM     14  C   UNL     1       2.659   2.055  18.886  0.00  0.00    +0.000 C 
ATOM     15  C   UNL     1       1.664   4.109  17.878  0.00  0.00    +0.000 C 
ENDBRANCH  11  13
ENDBRANCH  10  11
ENDBRANCH   9  10
ENDBRANCH   1   9
TORSDOF 4
ENDMDL
MODEL 8
REMARK VINA RESULT:      -5.8      1.778      2.492
REMARK  Name = 
REMARK  7 active torsions:
REMARK  status: ('A' for Active; 'I' for Inactive)
REMARK    1  A    between atoms: C_1  and  N_2
REMARK    2  A    between atoms: N_2  and  C_3
REMARK    3  A    between atoms: N_2  and  C_4
REMARK    4  A    between atoms: N_2  and  C_5
REMARK    5  A    between atoms: C_5  and  C_6
REMARK    6  A    between atoms: C_6  and  C_7
REMARK    7  A    between atoms: C_7  and  N_8
REMARK                            x       y       z     vdW  Elec       q    Type
REMARK                         _______ _______ _______ _____ _____    ______ ____
ROOT
ATOM      1  N   UNL     1       2.535   4.219  18.540  0.00  0.00    +0.000 N 
ATOM      2  C   UNL     1       2.146   5.092  19.557  0.00  0.00    +0.000 C 
ATOM      3  O   UNL     1       2.521   6.264  19.599  0.00  0.00    +0.000 OA
ATOM      4  C   UNL     1       1.122   4.575  20.539  0.00  0.00    +0.000 C 
ATOM      5  C   UNL     1       1.197   3.069  20.671  0.00  0.00    +0.000 C 
ATOM      6  C   UNL     1       0.987   2.440  19.310  0.00  0.00    +0.000 C 
ATOM      7  C   UNL     1       1.950   2.982  18.277  0.00  0.00    +0.000 C 
ATOM      8  O   UNL     1       2.113   2.391  17.208  0.00  0.00    +0.000 OA
ENDROOT
BRANCH   1   9
ATOM      9  C   UNL     1       3.438   4.747  17.519  0.00  0.00    +0.000 C 
BRANCH   9  10
ATOM     10  C   UNL     1       4.841   4.151  17.687  0.00  0.00    +0.000 C 
BRANCH  10  11
ATOM     11  C   UNL     1       5.650   4.907  18.735  0.00  0.00    +0.000 C 
BRANCH  11  13
ATOM     12  C   UNL     1       7.588   4.534  17.218  0.00  0.00    +0.000 C 
ATOM     13  N   UNL     1       6.932   5.550  18.157  0.00  0.00    +0.000 N 
ATOM     14  C   UNL     1       7.932   5.890  19.258  0.00  0.00    +0.000 C 
ATOM     15  C   UNL     1       6.614   6.805  17.347  0.00  0.00    +0.000 C 
ENDBRANCH  11  13
ENDBRANCH  10  11
ENDBRANCH   9  10
ENDBRANCH   1   9
TORSDOF 4
ENDMDL
MODEL 9
REMARK VINA RESULT:      -5.8      1.855      2.549
REMARK  Name = 
REMARK  7 active torsions:
REMARK  status: ('A' for Active; 'I' for Inactive)
REMARK    1  A    between atoms: C_1  and  N_2
REMARK    2  A    between atoms: N_2  and  C_3
REMARK    3  A    between atoms: N_2  and  C_4
REMARK    4  A    between atoms: N_2  and  C_5
REMARK    5  A    between atoms: C_5  and  C_6
REMARK    6  A    between atoms: C_6  and  C_7
REMARK    7  A    between atoms: C_7  and  N_8
REMARK                            x       y       z     vdW  Elec       q    Type
REMARK                         _______ _______ _______ _____ _____    ______ ____
ROOT
ATOM      1  N   UNL     1       2.496   4.321  18.529  0.00  0.00    +0.000 N 
ATOM      2  C   UNL     1       2.073   5.031  19.653  0.00  0.00    +0.000 C 
ATOM      3  O   UNL     1       2.367   6.212  19.837  0.00  0.00    +0.000 OA
ATOM      4  C   UNL     1       1.112   4.324  20.579  0.00  0.00    +0.000 C 
ATOM      5  C   UNL     1       1.293   2.822  20.519  0.00  0.00    +0.000 C 
ATOM      6  C   UNL     1       1.094   2.354  19.093  0.00  0.00    +0.000 C 
ATOM      7  C   UNL     1       1.992   3.088  18.121  0.00  0.00    +0.000 C 
ATOM      8  O   UNL     1       2.169   2.648  16.984  0.00  0.00    +0.000 OA
ENDROOT
BRANCH   1   9
ATOM      9  C   UNL     1       3.335   5.035  17.569  0.00  0.00    +0.000 C 
BRANCH   9  10
ATOM     10  C   UNL     1       4.816   4.708  17.806  0.00  0.00    +0.000 C 
BRANCH  10  11
ATOM     11  C   UNL     1       5.578   5.915  18.340  0.00  0.00    +0.000 C 
BRANCH  11  13
ATOM     12  C   UNL     1       7.573   7.092  17.428  0.00  0.00    +0.000 C 
ATOM     13  N   UNL     1       7.105   5.809  18.120  0.00  0.00    +0.000 N 
ATOM     14  C   UNL     1       7.458   4.630  17.217  0.00  0.00    +0.000 C 
ATOM     15  C   UNL     1       7.855   5.685  19.444  0.00  0.00    +0.000 C 
ENDBRANCH  11  13
ENDBRANCH  10  11
ENDBRANCH   9  10
ENDBRANCH   1   9
TORSDOF 4
ENDMDL
