MODEL 1
REMARK VINA RESULT:      -7.8      0.000      0.000
REMARK  Name = 
REMARK  6 active torsions:
REMARK  status: ('A' for Active; 'I' for Inactive)
REMARK    1  A    between atoms: C_4  and  C_5
REMARK    2  A    between atoms: C_5  and  C_6
REMARK    3  A    between atoms: C_13  and  S_14
REMARK    4  A    between atoms: S_14  and  C_15
REMARK    5  A    between atoms: C_15  and  C_16
REMARK    6  A    between atoms: C_16  and  C_17
REMARK                            x       y       z     vdW  Elec       q    Type
REMARK                         _______ _______ _______ _____ _____    ______ ____
ROOT
ATOM      1  N   UNL     1       8.564   5.241  20.085  0.00  0.00    +0.000 N 
ATOM      2  C   UNL     1       7.944   5.945  19.052  0.00  0.00    +0.000 A 
ATOM      3  C   UNL     1       7.059   5.313  18.213  0.00  0.00    +0.000 A 
ATOM      4  C   UNL     1       6.514   6.077  17.199  0.00  0.00    +0.000 A 
ATOM      5  N   UNL     1       6.837   7.379  17.029  0.00  0.00    +0.000 NA
ATOM      6  C   UNL     1       7.724   7.897  17.894  0.00  0.00    +0.000 A 
ATOM      7  N   UNL     1       8.296   7.224  18.906  0.00  0.00    +0.000 NA
ATOM      8  H   UNL     1       7.892   4.773  20.684  0.00  0.00    +0.000 HD
ATOM      9  H   UNL     1       9.135   5.905  20.605  0.00  0.00    +0.000 HD
ENDROOT
BRANCH   4  10
ATOM     10  C   UNL     1       5.519   5.468  16.239  0.00  0.00    +0.000 C 
BRANCH  10  11
ATOM     11  C   UNL     1       4.230   5.006  16.884  0.00  0.00    +0.000 A 
ATOM     12  C   UNL     1       3.845   3.659  16.816  0.00  0.00    +0.000 A 
ATOM     13  C   UNL     1       2.687   3.216  17.457  0.00  0.00    +0.000 A 
ATOM     14  C   UNL     1       1.905   4.112  18.178  0.00  0.00    +0.000 A 
ATOM     15  C   UNL     1       2.271   5.455  18.252  0.00  0.00    +0.000 A 
ATOM     16  C   UNL     1       3.429   5.901  17.609  0.00  0.00    +0.000 A 
ENDBRANCH  10  11
ENDBRANCH   4  10
BRANCH   6  17
ATOM     17  S   UNL     1       8.272   9.572  17.676  0.00  0.00    +0.000 S 
BRANCH  17  18
ATOM     18  C   UNL     1       9.347   9.783  19.136  0.00  0.00    +0.000 C 
BRANCH  18  19
ATOM     19  C   UNL     1       9.248  11.236  19.608  0.00  0.00    +0.000 C 
BRANCH  19  20
ATOM     20  C   UNL     1       9.996  12.197  18.714  0.00  0.00    +0.000 A 
ATOM     21  C   UNL     1      11.209  11.824  18.118  0.00  0.00    +0.000 A 
ATOM     22  C   UNL     1      11.884  12.708  17.275  0.00  0.00    +0.000 A 
ATOM     23  C   UNL     1      11.358  13.973  17.021  0.00  0.00    +0.000 A 
ATOM     24  C   UNL     1      10.156  14.356  17.614  0.00  0.00    +0.000 A 
ATOM     25  C   UNL     1       9.479  13.474  18.458  0.00  0.00    +0.000 A 
ENDBRANCH  19  20
ENDBRANCH  18  19
ENDBRANCH  17  18
ENDBRANCH   6  17
TORSDOF 6
ENDMDL
MODEL 2
REMARK VINA RESULT:      -7.6      1.567      2.545
REMARK  Name = 
REMARK  6 active torsions:
REMARK  status: ('A' for Active; 'I' for Inactive)
REMARK    1  A    between atoms: C_4  and  C_5
REMARK    2  A    between atoms: C_5  and  C_6
REMARK    3  A    between atoms: C_13  and  S_14
REMARK    4  A    between atoms: S_14  and  C_15
REMARK    5  A    between atoms: C_15  and  C_16
REMARK    6  A    between atoms: C_16  and  C_17
REMARK                            x       y       z     vdW  Elec       q    Type
REMARK                         _______ _______ _______ _____ _____    ______ ____
ROOT
ATOM      1  N   UNL     1       6.589   5.146  14.322  0.00  0.00    +0.000 N 
ATOM      2  C   UNL     1       6.236   5.589  15.597  0.00  0.00    +0.000 A 
ATOM      3  C   UNL     1       4.918   5.611  15.986  0.00  0.00    +0.000 A 
ATOM      4  C   UNL     1       4.656   6.093  17.254  0.00  0.00    +0.000 A 
ATOM      5  N   UNL     1       5.639   6.531  18.073  0.00  0.00    +0.000 NA
ATOM      6  C   UNL     1       6.890   6.482  17.591  0.00  0.00    +0.000 A 
ATOM      7  N   UNL     1       7.230   6.026  16.374  0.00  0.00    +0.000 NA
ATOM      8  H   UNL     1       6.220   4.221  14.124  0.00  0.00    +0.000 HD
ATOM      9  H   UNL     1       7.605   5.168  14.263  0.00  0.00    +0.000 HD
ENDROOT
BRANCH   4  10
ATOM     10  C   UNL     1       3.237   6.138  17.771  0.00  0.00    +0.000 C 
BRANCH  10  11
ATOM     11  C   UNL     1       2.743   4.833  18.356  0.00  0.00    +0.000 A 
ATOM     12  C   UNL     1       3.301   4.328  19.539  0.00  0.00    +0.000 A 
ATOM     13  C   UNL     1       2.812   3.154  20.114  0.00  0.00    +0.000 A 
ATOM     14  C   UNL     1       1.755   2.474  19.516  0.00  0.00    +0.000 A 
ATOM     15  C   UNL     1       1.191   2.961  18.338  0.00  0.00    +0.000 A 
ATOM     16  C   UNL     1       1.682   4.134  17.760  0.00  0.00    +0.000 A 
ENDBRANCH  10  11
ENDBRANCH   4  10
BRANCH   6  17
ATOM     17  S   UNL     1       8.224   7.129  18.569  0.00  0.00    +0.000 S 
BRANCH  17  18
ATOM     18  C   UNL     1       8.229   8.877  18.043  0.00  0.00    +0.000 C 
BRANCH  18  19
ATOM     19  C   UNL     1       9.138   9.667  18.989  0.00  0.00    +0.000 C 
BRANCH  19  20
ATOM     20  C   UNL     1       9.577  10.992  18.413  0.00  0.00    +0.000 A 
ATOM     21  C   UNL     1      10.938  11.305  18.290  0.00  0.00    +0.000 A 
ATOM     22  C   UNL     1      11.338  12.521  17.736  0.00  0.00    +0.000 A 
ATOM     23  C   UNL     1      10.383  13.440  17.302  0.00  0.00    +0.000 A 
ATOM     24  C   UNL     1       9.027  13.142  17.426  0.00  0.00    +0.000 A 
ATOM     25  C   UNL     1       8.625  11.926  17.980  0.00  0.00    +0.000 A 
ENDBRANCH  19  20
ENDBRANCH  18  19
ENDBRANCH  17  18
ENDBRANCH   6  17
TORSDOF 6
ENDMDL
MODEL 3
REMARK VINA RESULT:      -7.6      1.369      2.328
REMARK  Name = 
REMARK  6 active torsions:
REMARK  status: ('A' for Active; 'I' for Inactive)
REMARK    1  A    between atoms: C_4  and  C_5
REMARK    2  A    between atoms: C_5  and  C_6
REMARK    3  A    between atoms: C_13  and  S_14
REMARK    4  A    between atoms: S_14  and  C_15
REMARK    5  A    between atoms: C_15  and  C_16
REMARK    6  A    between atoms: C_16  and  C_17
REMARK                            x       y       z     vdW  Elec       q    Type
REMARK                         _______ _______ _______ _____ _____    ______ ____
ROOT
ATOM      1  N   UNL     1       8.475   5.189  20.035  0.00  0.00    +0.000 N 
ATOM      2  C   UNL     1       7.871   5.924  19.015  0.00  0.00    +0.000 A 
ATOM      3  C   UNL     1       6.914   5.347  18.215  0.00  0.00    +0.000 A 
ATOM      4  C   UNL     1       6.389   6.138  17.211  0.00  0.00    +0.000 A 
ATOM      5  N   UNL     1       6.796   7.412  17.013  0.00  0.00    +0.000 NA
ATOM      6  C   UNL     1       7.747   7.875  17.840  0.00  0.00    +0.000 A 
ATOM      7  N   UNL     1       8.306   7.174  18.840  0.00  0.00    +0.000 NA
ATOM      8  H   UNL     1       7.793   4.775  20.663  0.00  0.00    +0.000 HD
ATOM      9  H   UNL     1       9.109   5.816  20.526  0.00  0.00    +0.000 HD
ENDROOT
BRANCH   4  10
ATOM     10  C   UNL     1       5.320   5.591  16.293  0.00  0.00    +0.000 C 
BRANCH  10  11
ATOM     11  C   UNL     1       4.154   4.944  17.008  0.00  0.00    +0.000 A 
ATOM     12  C   UNL     1       3.209   5.731  17.682  0.00  0.00    +0.000 A 
ATOM     13  C   UNL     1       2.100   5.144  18.295  0.00  0.00    +0.000 A 
ATOM     14  C   UNL     1       1.921   3.766  18.236  0.00  0.00    +0.000 A 
ATOM     15  C   UNL     1       2.853   2.969  17.573  0.00  0.00    +0.000 A 
ATOM     16  C   UNL     1       3.964   3.554  16.961  0.00  0.00    +0.000 A 
ENDBRANCH  10  11
ENDBRANCH   4  10
BRANCH   6  17
ATOM     17  S   UNL     1       8.404   9.504  17.582  0.00  0.00    +0.000 S 
BRANCH  17  18
ATOM     18  C   UNL     1       9.090   9.872  19.233  0.00  0.00    +0.000 C 
BRANCH  18  19
ATOM     19  C   UNL     1      10.025  11.079  19.113  0.00  0.00    +0.000 C 
BRANCH  19  20
ATOM     20  C   UNL     1       9.840  12.079  20.230  0.00  0.00    +0.000 A 
ATOM     21  C   UNL     1      10.417  13.354  20.152  0.00  0.00    +0.000 A 
ATOM     22  C   UNL     1      10.225  14.282  21.177  0.00  0.00    +0.000 A 
ATOM     23  C   UNL     1       9.457  13.945  22.291  0.00  0.00    +0.000 A 
ATOM     24  C   UNL     1       8.886  12.677  22.381  0.00  0.00    +0.000 A 
ATOM     25  C   UNL     1       9.077  11.748  21.358  0.00  0.00    +0.000 A 
ENDBRANCH  19  20
ENDBRANCH  18  19
ENDBRANCH  17  18
ENDBRANCH   6  17
TORSDOF 6
ENDMDL
MODEL 4
REMARK VINA RESULT:      -7.6      1.834      8.935
REMARK  Name = 
REMARK  6 active torsions:
REMARK  status: ('A' for Active; 'I' for Inactive)
REMARK    1  A    between atoms: C_4  and  C_5
REMARK    2  A    between atoms: C_5  and  C_6
REMARK    3  A    between atoms: C_13  and  S_14
REMARK    4  A    between atoms: S_14  and  C_15
REMARK    5  A    between atoms: C_15  and  C_16
REMARK    6  A    between atoms: C_16  and  C_17
REMARK                            x       y       z     vdW  Elec       q    Type
REMARK                         _______ _______ _______ _____ _____    ______ ____
ROOT
ATOM      1  N   UNL     1       8.563   5.453  20.134  0.00  0.00    +0.000 N 
ATOM      2  C   UNL     1       8.133   6.142  19.000  0.00  0.00    +0.000 A 
ATOM      3  C   UNL     1       8.284   7.505  18.915  0.00  0.00    +0.000 A 
ATOM      4  C   UNL     1       7.802   8.110  17.770  0.00  0.00    +0.000 A 
ATOM      5  N   UNL     1       7.205   7.406  16.782  0.00  0.00    +0.000 NA
ATOM      6  C   UNL     1       7.094   6.081  16.971  0.00  0.00    +0.000 A 
ATOM      7  N   UNL     1       7.537   5.417  18.051  0.00  0.00    +0.000 NA
ATOM      8  H   UNL     1       9.537   5.644  20.350  0.00  0.00    +0.000 HD
ATOM      9  H   UNL     1       8.402   4.462  19.967  0.00  0.00    +0.000 HD
ENDROOT
BRANCH   4  10
ATOM     10  C   UNL     1       7.940   9.604  17.584  0.00  0.00    +0.000 C 
BRANCH  10  11
ATOM     11  C   UNL     1       9.038  10.238  18.410  0.00  0.00    +0.000 A 
ATOM     12  C   UNL     1      10.147  10.825  17.785  0.00  0.00    +0.000 A 
ATOM     13  C   UNL     1      11.135  11.461  18.538  0.00  0.00    +0.000 A 
ATOM     14  C   UNL     1      11.023  11.523  19.923  0.00  0.00    +0.000 A 
ATOM     15  C   UNL     1       9.928  10.942  20.560  0.00  0.00    +0.000 A 
ATOM     16  C   UNL     1       8.940  10.302  19.808  0.00  0.00    +0.000 A 
ENDBRANCH  10  11
ENDBRANCH   4  10
BRANCH   6  17
ATOM     17  S   UNL     1       6.235   5.102  15.764  0.00  0.00    +0.000 S 
BRANCH  17  18
ATOM     18  C   UNL     1       4.571   5.007  16.507  0.00  0.00    +0.000 C 
BRANCH  18  19
ATOM     19  C   UNL     1       4.374   3.602  17.083  0.00  0.00    +0.000 C 
BRANCH  19  20
ATOM     20  C   UNL     1       3.155   3.494  17.968  0.00  0.00    +0.000 A 
ATOM     21  C   UNL     1       2.330   2.362  17.916  0.00  0.00    +0.000 A 
ATOM     22  C   UNL     1       1.218   2.258  18.752  0.00  0.00    +0.000 A 
ATOM     23  C   UNL     1       0.915   3.284  19.645  0.00  0.00    +0.000 A 
ATOM     24  C   UNL     1       1.724   4.418  19.699  0.00  0.00    +0.000 A 
ATOM     25  C   UNL     1       2.837   4.524  18.864  0.00  0.00    +0.000 A 
ENDBRANCH  19  20
ENDBRANCH  18  19
ENDBRANCH  17  18
ENDBRANCH   6  17
TORSDOF 6
ENDMDL
MODEL 5
REMARK VINA RESULT:      -7.5      1.851      3.003
REMARK  Name = 
REMARK  6 active torsions:
REMARK  status: ('A' for Active; 'I' for Inactive)
REMARK    1  A    between atoms: C_4  and  C_5
REMARK    2  A    between atoms: C_5  and  C_6
REMARK    3  A    between atoms: C_13  and  S_14
REMARK    4  A    between atoms: S_14  and  C_15
REMARK    5  A    between atoms: C_15  and  C_16
REMARK    6  A    between atoms: C_16  and  C_17
REMARK                            x       y       z     vdW  Elec       q    Type
REMARK                         _______ _______ _______ _____ _____    ______ ____
ROOT
ATOM      1  N   UNL     1       7.009   5.187  14.120  0.00  0.00    +0.000 N 
ATOM      2  C   UNL     1       6.543   5.438  15.411  0.00  0.00    +0.000 A 
ATOM      3  C   UNL     1       5.225   5.217  15.729  0.00  0.00    +0.000 A 
ATOM      4  C   UNL     1       4.842   5.521  17.022  0.00  0.00    +0.000 A 
ATOM      5  N   UNL     1       5.711   6.020  17.930  0.00  0.00    +0.000 NA
ATOM      6  C   UNL     1       6.972   6.213  17.512  0.00  0.00    +0.000 A 
ATOM      7  N   UNL     1       7.425   5.942  16.277  0.00  0.00    +0.000 NA
ATOM      8  H   UNL     1       6.800   4.241  13.817  0.00  0.00    +0.000 HD
ATOM      9  H   UNL     1       8.010   5.371  14.118  0.00  0.00    +0.000 HD
ENDROOT
BRANCH   4  10
ATOM     10  C   UNL     1       3.415   5.294  17.465  0.00  0.00    +0.000 C 
BRANCH  10  11
ATOM     11  C   UNL     1       2.832   6.417  18.295  0.00  0.00    +0.000 A 
ATOM     12  C   UNL     1       2.637   7.688  17.734  0.00  0.00    +0.000 A 
ATOM     13  C   UNL     1       2.048   8.712  18.477  0.00  0.00    +0.000 A 
ATOM     14  C   UNL     1       1.641   8.476  19.786  0.00  0.00    +0.000 A 
ATOM     15  C   UNL     1       1.830   7.220  20.360  0.00  0.00    +0.000 A 
ATOM     16  C   UNL     1       2.423   6.195  19.618  0.00  0.00    +0.000 A 
ENDBRANCH  10  11
ENDBRANCH   4  10
BRANCH   6  17
ATOM     17  S   UNL     1       8.148   6.956  18.616  0.00  0.00    +0.000 S 
BRANCH  17  18
ATOM     18  C   UNL     1       8.202   8.664  17.977  0.00  0.00    +0.000 C 
BRANCH  18  19
ATOM     19  C   UNL     1       8.941   9.541  18.992  0.00  0.00    +0.000 C 
BRANCH  19  20
ATOM     20  C   UNL     1       9.415  10.848  18.404  0.00  0.00    +0.000 A 
ATOM     21  C   UNL     1      10.785  11.121  18.277  0.00  0.00    +0.000 A 
ATOM     22  C   UNL     1      11.218  12.321  17.713  0.00  0.00    +0.000 A 
ATOM     23  C   UNL     1      10.289  13.263  17.273  0.00  0.00    +0.000 A 
ATOM     24  C   UNL     1       8.926  13.005  17.401  0.00  0.00    +0.000 A 
ATOM     25  C   UNL     1       8.490  11.805  17.966  0.00  0.00    +0.000 A 
ENDBRANCH  19  20
ENDBRANCH  18  19
ENDBRANCH  17  18
ENDBRANCH   6  17
TORSDOF 6
ENDMDL
MODEL 6
REMARK VINA RESULT:      -7.5      5.140      7.721
REMARK  Name = 
REMARK  6 active torsions:
REMARK  status: ('A' for Active; 'I' for Inactive)
REMARK    1  A    between atoms: C_4  and  C_5
REMARK    2  A    between atoms: C_5  and  C_6
REMARK    3  A    between atoms: C_13  and  S_14
REMARK    4  A    between atoms: S_14  and  C_15
REMARK    5  A    between atoms: C_15  and  C_16
REMARK    6  A    between atoms: C_16  and  C_17
REMARK                            x       y       z     vdW  Elec       q    Type
REMARK                         _______ _______ _______ _____ _____    ______ ____
ROOT
ATOM      1  N   UNL     1       7.704   5.530  19.813  0.00  0.00    +0.000 N 
ATOM      2  C   UNL     1       6.752   5.104  18.886  0.00  0.00    +0.000 A 
ATOM      3  C   UNL     1       6.606   5.762  17.688  0.00  0.00    +0.000 A 
ATOM      4  C   UNL     1       5.620   5.293  16.842  0.00  0.00    +0.000 A 
ATOM      5  N   UNL     1       4.829   4.247  17.171  0.00  0.00    +0.000 NA
ATOM      6  C   UNL     1       5.043   3.685  18.372  0.00  0.00    +0.000 A 
ATOM      7  N   UNL     1       5.980   4.078  19.250  0.00  0.00    +0.000 NA
ATOM      8  H   UNL     1       8.632   5.587  19.408  0.00  0.00    +0.000 HD
ATOM      9  H   UNL     1       7.675   4.881  20.597  0.00  0.00    +0.000 HD
ENDROOT
BRANCH   4  10
ATOM     10  C   UNL     1       5.399   5.945  15.496  0.00  0.00    +0.000 C 
BRANCH  10  11
ATOM     11  C   UNL     1       5.914   5.143  14.321  0.00  0.00    +0.000 A 
ATOM     12  C   UNL     1       7.213   5.347  13.836  0.00  0.00    +0.000 A 
ATOM     13  C   UNL     1       7.713   4.571  12.789  0.00  0.00    +0.000 A 
ATOM     14  C   UNL     1       6.922   3.578  12.219  0.00  0.00    +0.000 A 
ATOM     15  C   UNL     1       5.627   3.364  12.688  0.00  0.00    +0.000 A 
ATOM     16  C   UNL     1       5.124   4.142  13.734  0.00  0.00    +0.000 A 
ENDBRANCH  10  11
ENDBRANCH   4  10
BRANCH   6  17
ATOM     17  S   UNL     1       3.981   2.370  18.917  0.00  0.00    +0.000 S 
BRANCH  17  18
ATOM     18  C   UNL     1       2.574   2.556  17.770  0.00  0.00    +0.000 C 
BRANCH  18  19
ATOM     19  C   UNL     1       1.400   3.171  18.535  0.00  0.00    +0.000 C 
BRANCH  19  20
ATOM     20  C   UNL     1       1.658   4.596  18.963  0.00  0.00    +0.000 A 
ATOM     21  C   UNL     1       1.537   4.974  20.307  0.00  0.00    +0.000 A 
ATOM     22  C   UNL     1       1.799   6.287  20.700  0.00  0.00    +0.000 A 
ATOM     23  C   UNL     1       2.181   7.237  19.755  0.00  0.00    +0.000 A 
ATOM     24  C   UNL     1       2.297   6.874  18.414  0.00  0.00    +0.000 A 
ATOM     25  C   UNL     1       2.035   5.562  18.019  0.00  0.00    +0.000 A 
ENDBRANCH  19  20
ENDBRANCH  18  19
ENDBRANCH  17  18
ENDBRANCH   6  17
TORSDOF 6
ENDMDL
MODEL 7
REMARK VINA RESULT:      -7.5      1.837      8.555
REMARK  Name = 
REMARK  6 active torsions:
REMARK  status: ('A' for Active; 'I' for Inactive)
REMARK    1  A    between atoms: C_4  and  C_5
REMARK    2  A    between atoms: C_5  and  C_6
REMARK    3  A    between atoms: C_13  and  S_14
REMARK    4  A    between atoms: S_14  and  C_15
REMARK    5  A    between atoms: C_15  and  C_16
REMARK    6  A    between atoms: C_16  and  C_17
REMARK                            x       y       z     vdW  Elec       q    Type
REMARK                         _______ _______ _______ _____ _____    ______ ____
ROOT
ATOM      1  N   UNL     1       8.543   5.479  20.081  0.00  0.00    +0.000 N 
ATOM      2  C   UNL     1       8.109   6.163  18.945  0.00  0.00    +0.000 A 
ATOM      3  C   UNL     1       8.222   7.531  18.871  0.00  0.00    +0.000 A 
ATOM      4  C   UNL     1       7.740   8.130  17.723  0.00  0.00    +0.000 A 
ATOM      5  N   UNL     1       7.176   7.415  16.723  0.00  0.00    +0.000 NA
ATOM      6  C   UNL     1       7.100   6.087  16.901  0.00  0.00    +0.000 A 
ATOM      7  N   UNL     1       7.546   5.428  17.983  0.00  0.00    +0.000 NA
ATOM      8  H   UNL     1       9.507   5.696  20.311  0.00  0.00    +0.000 HD
ATOM      9  H   UNL     1       8.411   4.485  19.905  0.00  0.00    +0.000 HD
ENDROOT
BRANCH   4  10
ATOM     10  C   UNL     1       7.838   9.628  17.548  0.00  0.00    +0.000 C 
BRANCH  10  11
ATOM     11  C   UNL     1       8.940  10.280  18.353  0.00  0.00    +0.000 A 
ATOM     12  C   UNL     1       8.865  10.329  19.753  0.00  0.00    +0.000 A 
ATOM     13  C   UNL     1       9.905  10.879  20.504  0.00  0.00    +0.000 A 
ATOM     14  C   UNL     1      11.035  11.379  19.866  0.00  0.00    +0.000 A 
ATOM     15  C   UNL     1      11.125  11.341  18.475  0.00  0.00    +0.000 A 
ATOM     16  C   UNL     1      10.083  10.794  17.721  0.00  0.00    +0.000 A 
ENDBRANCH  10  11
ENDBRANCH   4  10
BRANCH   6  17
ATOM     17  S   UNL     1       6.285   5.092  15.677  0.00  0.00    +0.000 S 
BRANCH  17  18
ATOM     18  C   UNL     1       4.927   4.368  16.657  0.00  0.00    +0.000 C 
BRANCH  18  19
ATOM     19  C   UNL     1       4.098   5.508  17.257  0.00  0.00    +0.000 C 
BRANCH  19  20
ATOM     20  C   UNL     1       3.058   5.025  18.239  0.00  0.00    +0.000 A 
ATOM     21  C   UNL     1       2.195   3.971  17.908  0.00  0.00    +0.000 A 
ATOM     22  C   UNL     1       1.250   3.514  18.827  0.00  0.00    +0.000 A 
ATOM     23  C   UNL     1       1.155   4.106  20.086  0.00  0.00    +0.000 A 
ATOM     24  C   UNL     1       2.003   5.159  20.422  0.00  0.00    +0.000 A 
ATOM     25  C   UNL     1       2.948   5.618  19.504  0.00  0.00    +0.000 A 
ENDBRANCH  19  20
ENDBRANCH  18  19
ENDBRANCH  17  18
ENDBRANCH   6  17
TORSDOF 6
ENDMDL
MODEL 8
REMARK VINA RESULT:      -7.4      5.743      6.967
REMARK  Name = 
REMARK  6 active torsions:
REMARK  status: ('A' for Active; 'I' for Inactive)
REMARK    1  A    between atoms: C_4  and  C_5
REMARK    2  A    between atoms: C_5  and  C_6
REMARK    3  A    between atoms: C_13  and  S_14
REMARK    4  A    between atoms: S_14  and  C_15
REMARK    5  A    between atoms: C_15  and  C_16
REMARK    6  A    between atoms: C_16  and  C_17
REMARK                            x       y       z     vdW  Elec       q    Type
REMARK                         _______ _______ _______ _____ _____    ______ ____
ROOT
ATOM      1  N   UNL     1       6.923   5.136  14.828  0.00  0.00    +0.000 N 
ATOM      2  C   UNL     1       5.896   5.058  15.769  0.00  0.00    +0.000 A 
ATOM      3  C   UNL     1       5.402   3.837  16.160  0.00  0.00    +0.000 A 
ATOM      4  C   UNL     1       4.365   3.853  17.073  0.00  0.00    +0.000 A 
ATOM      5  N   UNL     1       3.852   5.007  17.557  0.00  0.00    +0.000 NA
ATOM      6  C   UNL     1       4.396   6.145  17.099  0.00  0.00    +0.000 A 
ATOM      7  N   UNL     1       5.405   6.216  16.215  0.00  0.00    +0.000 NA
ATOM      8  H   UNL     1       7.727   4.577  15.094  0.00  0.00    +0.000 HD
ATOM      9  H   UNL     1       7.165   6.119  14.723  0.00  0.00    +0.000 HD
ENDROOT
BRANCH   4  10
ATOM     10  C   UNL     1       3.771   2.556  17.571  0.00  0.00    +0.000 C 
BRANCH  10  11
ATOM     11  C   UNL     1       2.880   2.702  18.785  0.00  0.00    +0.000 A 
ATOM     12  C   UNL     1       3.429   2.687  20.076  0.00  0.00    +0.000 A 
ATOM     13  C   UNL     1       2.620   2.878  21.197  0.00  0.00    +0.000 A 
ATOM     14  C   UNL     1       1.255   3.092  21.041  0.00  0.00    +0.000 A 
ATOM     15  C   UNL     1       0.692   3.107  19.766  0.00  0.00    +0.000 A 
ATOM     16  C   UNL     1       1.500   2.913  18.642  0.00  0.00    +0.000 A 
ENDBRANCH  10  11
ENDBRANCH   4  10
BRANCH   6  17
ATOM     17  S   UNL     1       3.712   7.702  17.612  0.00  0.00    +0.000 S 
BRANCH  17  18
ATOM     18  C   UNL     1       2.132   7.165  18.351  0.00  0.00    +0.000 C 
BRANCH  18  19
ATOM     19  C   UNL     1       2.235   7.300  19.872  0.00  0.00    +0.000 C 
BRANCH  19  20
ATOM     20  C   UNL     1       1.389   8.423  20.422  0.00  0.00    +0.000 A 
ATOM     21  C   UNL     1       0.868   9.409  19.573  0.00  0.00    +0.000 A 
ATOM     22  C   UNL     1       0.068  10.432  20.084  0.00  0.00    +0.000 A 
ATOM     23  C   UNL     1      -0.217  10.484  21.447  0.00  0.00    +0.000 A 
ATOM     24  C   UNL     1       0.303   9.513  22.301  0.00  0.00    +0.000 A 
ATOM     25  C   UNL     1       1.103   8.489  21.793  0.00  0.00    +0.000 A 
ENDBRANCH  19  20
ENDBRANCH  18  19
ENDBRANCH  17  18
ENDBRANCH   6  17
TORSDOF 6
ENDMDL
MODEL 9
REMARK VINA RESULT:      -7.4      5.232      8.111
REMARK  Name = 
REMARK  6 active torsions:
REMARK  status: ('A' for Active; 'I' for Inactive)
REMARK    1  A    between atoms: C_4  and  C_5
REMARK    2  A    between atoms: C_5  and  C_6
REMARK    3  A    between atoms: C_13  and  S_14
REMARK    4  A    between atoms: S_14  and  C_15
REMARK    5  A    between atoms: C_15  and  C_16
REMARK    6  A    between atoms: C_16  and  C_17
REMARK                            x       y       z     vdW  Elec       q    Type
REMARK                         _______ _______ _______ _____ _____    ______ ____
ROOT
ATOM      1  N   UNL     1       7.487   5.480  19.582  0.00  0.00    +0.000 N 
ATOM      2  C   UNL     1       6.438   5.281  18.685  0.00  0.00    +0.000 A 
ATOM      3  C   UNL     1       6.587   4.428  17.618  0.00  0.00    +0.000 A 
ATOM      4  C   UNL     1       5.508   4.313  16.762  0.00  0.00    +0.000 A 
ATOM      5  N   UNL     1       4.364   5.007  16.953  0.00  0.00    +0.000 NA
ATOM      6  C   UNL     1       4.326   5.825  18.017  0.00  0.00    +0.000 A 
ATOM      7  N   UNL     1       5.327   5.992  18.896  0.00  0.00    +0.000 NA
ATOM      8  H   UNL     1       7.832   4.606  19.965  0.00  0.00    +0.000 HD
ATOM      9  H   UNL     1       7.148   6.104  20.312  0.00  0.00    +0.000 HD
ENDROOT
BRANCH   4  10
ATOM     10  C   UNL     1       5.578   3.385  15.571  0.00  0.00    +0.000 C 
BRANCH  10  11
ATOM     11  C   UNL     1       6.327   3.949  14.383  0.00  0.00    +0.000 A 
ATOM     12  C   UNL     1       6.117   3.426  13.099  0.00  0.00    +0.000 A 
ATOM     13  C   UNL     1       6.762   3.979  11.991  0.00  0.00    +0.000 A 
ATOM     14  C   UNL     1       7.618   5.063  12.153  0.00  0.00    +0.000 A 
ATOM     15  C   UNL     1       7.840   5.592  13.424  0.00  0.00    +0.000 A 
ATOM     16  C   UNL     1       7.198   5.038  14.534  0.00  0.00    +0.000 A 
ENDBRANCH  10  11
ENDBRANCH   4  10
BRANCH   6  17
ATOM     17  S   UNL     1       2.895   6.842  18.280  0.00  0.00    +0.000 S 
BRANCH  17  18
ATOM     18  C   UNL     1       2.434   6.370  19.981  0.00  0.00    +0.000 C 
BRANCH  18  19
ATOM     19  C   UNL     1       1.504   5.156  19.915  0.00  0.00    +0.000 C 
BRANCH  19  20
ATOM     20  C   UNL     1       2.194   3.913  19.403  0.00  0.00    +0.000 A 
ATOM     21  C   UNL     1       3.303   3.382  20.076  0.00  0.00    +0.000 A 
ATOM     22  C   UNL     1       3.923   2.221  19.612  0.00  0.00    +0.000 A 
ATOM     23  C   UNL     1       3.444   1.581  18.470  0.00  0.00    +0.000 A 
ATOM     24  C   UNL     1       2.346   2.105  17.790  0.00  0.00    +0.000 A 
ATOM     25  C   UNL     1       1.725   3.266  18.252  0.00  0.00    +0.000 A 
ENDBRANCH  19  20
ENDBRANCH  18  19
ENDBRANCH  17  18
ENDBRANCH   6  17
TORSDOF 6
ENDMDL
