MODEL 1
REMARK VINA RESULT:      -7.4      0.000      0.000
REMARK  Name = 
REMARK  8 active torsions:
REMARK  status: ('A' for Active; 'I' for Inactive)
REMARK    1  A    between atoms: C_1  and  N_2
REMARK    2  A    between atoms: C_6  and  C_7
REMARK    3  A    between atoms: C_7  and  O_9
REMARK    4  A    between atoms: O_9  and  C_10
REMARK    5  A    between atoms: C_10  and  C_11
REMARK    6  A    between atoms: C_11  and  C_12
REMARK    7  A    between atoms: C_12  and  N_13
REMARK    8  A    between atoms: C_18  and  N_19
REMARK                            x       y       z     vdW  Elec       q    Type
REMARK                         _______ _______ _______ _____ _____    ______ ____
ROOT
ATOM      1  C   UNL     1       2.816   2.581  20.949  0.00  0.00    +0.000 C 
ENDROOT
BRANCH   1   2
ATOM      2  N   UNL     1       2.989   2.708  19.504  0.00  0.00    +0.000 N 
ATOM      3  C   UNL     1       2.153   2.130  18.583  0.00  0.00    +0.000 A 
ATOM      4  C   UNL     1       2.628   2.433  17.327  0.00  0.00    +0.000 A 
ATOM      5  C   UNL     1       3.799   3.218  17.484  0.00  0.00    +0.000 A 
ATOM      6  C   UNL     1       4.692   3.800  16.565  0.00  0.00    +0.000 A 
ATOM      7  C   UNL     1       5.783   4.531  17.055  0.00  0.00    +0.000 A 
ATOM      8  C   UNL     1       5.995   4.681  18.431  0.00  0.00    +0.000 A 
ATOM      9  C   UNL     1       5.111   4.105  19.353  0.00  0.00    +0.000 A 
ATOM     10  C   UNL     1       4.014   3.378  18.859  0.00  0.00    +0.000 A 
BRANCH   7  11
ATOM     11  N   UNL     1       6.714   5.153  16.101  0.00  0.00    +0.000 N 
ATOM     12  O   UNL     1       7.831   4.639  15.962  0.00  0.00    +0.000 OA
ATOM     13  O   UNL     1       6.319   6.153  15.480  0.00  0.00    +0.000 OA
ENDBRANCH   7  11
ENDBRANCH   1   2
BRANCH   1  14
ATOM     14  C   UNL     1       2.223   3.839  21.577  0.00  0.00    +0.000 C 
BRANCH  14  15
ATOM     15  C   UNL     1       1.616   4.783  20.541  0.00  0.00    +0.000 C 
BRANCH  15  16
ATOM     16  O   UNL     1       2.273   6.068  20.610  0.00  0.00    +0.000 OA
BRANCH  16  17
ATOM     17  C   UNL     1       2.265   6.811  19.479  0.00  0.00    +0.000 C 
ATOM     18  O   UNL     1       2.668   6.478  18.376  0.00  0.00    +0.000 OA
BRANCH  17  24
ATOM     19  C   UNL     1       0.010   9.887  22.584  0.00  0.00    +0.000 C 
ATOM     20  N   UNL     1       0.606   9.638  21.257  0.00  0.00    +0.000 N 
ATOM     21  C   UNL     1       0.541  10.594  20.303  0.00  0.00    +0.000 A 
ATOM     22  C   UNL     1       1.024  10.352  19.023  0.00  0.00    +0.000 A 
ATOM     23  C   UNL     1       1.584   9.115  18.724  0.00  0.00    +0.000 A 
ATOM     24  C   UNL     1       1.673   8.145  19.720  0.00  0.00    +0.000 A 
ATOM     25  C   UNL     1       1.178   8.433  20.995  0.00  0.00    +0.000 A 
ENDBRANCH  17  24
ENDBRANCH  16  17
ENDBRANCH  15  16
ENDBRANCH  14  15
ENDBRANCH   1  14
TORSDOF 7
ENDMDL
MODEL 2
REMARK VINA RESULT:      -7.4      5.622      7.334
REMARK  Name = 
REMARK  8 active torsions:
REMARK  status: ('A' for Active; 'I' for Inactive)
REMARK    1  A    between atoms: C_1  and  N_2
REMARK    2  A    between atoms: C_6  and  C_7
REMARK    3  A    between atoms: C_7  and  O_9
REMARK    4  A    between atoms: O_9  and  C_10
REMARK    5  A    between atoms: C_10  and  C_11
REMARK    6  A    between atoms: C_11  and  C_12
REMARK    7  A    between atoms: C_12  and  N_13
REMARK    8  A    between atoms: C_18  and  N_19
REMARK                            x       y       z     vdW  Elec       q    Type
REMARK                         _______ _______ _______ _____ _____    ______ ____
ROOT
ATOM      1  C   UNL     1       7.593   6.772  18.219  0.00  0.00    +0.000 C 
ENDROOT
BRANCH   1   2
ATOM      2  N   UNL     1       6.729   5.789  17.572  0.00  0.00    +0.000 N 
ATOM      3  C   UNL     1       6.955   5.283  16.317  0.00  0.00    +0.000 A 
ATOM      4  C   UNL     1       5.935   4.410  16.018  0.00  0.00    +0.000 A 
ATOM      5  C   UNL     1       5.048   4.385  17.125  0.00  0.00    +0.000 A 
ATOM      6  C   UNL     1       3.850   3.689  17.377  0.00  0.00    +0.000 A 
ATOM      7  C   UNL     1       3.196   3.893  18.600  0.00  0.00    +0.000 A 
ATOM      8  C   UNL     1       3.711   4.775  19.558  0.00  0.00    +0.000 A 
ATOM      9  C   UNL     1       4.902   5.471  19.315  0.00  0.00    +0.000 A 
ATOM     10  C   UNL     1       5.560   5.260  18.091  0.00  0.00    +0.000 A 
BRANCH   7  11
ATOM     11  N   UNL     1       1.952   3.161  18.876  0.00  0.00    +0.000 N 
ATOM     12  O   UNL     1       1.140   3.027  17.952  0.00  0.00    +0.000 OA
ATOM     13  O   UNL     1       1.793   2.705  20.021  0.00  0.00    +0.000 OA
ENDBRANCH   7  11
ENDBRANCH   1   2
BRANCH   1  14
ATOM     14  C   UNL     1       7.893   7.966  17.317  0.00  0.00    +0.000 C 
BRANCH  14  15
ATOM     15  C   UNL     1       7.950   9.284  18.088  0.00  0.00    +0.000 C 
BRANCH  15  16
ATOM     16  O   UNL     1       9.151   9.326  18.891  0.00  0.00    +0.000 OA
BRANCH  16  17
ATOM     17  C   UNL     1       9.335  10.436  19.642  0.00  0.00    +0.000 C 
ATOM     18  O   UNL     1       9.147  10.553  20.843  0.00  0.00    +0.000 OA
BRANCH  17  24
ATOM     19  C   UNL     1       8.717  15.059  18.082  0.00  0.00    +0.000 C 
ATOM     20  N   UNL     1       9.527  13.825  18.099  0.00  0.00    +0.000 N 
ATOM     21  C   UNL     1      10.638  13.743  17.332  0.00  0.00    +0.000 A 
ATOM     22  C   UNL     1      11.370  12.563  17.272  0.00  0.00    +0.000 A 
ATOM     23  C   UNL     1      10.958  11.460  18.011  0.00  0.00    +0.000 A 
ATOM     24  C   UNL     1       9.828  11.563  18.820  0.00  0.00    +0.000 A 
ATOM     25  C   UNL     1       9.123  12.769  18.854  0.00  0.00    +0.000 A 
ENDBRANCH  17  24
ENDBRANCH  16  17
ENDBRANCH  15  16
ENDBRANCH  14  15
ENDBRANCH   1  14
TORSDOF 7
ENDMDL
MODEL 3
REMARK VINA RESULT:      -7.3      0.738      1.553
REMARK  Name = 
REMARK  8 active torsions:
REMARK  status: ('A' for Active; 'I' for Inactive)
REMARK    1  A    between atoms: C_1  and  N_2
REMARK    2  A    between atoms: C_6  and  C_7
REMARK    3  A    between atoms: C_7  and  O_9
REMARK    4  A    between atoms: O_9  and  C_10
REMARK    5  A    between atoms: C_10  and  C_11
REMARK    6  A    between atoms: C_11  and  C_12
REMARK    7  A    between atoms: C_12  and  N_13
REMARK    8  A    between atoms: C_18  and  N_19
REMARK                            x       y       z     vdW  Elec       q    Type
REMARK                         _______ _______ _______ _____ _____    ______ ____
ROOT
ATOM      1  C   UNL     1       2.992   2.673  20.927  0.00  0.00    +0.000 C 
ENDROOT
BRANCH   1   2
ATOM      2  N   UNL     1       3.082   2.829  19.478  0.00  0.00    +0.000 N 
ATOM      3  C   UNL     1       2.299   2.139  18.587  0.00  0.00    +0.000 A 
ATOM      4  C   UNL     1       2.670   2.510  17.316  0.00  0.00    +0.000 A 
ATOM      5  C   UNL     1       3.721   3.455  17.430  0.00  0.00    +0.000 A 
ATOM      6  C   UNL     1       4.481   4.163  16.478  0.00  0.00    +0.000 A 
ATOM      7  C   UNL     1       5.475   5.043  16.928  0.00  0.00    +0.000 A 
ATOM      8  C   UNL     1       5.722   5.218  18.295  0.00  0.00    +0.000 A 
ATOM      9  C   UNL     1       4.971   4.518  19.249  0.00  0.00    +0.000 A 
ATOM     10  C   UNL     1       3.970   3.641  18.795  0.00  0.00    +0.000 A 
BRANCH   7  11
ATOM     11  N   UNL     1       6.263   5.796  15.942  0.00  0.00    +0.000 N 
ATOM     12  O   UNL     1       5.659   6.553  15.172  0.00  0.00    +0.000 OA
ATOM     13  O   UNL     1       7.495   5.637  15.948  0.00  0.00    +0.000 OA
ENDBRANCH   7  11
ENDBRANCH   1   2
BRANCH   1  14
ATOM     14  C   UNL     1       2.114   3.741  21.573  0.00  0.00    +0.000 C 
BRANCH  14  15
ATOM     15  C   UNL     1       1.487   4.685  20.549  0.00  0.00    +0.000 C 
BRANCH  15  16
ATOM     16  O   UNL     1       1.522   6.040  21.050  0.00  0.00    +0.000 OA
BRANCH  16  17
ATOM     17  C   UNL     1       1.888   6.999  20.170  0.00  0.00    +0.000 C 
ATOM     18  O   UNL     1       2.560   6.856  19.160  0.00  0.00    +0.000 OA
BRANCH  17  24
ATOM     19  C   UNL     1       0.595  11.556  18.845  0.00  0.00    +0.000 C 
ATOM     20  N   UNL     1       0.699  10.522  19.894  0.00  0.00    +0.000 N 
ATOM     21  C   UNL     1       0.365  10.827  21.168  0.00  0.00    +0.000 A 
ATOM     22  C   UNL     1       0.530   9.894  22.185  0.00  0.00    +0.000 A 
ATOM     23  C   UNL     1       1.038   8.635  21.886  0.00  0.00    +0.000 A 
ATOM     24  C   UNL     1       1.353   8.321  20.566  0.00  0.00    +0.000 A 
ATOM     25  C   UNL     1       1.168   9.288  19.574  0.00  0.00    +0.000 A 
ENDBRANCH  17  24
ENDBRANCH  16  17
ENDBRANCH  15  16
ENDBRANCH  14  15
ENDBRANCH   1  14
TORSDOF 7
ENDMDL
MODEL 4
REMARK VINA RESULT:      -7.3      2.557      6.905
REMARK  Name = 
REMARK  8 active torsions:
REMARK  status: ('A' for Active; 'I' for Inactive)
REMARK    1  A    between atoms: C_1  and  N_2
REMARK    2  A    between atoms: C_6  and  C_7
REMARK    3  A    between atoms: C_7  and  O_9
REMARK    4  A    between atoms: O_9  and  C_10
REMARK    5  A    between atoms: C_10  and  C_11
REMARK    6  A    between atoms: C_11  and  C_12
REMARK    7  A    between atoms: C_12  and  N_13
REMARK    8  A    between atoms: C_18  and  N_19
REMARK                            x       y       z     vdW  Elec       q    Type
REMARK                         _______ _______ _______ _____ _____    ______ ____
ROOT
ATOM      1  C   UNL     1       2.202   5.303  20.641  0.00  0.00    +0.000 C 
ENDROOT
BRANCH   1   2
ATOM      2  N   UNL     1       2.121   6.502  19.812  0.00  0.00    +0.000 N 
ATOM      3  C   UNL     1       2.567   6.564  18.516  0.00  0.00    +0.000 A 
ATOM      4  C   UNL     1       2.361   7.844  18.054  0.00  0.00    +0.000 A 
ATOM      5  C   UNL     1       1.774   8.594  19.105  0.00  0.00    +0.000 A 
ATOM      6  C   UNL     1       1.355   9.935  19.208  0.00  0.00    +0.000 A 
ATOM      7  C   UNL     1       0.804  10.379  20.418  0.00  0.00    +0.000 A 
ATOM      8  C   UNL     1       0.674   9.517  21.514  0.00  0.00    +0.000 A 
ATOM      9  C   UNL     1       1.088   8.182  21.421  0.00  0.00    +0.000 A 
ATOM     10  C   UNL     1       1.634   7.737  20.204  0.00  0.00    +0.000 A 
BRANCH   7  11
ATOM     11  N   UNL     1       0.353  11.774  20.528  0.00  0.00    +0.000 N 
ATOM     12  O   UNL     1       0.496  12.345  21.617  0.00  0.00    +0.000 OA
ATOM     13  O   UNL     1      -0.135  12.304  19.516  0.00  0.00    +0.000 OA
ENDBRANCH   7  11
ENDBRANCH   1   2
BRANCH   1  14
ATOM     14  C   UNL     1       1.073   4.317  20.350  0.00  0.00    +0.000 C 
BRANCH  14  15
ATOM     15  C   UNL     1       1.555   3.079  19.597  0.00  0.00    +0.000 C 
BRANCH  15  16
ATOM     16  O   UNL     1       2.986   2.944  19.748  0.00  0.00    +0.000 OA
BRANCH  16  17
ATOM     17  C   UNL     1       3.675   2.564  18.647  0.00  0.00    +0.000 C 
ATOM     18  O   UNL     1       3.581   1.504  18.048  0.00  0.00    +0.000 OA
BRANCH  17  24
ATOM     19  C   UNL     1       5.670   5.092  14.931  0.00  0.00    +0.000 C 
ATOM     20  N   UNL     1       5.538   4.867  16.384  0.00  0.00    +0.000 N 
ATOM     21  C   UNL     1       6.298   5.583  17.243  0.00  0.00    +0.000 A 
ATOM     22  C   UNL     1       6.248   5.332  18.609  0.00  0.00    +0.000 A 
ATOM     23  C   UNL     1       5.404   4.339  19.095  0.00  0.00    +0.000 A 
ATOM     24  C   UNL     1       4.604   3.626  18.204  0.00  0.00    +0.000 A 
ATOM     25  C   UNL     1       4.683   3.913  16.839  0.00  0.00    +0.000 A 
ENDBRANCH  17  24
ENDBRANCH  16  17
ENDBRANCH  15  16
ENDBRANCH  14  15
ENDBRANCH   1  14
TORSDOF 7
ENDMDL
MODEL 5
REMARK VINA RESULT:      -7.3      2.452      7.525
REMARK  Name = 
REMARK  8 active torsions:
REMARK  status: ('A' for Active; 'I' for Inactive)
REMARK    1  A    between atoms: C_1  and  N_2
REMARK    2  A    between atoms: C_6  and  C_7
REMARK    3  A    between atoms: C_7  and  O_9
REMARK    4  A    between atoms: O_9  and  C_10
REMARK    5  A    between atoms: C_10  and  C_11
REMARK    6  A    between atoms: C_11  and  C_12
REMARK    7  A    between atoms: C_12  and  N_13
REMARK    8  A    between atoms: C_18  and  N_19
REMARK                            x       y       z     vdW  Elec       q    Type
REMARK                         _______ _______ _______ _____ _____    ______ ____
ROOT
ATOM      1  C   UNL     1       3.004   6.720  18.176  0.00  0.00    +0.000 C 
ENDROOT
BRANCH   1   2
ATOM      2  N   UNL     1       2.270   7.959  18.417  0.00  0.00    +0.000 N 
ATOM      3  C   UNL     1       2.104   8.942  17.475  0.00  0.00    +0.000 A 
ATOM      4  C   UNL     1       1.391   9.968  18.049  0.00  0.00    +0.000 A 
ATOM      5  C   UNL     1       1.116   9.605  19.393  0.00  0.00    +0.000 A 
ATOM      6  C   UNL     1       0.435  10.255  20.441  0.00  0.00    +0.000 A 
ATOM      7  C   UNL     1       0.339   9.613  21.683  0.00  0.00    +0.000 A 
ATOM      8  C   UNL     1       0.911   8.352  21.892  0.00  0.00    +0.000 A 
ATOM      9  C   UNL     1       1.589   7.698  20.855  0.00  0.00    +0.000 A 
ATOM     10  C   UNL     1       1.679   8.342  19.608  0.00  0.00    +0.000 A 
BRANCH   7  11
ATOM     11  N   UNL     1      -0.381  10.279  22.778  0.00  0.00    +0.000 N 
ATOM     12  O   UNL     1      -0.073   9.981  23.940  0.00  0.00    +0.000 OA
ATOM     13  O   UNL     1      -1.249  11.113  22.474  0.00  0.00    +0.000 OA
ENDBRANCH   7  11
ENDBRANCH   1   2
BRANCH   1  14
ATOM     14  C   UNL     1       2.092   5.496  18.158  0.00  0.00    +0.000 C 
BRANCH  14  15
ATOM     15  C   UNL     1       2.511   4.436  19.175  0.00  0.00    +0.000 C 
BRANCH  15  16
ATOM     16  O   UNL     1       3.422   3.502  18.555  0.00  0.00    +0.000 OA
BRANCH  16  17
ATOM     17  C   UNL     1       4.659   3.415  19.097  0.00  0.00    +0.000 C 
ATOM     18  O   UNL     1       5.016   2.682  20.005  0.00  0.00    +0.000 OA
BRANCH  17  24
ATOM     19  C   UNL     1       6.802   4.937  14.940  0.00  0.00    +0.000 C 
ATOM     20  N   UNL     1       6.606   5.091  16.395  0.00  0.00    +0.000 N 
ATOM     21  C   UNL     1       7.322   6.018  17.071  0.00  0.00    +0.000 A 
ATOM     22  C   UNL     1       7.212   6.126  18.452  0.00  0.00    +0.000 A 
ATOM     23  C   UNL     1       6.354   5.277  19.142  0.00  0.00    +0.000 A 
ATOM     24  C   UNL     1       5.600   4.344  18.433  0.00  0.00    +0.000 A 
ATOM     25  C   UNL     1       5.738   4.272  17.045  0.00  0.00    +0.000 A 
ENDBRANCH  17  24
ENDBRANCH  16  17
ENDBRANCH  15  16
ENDBRANCH  14  15
ENDBRANCH   1  14
TORSDOF 7
ENDMDL
MODEL 6
REMARK VINA RESULT:      -7.3      2.517      7.000
REMARK  Name = 
REMARK  8 active torsions:
REMARK  status: ('A' for Active; 'I' for Inactive)
REMARK    1  A    between atoms: C_1  and  N_2
REMARK    2  A    between atoms: C_6  and  C_7
REMARK    3  A    between atoms: C_7  and  O_9
REMARK    4  A    between atoms: O_9  and  C_10
REMARK    5  A    between atoms: C_10  and  C_11
REMARK    6  A    between atoms: C_11  and  C_12
REMARK    7  A    between atoms: C_12  and  N_13
REMARK    8  A    between atoms: C_18  and  N_19
REMARK                            x       y       z     vdW  Elec       q    Type
REMARK                         _______ _______ _______ _____ _____    ______ ____
ROOT
ATOM      1  C   UNL     1       2.226   5.512  20.483  0.00  0.00    +0.000 C 
ENDROOT
BRANCH   1   2
ATOM      2  N   UNL     1       2.110   6.739  19.700  0.00  0.00    +0.000 N 
ATOM      3  C   UNL     1       2.524   6.853  18.397  0.00  0.00    +0.000 A 
ATOM      4  C   UNL     1       2.290   8.144  17.986  0.00  0.00    +0.000 A 
ATOM      5  C   UNL     1       1.718   8.849  19.076  0.00  0.00    +0.000 A 
ATOM      6  C   UNL     1       1.284  10.179  19.235  0.00  0.00    +0.000 A 
ATOM      7  C   UNL     1       0.755  10.573  20.472  0.00  0.00    +0.000 A 
ATOM      8  C   UNL     1       0.663   9.671  21.540  0.00  0.00    +0.000 A 
ATOM      9  C   UNL     1       1.092   8.346  21.390  0.00  0.00    +0.000 A 
ATOM     10  C   UNL     1       1.616   7.952  20.146  0.00  0.00    +0.000 A 
BRANCH   7  11
ATOM     11  N   UNL     1       0.288  11.956  20.643  0.00  0.00    +0.000 N 
ATOM     12  O   UNL     1      -0.343  12.473  19.713  0.00  0.00    +0.000 OA
ATOM     13  O   UNL     1       0.543  12.522  21.719  0.00  0.00    +0.000 OA
ENDBRANCH   7  11
ENDBRANCH   1   2
BRANCH   1  14
ATOM     14  C   UNL     1       1.320   4.400  19.962  0.00  0.00    +0.000 C 
BRANCH  14  15
ATOM     15  C   UNL     1       2.026   3.046  19.905  0.00  0.00    +0.000 C 
BRANCH  15  16
ATOM     16  O   UNL     1       3.320   3.198  19.282  0.00  0.00    +0.000 OA
BRANCH  16  17
ATOM     17  C   UNL     1       3.333   3.293  17.933  0.00  0.00    +0.000 C 
ATOM     18  O   UNL     1       2.445   2.962  17.162  0.00  0.00    +0.000 OA
BRANCH  17  24
ATOM     19  C   UNL     1       7.486   5.711  18.980  0.00  0.00    +0.000 C 
ATOM     20  N   UNL     1       6.630   5.032  17.986  0.00  0.00    +0.000 N 
ATOM     21  C   UNL     1       6.994   5.026  16.683  0.00  0.00    +0.000 A 
ATOM     22  C   UNL     1       6.165   4.463  15.720  0.00  0.00    +0.000 A 
ATOM     23  C   UNL     1       4.953   3.899  16.102  0.00  0.00    +0.000 A 
ATOM     24  C   UNL     1       4.600   3.885  17.450  0.00  0.00    +0.000 A 
ATOM     25  C   UNL     1       5.465   4.459  18.386  0.00  0.00    +0.000 A 
ENDBRANCH  17  24
ENDBRANCH  16  17
ENDBRANCH  15  16
ENDBRANCH  14  15
ENDBRANCH   1  14
TORSDOF 7
ENDMDL
MODEL 7
REMARK VINA RESULT:      -7.2      2.654      7.620
REMARK  Name = 
REMARK  8 active torsions:
REMARK  status: ('A' for Active; 'I' for Inactive)
REMARK    1  A    between atoms: C_1  and  N_2
REMARK    2  A    between atoms: C_6  and  C_7
REMARK    3  A    between atoms: C_7  and  O_9
REMARK    4  A    between atoms: O_9  and  C_10
REMARK    5  A    between atoms: C_10  and  C_11
REMARK    6  A    between atoms: C_11  and  C_12
REMARK    7  A    between atoms: C_12  and  N_13
REMARK    8  A    between atoms: C_18  and  N_19
REMARK                            x       y       z     vdW  Elec       q    Type
REMARK                         _______ _______ _______ _____ _____    ______ ____
ROOT
ATOM      1  C   UNL     1       2.823   6.428  19.589  0.00  0.00    +0.000 C 
ENDROOT
BRANCH   1   2
ATOM      2  N   UNL     1       2.147   7.677  19.250  0.00  0.00    +0.000 N 
ATOM      3  C   UNL     1       2.207   8.264  18.011  0.00  0.00    +0.000 A 
ATOM      4  C   UNL     1       1.482   9.433  18.057  0.00  0.00    +0.000 A 
ATOM      5  C   UNL     1       0.965   9.571  19.371  0.00  0.00    +0.000 A 
ATOM      6  C   UNL     1       0.169  10.555  19.988  0.00  0.00    +0.000 A 
ATOM      7  C   UNL     1      -0.175  10.395  21.338  0.00  0.00    +0.000 A 
ATOM      8  C   UNL     1       0.266   9.285  22.070  0.00  0.00    +0.000 A 
ATOM      9  C   UNL     1       1.058   8.302  21.464  0.00  0.00    +0.000 A 
ATOM     10  C   UNL     1       1.396   8.461  20.108  0.00  0.00    +0.000 A 
BRANCH   7  11
ATOM     11  N   UNL     1      -1.016  11.410  21.987  0.00  0.00    +0.000 N 
ATOM     12  O   UNL     1      -1.827  12.026  21.284  0.00  0.00    +0.000 OA
ATOM     13  O   UNL     1      -0.873  11.582  23.209  0.00  0.00    +0.000 OA
ENDBRANCH   7  11
ENDBRANCH   1   2
BRANCH   1  14
ATOM     14  C   UNL     1       2.014   5.200  19.181  0.00  0.00    +0.000 C 
BRANCH  14  15
ATOM     15  C   UNL     1       2.488   4.598  17.860  0.00  0.00    +0.000 C 
BRANCH  15  16
ATOM     16  O   UNL     1       3.192   3.362  18.113  0.00  0.00    +0.000 OA
BRANCH  16  17
ATOM     17  C   UNL     1       4.467   3.474  18.551  0.00  0.00    +0.000 C 
ATOM     18  O   UNL     1       4.921   3.069  19.610  0.00  0.00    +0.000 OA
BRANCH  17  24
ATOM     19  C   UNL     1       7.512   7.195  17.517  0.00  0.00    +0.000 C 
ATOM     20  N   UNL     1       6.822   5.964  17.083  0.00  0.00    +0.000 N 
ATOM     21  C   UNL     1       6.936   5.550  15.801  0.00  0.00    +0.000 A 
ATOM     22  C   UNL     1       6.232   4.440  15.351  0.00  0.00    +0.000 A 
ATOM     23  C   UNL     1       5.406   3.748  16.229  0.00  0.00    +0.000 A 
ATOM     24  C   UNL     1       5.316   4.166  17.556  0.00  0.00    +0.000 A 
ATOM     25  C   UNL     1       6.045   5.285  17.967  0.00  0.00    +0.000 A 
ENDBRANCH  17  24
ENDBRANCH  16  17
ENDBRANCH  15  16
ENDBRANCH  14  15
ENDBRANCH   1  14
TORSDOF 7
ENDMDL
MODEL 8
REMARK VINA RESULT:      -7.2      2.643      6.861
REMARK  Name = 
REMARK  8 active torsions:
REMARK  status: ('A' for Active; 'I' for Inactive)
REMARK    1  A    between atoms: C_1  and  N_2
REMARK    2  A    between atoms: C_6  and  C_7
REMARK    3  A    between atoms: C_7  and  O_9
REMARK    4  A    between atoms: O_9  and  C_10
REMARK    5  A    between atoms: C_10  and  C_11
REMARK    6  A    between atoms: C_11  and  C_12
REMARK    7  A    between atoms: C_12  and  N_13
REMARK    8  A    between atoms: C_18  and  N_19
REMARK                            x       y       z     vdW  Elec       q    Type
REMARK                         _______ _______ _______ _____ _____    ______ ____
ROOT
ATOM      1  C   UNL     1       1.946   6.044  20.758  0.00  0.00    +0.000 C 
ENDROOT
BRANCH   1   2
ATOM      2  N   UNL     1       2.123   6.991  19.661  0.00  0.00    +0.000 N 
ATOM      3  C   UNL     1       2.818   6.705  18.513  0.00  0.00    +0.000 A 
ATOM      4  C   UNL     1       2.807   7.827  17.716  0.00  0.00    +0.000 A 
ATOM      5  C   UNL     1       2.085   8.838  18.402  0.00  0.00    +0.000 A 
ATOM      6  C   UNL     1       1.760  10.169  18.080  0.00  0.00    +0.000 A 
ATOM      7  C   UNL     1       1.019  10.925  18.999  0.00  0.00    +0.000 A 
ATOM      8  C   UNL     1       0.611  10.378  20.222  0.00  0.00    +0.000 A 
ATOM      9  C   UNL     1       0.929   9.054  20.551  0.00  0.00    +0.000 A 
ATOM     10  C   UNL     1       1.667   8.296  19.624  0.00  0.00    +0.000 A 
BRANCH   7  11
ATOM     11  N   UNL     1       0.665  12.311  18.665  0.00  0.00    +0.000 N 
ATOM     12  O   UNL     1      -0.513  12.661  18.817  0.00  0.00    +0.000 OA
ATOM     13  O   UNL     1       1.573  13.057  18.262  0.00  0.00    +0.000 OA
ENDBRANCH   7  11
ENDBRANCH   1   2
BRANCH   1  14
ATOM     14  C   UNL     1       1.424   4.692  20.282  0.00  0.00    +0.000 C 
BRANCH  14  15
ATOM     15  C   UNL     1       2.407   3.554  20.553  0.00  0.00    +0.000 C 
BRANCH  15  16
ATOM     16  O   UNL     1       3.140   3.247  19.347  0.00  0.00    +0.000 OA
BRANCH  16  17
ATOM     17  C   UNL     1       4.481   3.117  19.473  0.00  0.00    +0.000 C 
ATOM     18  O   UNL     1       5.082   2.325  20.183  0.00  0.00    +0.000 OA
BRANCH  17  24
ATOM     19  C   UNL     1       5.560   4.639  14.922  0.00  0.00    +0.000 C 
ATOM     20  N   UNL     1       5.681   4.822  16.382  0.00  0.00    +0.000 N 
ATOM     21  C   UNL     1       6.472   5.805  16.870  0.00  0.00    +0.000 A 
ATOM     22  C   UNL     1       6.663   5.946  18.239  0.00  0.00    +0.000 A 
ATOM     23  C   UNL     1       6.031   5.070  19.114  0.00  0.00    +0.000 A 
ATOM     24  C   UNL     1       5.195   4.078  18.604  0.00  0.00    +0.000 A 
ATOM     25  C   UNL     1       5.028   3.975  17.220  0.00  0.00    +0.000 A 
ENDBRANCH  17  24
ENDBRANCH  16  17
ENDBRANCH  15  16
ENDBRANCH  14  15
ENDBRANCH   1  14
TORSDOF 7
ENDMDL
MODEL 9
REMARK VINA RESULT:      -7.2      2.684      8.216
REMARK  Name = 
REMARK  8 active torsions:
REMARK  status: ('A' for Active; 'I' for Inactive)
REMARK    1  A    between atoms: C_1  and  N_2
REMARK    2  A    between atoms: C_6  and  C_7
REMARK    3  A    between atoms: C_7  and  O_9
REMARK    4  A    between atoms: O_9  and  C_10
REMARK    5  A    between atoms: C_10  and  C_11
REMARK    6  A    between atoms: C_11  and  C_12
REMARK    7  A    between atoms: C_12  and  N_13
REMARK    8  A    between atoms: C_18  and  N_19
REMARK                            x       y       z     vdW  Elec       q    Type
REMARK                         _______ _______ _______ _____ _____    ______ ____
ROOT
ATOM      1  C   UNL     1       2.424   6.891  19.539  0.00  0.00    +0.000 C 
ENDROOT
BRANCH   1   2
ATOM      2  N   UNL     1       1.763   8.187  19.416  0.00  0.00    +0.000 N 
ATOM      3  C   UNL     1       1.716   8.911  18.252  0.00  0.00    +0.000 A 
ATOM      4  C   UNL     1       1.043  10.084  18.505  0.00  0.00    +0.000 A 
ATOM      5  C   UNL     1       0.671  10.083  19.874  0.00  0.00    +0.000 A 
ATOM      6  C   UNL     1      -0.020  11.008  20.680  0.00  0.00    +0.000 A 
ATOM      7  C   UNL     1      -0.227  10.702  22.033  0.00  0.00    +0.000 A 
ATOM      8  C   UNL     1       0.246   9.505  22.585  0.00  0.00    +0.000 A 
ATOM      9  C   UNL     1       0.934   8.579  21.790  0.00  0.00    +0.000 A 
ATOM     10  C   UNL     1       1.135   8.885  20.432  0.00  0.00    +0.000 A 
BRANCH   7  11
ATOM     11  N   UNL     1      -0.959  11.656  22.878  0.00  0.00    +0.000 N 
ATOM     12  O   UNL     1      -0.481  12.789  23.021  0.00  0.00    +0.000 OA
ATOM     13  O   UNL     1      -2.024  11.273  23.390  0.00  0.00    +0.000 OA
ENDBRANCH   7  11
ENDBRANCH   1   2
BRANCH   1  14
ATOM     14  C   UNL     1       2.672   6.233  18.184  0.00  0.00    +0.000 C 
BRANCH  14  15
ATOM     15  C   UNL     1       1.929   4.907  18.031  0.00  0.00    +0.000 C 
BRANCH  15  16
ATOM     16  O   UNL     1       2.829   3.902  17.514  0.00  0.00    +0.000 OA
BRANCH  16  17
ATOM     17  C   UNL     1       3.950   3.668  18.234  0.00  0.00    +0.000 C 
ATOM     18  O   UNL     1       4.018   3.207  19.362  0.00  0.00    +0.000 OA
BRANCH  17  24
ATOM     19  C   UNL     1       6.216   3.988  13.880  0.00  0.00    +0.000 C 
ATOM     20  N   UNL     1       6.235   4.216  15.339  0.00  0.00    +0.000 N 
ATOM     21  C   UNL     1       7.358   4.687  15.928  0.00  0.00    +0.000 A 
ATOM     22  C   UNL     1       7.424   4.833  17.308  0.00  0.00    +0.000 A 
ATOM     23  C   UNL     1       6.325   4.495  18.088  0.00  0.00    +0.000 A 
ATOM     24  C   UNL     1       5.163   4.036  17.471  0.00  0.00    +0.000 A 
ATOM     25  C   UNL     1       5.138   3.908  16.079  0.00  0.00    +0.000 A 
ENDBRANCH  17  24
ENDBRANCH  16  17
ENDBRANCH  15  16
ENDBRANCH  14  15
ENDBRANCH   1  14
TORSDOF 7
ENDMDL
