MODEL 1
REMARK VINA RESULT:      -7.5      0.000      0.000
REMARK  Name = 
REMARK  7 active torsions:
REMARK  status: ('A' for Active; 'I' for Inactive)
REMARK    1  A    between atoms: C_1  and  N_2
REMARK    2  A    between atoms: N_2  and  C_3
REMARK    3  A    between atoms: N_2  and  C_4
REMARK    4  A    between atoms: C_4  and  C_5
REMARK    5  A    between atoms: C_5  and  N_6
REMARK    6  A    between atoms: C_7  and  C_9
REMARK    7  A    between atoms: C_15  and  N_16
REMARK                            x       y       z     vdW  Elec       q    Type
REMARK                         _______ _______ _______ _____ _____    ______ ____
ROOT
ATOM      1  C   UNL     1       6.537   6.128  17.888  0.00  0.00    +0.000 A 
ATOM      2  C   UNL     1       5.711   5.919  18.999  0.00  0.00    +0.000 A 
ATOM      3  C   UNL     1       4.593   5.098  18.914  0.00  0.00    +0.000 A 
ATOM      4  C   UNL     1       3.774   4.942  20.043  0.00  0.00    +0.000 A 
ATOM      5  C   UNL     1       2.625   4.162  19.987  0.00  0.00    +0.000 A 
ATOM      6  C   UNL     1       2.287   3.529  18.799  0.00  0.00    +0.000 A 
ATOM      7  C   UNL     1       3.111   3.637  17.667  0.00  0.00    +0.000 A 
ATOM      8  C   UNL     1       4.287   4.453  17.691  0.00  0.00    +0.000 A 
ATOM      9  C   UNL     1       5.162   4.631  16.580  0.00  0.00    +0.000 A 
ATOM     10  N   UNL     1       4.929   3.968  15.414  0.00  0.00    +0.000 NA
ATOM     11  C   UNL     1       5.759   4.137  14.375  0.00  0.00    +0.000 A 
ATOM     12  C   UNL     1       5.518   3.463  13.182  0.00  0.00    +0.000 A 
ATOM     13  C   UNL     1       6.367   3.607  12.086  0.00  0.00    +0.000 A 
ATOM     14  C   UNL     1       7.476   4.436  12.186  0.00  0.00    +0.000 A 
ATOM     15  C   UNL     1       7.718   5.119  13.379  0.00  0.00    +0.000 A 
ATOM     16  C   UNL     1       6.870   4.985  14.474  0.00  0.00    +0.000 A 
ATOM     17  N   UNL     1       7.118   5.657  15.610  0.00  0.00    +0.000 NA
ATOM     18  C   UNL     1       6.290   5.485  16.674  0.00  0.00    +0.000 A 
ENDROOT
BRANCH   1  20
ATOM     19  N   UNL     1       7.615   8.266  17.374  0.00  0.00    +0.000 N 
ATOM     20  C   UNL     1       7.656   7.096  18.093  0.00  0.00    +0.000 C 
ATOM     21  O   UNL     1       8.522   6.857  18.930  0.00  0.00    +0.000 OA
ATOM     22  H   UNL     1       7.048   8.276  16.527  0.00  0.00    +0.000 HD
BRANCH  19  23
ATOM     23  C   UNL     1       8.618   9.299  17.529  0.00  0.00    +0.000 C 
BRANCH  23  24
ATOM     24  C   UNL     1       8.542  10.008  18.893  0.00  0.00    +0.000 C 
BRANCH  24  26
ATOM     25  C   UNL     1      10.218  11.703  18.358  0.00  0.00    +0.000 C 
ATOM     26  N   UNL     1       9.793  10.682  19.317  0.00  0.00    +0.000 NA
ATOM     27  C   UNL     1       9.594  11.292  20.635  0.00  0.00    +0.000 C 
ENDBRANCH  24  26
ENDBRANCH  23  24
ENDBRANCH  19  23
ENDBRANCH   1  20
BRANCH   7  28
ATOM     28  N   UNL     1       2.609   3.096  16.461  0.00  0.00    +0.000 N 
ATOM     29  H   UNL     1       1.718   3.484  16.172  0.00  0.00    +0.000 HD
ATOM     30  H   UNL     1       2.605   2.071  16.498  0.00  0.00    +0.000 HD
ENDBRANCH   7  28
TORSDOF 5
ENDMDL
MODEL 2
REMARK VINA RESULT:      -7.4      4.142      5.462
REMARK  Name = 
REMARK  7 active torsions:
REMARK  status: ('A' for Active; 'I' for Inactive)
REMARK    1  A    between atoms: C_1  and  N_2
REMARK    2  A    between atoms: N_2  and  C_3
REMARK    3  A    between atoms: N_2  and  C_4
REMARK    4  A    between atoms: C_4  and  C_5
REMARK    5  A    between atoms: C_5  and  N_6
REMARK    6  A    between atoms: C_7  and  C_9
REMARK    7  A    between atoms: C_15  and  N_16
REMARK                            x       y       z     vdW  Elec       q    Type
REMARK                         _______ _______ _______ _____ _____    ______ ____
ROOT
ATOM      1  C   UNL     1       2.717   6.657  18.763  0.00  0.00    +0.000 A 
ATOM      2  C   UNL     1       2.186   6.131  19.947  0.00  0.00    +0.000 A 
ATOM      3  C   UNL     1       2.471   4.830  20.342  0.00  0.00    +0.000 A 
ATOM      4  C   UNL     1       1.891   4.331  21.519  0.00  0.00    +0.000 A 
ATOM      5  C   UNL     1       2.120   3.023  21.927  0.00  0.00    +0.000 A 
ATOM      6  C   UNL     1       2.934   2.201  21.160  0.00  0.00    +0.000 A 
ATOM      7  C   UNL     1       3.557   2.687  20.001  0.00  0.00    +0.000 A 
ATOM      8  C   UNL     1       3.320   4.024  19.545  0.00  0.00    +0.000 A 
ATOM      9  C   UNL     1       3.898   4.584  18.369  0.00  0.00    +0.000 A 
ATOM     10  N   UNL     1       4.772   3.855  17.622  0.00  0.00    +0.000 NA
ATOM     11  C   UNL     1       5.314   4.391  16.520  0.00  0.00    +0.000 A 
ATOM     12  C   UNL     1       6.202   3.643  15.755  0.00  0.00    +0.000 A 
ATOM     13  C   UNL     1       6.794   4.173  14.609  0.00  0.00    +0.000 A 
ATOM     14  C   UNL     1       6.493   5.473  14.224  0.00  0.00    +0.000 A 
ATOM     15  C   UNL     1       5.596   6.224  14.987  0.00  0.00    +0.000 A 
ATOM     16  C   UNL     1       4.998   5.698  16.126  0.00  0.00    +0.000 A 
ATOM     17  N   UNL     1       4.132   6.437  16.840  0.00  0.00    +0.000 NA
ATOM     18  C   UNL     1       3.585   5.908  17.967  0.00  0.00    +0.000 A 
ENDROOT
BRANCH   1  20
ATOM     19  N   UNL     1       1.556   8.726  19.367  0.00  0.00    +0.000 N 
ATOM     20  C   UNL     1       2.266   8.037  18.414  0.00  0.00    +0.000 C 
ATOM     21  O   UNL     1       2.596   8.532  17.340  0.00  0.00    +0.000 OA
ATOM     22  H   UNL     1       1.093   8.180  20.093  0.00  0.00    +0.000 HD
BRANCH  19  23
ATOM     23  C   UNL     1       1.113  10.090  19.158  0.00  0.00    +0.000 C 
BRANCH  23  24
ATOM     24  C   UNL     1      -0.412  10.249  19.288  0.00  0.00    +0.000 C 
BRANCH  24  26
ATOM     25  C   UNL     1      -1.800   9.992  17.295  0.00  0.00    +0.000 C 
ATOM     26  N   UNL     1      -1.067  10.930  18.145  0.00  0.00    +0.000 NA
ATOM     27  C   UNL     1      -1.982  11.958  18.650  0.00  0.00    +0.000 C 
ENDBRANCH  24  26
ENDBRANCH  23  24
ENDBRANCH  19  23
ENDBRANCH   1  20
BRANCH   7  28
ATOM     28  N   UNL     1       4.235   1.741  19.197  0.00  0.00    +0.000 N 
ATOM     29  H   UNL     1       4.901   2.148  18.551  0.00  0.00    +0.000 HD
ATOM     30  H   UNL     1       3.566   1.112  18.738  0.00  0.00    +0.000 HD
ENDBRANCH   7  28
TORSDOF 5
ENDMDL
MODEL 3
REMARK VINA RESULT:      -7.3      4.018      5.248
REMARK  Name = 
REMARK  7 active torsions:
REMARK  status: ('A' for Active; 'I' for Inactive)
REMARK    1  A    between atoms: C_1  and  N_2
REMARK    2  A    between atoms: N_2  and  C_3
REMARK    3  A    between atoms: N_2  and  C_4
REMARK    4  A    between atoms: C_4  and  C_5
REMARK    5  A    between atoms: C_5  and  N_6
REMARK    6  A    between atoms: C_7  and  C_9
REMARK    7  A    between atoms: C_15  and  N_16
REMARK                            x       y       z     vdW  Elec       q    Type
REMARK                         _______ _______ _______ _____ _____    ______ ____
ROOT
ATOM      1  C   UNL     1       2.638   6.523  19.004  0.00  0.00    +0.000 A 
ATOM      2  C   UNL     1       2.084   5.911  20.135  0.00  0.00    +0.000 A 
ATOM      3  C   UNL     1       2.332   4.573  20.417  0.00  0.00    +0.000 A 
ATOM      4  C   UNL     1       1.730   3.991  21.544  0.00  0.00    +0.000 A 
ATOM      5  C   UNL     1       1.921   2.647  21.838  0.00  0.00    +0.000 A 
ATOM      6  C   UNL     1       2.720   1.873  21.008  0.00  0.00    +0.000 A 
ATOM      7  C   UNL     1       3.365   2.441  19.898  0.00  0.00    +0.000 A 
ATOM      8  C   UNL     1       3.166   3.818  19.559  0.00  0.00    +0.000 A 
ATOM      9  C   UNL     1       3.768   4.462  18.439  0.00  0.00    +0.000 A 
ATOM     10  N   UNL     1       4.629   3.777  17.637  0.00  0.00    +0.000 NA
ATOM     11  C   UNL     1       5.193   4.391  16.588  0.00  0.00    +0.000 A 
ATOM     12  C   UNL     1       6.068   3.689  15.766  0.00  0.00    +0.000 A 
ATOM     13  C   UNL     1       6.683   4.299  14.674  0.00  0.00    +0.000 A 
ATOM     14  C   UNL     1       6.418   5.635  14.401  0.00  0.00    +0.000 A 
ATOM     15  C   UNL     1       5.536   6.342  15.221  0.00  0.00    +0.000 A 
ATOM     16  C   UNL     1       4.914   5.735  16.307  0.00  0.00    +0.000 A 
ATOM     17  N   UNL     1       4.063   6.432  17.078  0.00  0.00    +0.000 NA
ATOM     18  C   UNL     1       3.493   5.823  18.151  0.00  0.00    +0.000 A 
ENDROOT
BRANCH   1  20
ATOM     19  N   UNL     1       1.519   8.560  19.774  0.00  0.00    +0.000 N 
ATOM     20  C   UNL     1       2.226   7.939  18.773  0.00  0.00    +0.000 C 
ATOM     21  O   UNL     1       2.583   8.519  17.751  0.00  0.00    +0.000 OA
ATOM     22  H   UNL     1       1.032   7.964  20.443  0.00  0.00    +0.000 HD
BRANCH  19  23
ATOM     23  C   UNL     1       1.112   9.947  19.682  0.00  0.00    +0.000 C 
BRANCH  23  24
ATOM     24  C   UNL     1      -0.116  10.270  20.551  0.00  0.00    +0.000 C 
BRANCH  24  26
ATOM     25  C   UNL     1      -0.620  11.928  22.272  0.00  0.00    +0.000 C 
ATOM     26  N   UNL     1       0.198  10.769  21.912  0.00  0.00    +0.000 NA
ATOM     27  C   UNL     1      -0.012   9.693  22.886  0.00  0.00    +0.000 C 
ENDBRANCH  24  26
ENDBRANCH  23  24
ENDBRANCH  19  23
ENDBRANCH   1  20
BRANCH   7  28
ATOM     28  N   UNL     1       4.024   1.549  19.020  0.00  0.00    +0.000 N 
ATOM     29  H   UNL     1       3.417   0.851  18.606  0.00  0.00    +0.000 HD
ATOM     30  H   UNL     1       4.851   1.143  19.471  0.00  0.00    +0.000 HD
ENDBRANCH   7  28
TORSDOF 5
ENDMDL
MODEL 4
REMARK VINA RESULT:      -7.3      3.515      6.766
REMARK  Name = 
REMARK  7 active torsions:
REMARK  status: ('A' for Active; 'I' for Inactive)
REMARK    1  A    between atoms: C_1  and  N_2
REMARK    2  A    between atoms: N_2  and  C_3
REMARK    3  A    between atoms: N_2  and  C_4
REMARK    4  A    between atoms: C_4  and  C_5
REMARK    5  A    between atoms: C_5  and  N_6
REMARK    6  A    between atoms: C_7  and  C_9
REMARK    7  A    between atoms: C_15  and  N_16
REMARK                            x       y       z     vdW  Elec       q    Type
REMARK                         _______ _______ _______ _____ _____    ______ ____
ROOT
ATOM      1  C   UNL     1       3.953   7.016  17.435  0.00  0.00    +0.000 A 
ATOM      2  C   UNL     1       3.527   8.344  17.311  0.00  0.00    +0.000 A 
ATOM      3  C   UNL     1       2.572   8.872  18.172  0.00  0.00    +0.000 A 
ATOM      4  C   UNL     1       2.149  10.198  17.991  0.00  0.00    +0.000 A 
ATOM      5  C   UNL     1       1.168  10.750  18.805  0.00  0.00    +0.000 A 
ATOM      6  C   UNL     1       0.601   9.978  19.810  0.00  0.00    +0.000 A 
ATOM      7  C   UNL     1       1.035   8.663  20.037  0.00  0.00    +0.000 A 
ATOM      8  C   UNL     1       2.028   8.063  19.198  0.00  0.00    +0.000 A 
ATOM      9  C   UNL     1       2.505   6.728  19.350  0.00  0.00    +0.000 A 
ATOM     10  N   UNL     1       2.049   5.951  20.370  0.00  0.00    +0.000 NA
ATOM     11  C   UNL     1       2.505   4.699  20.509  0.00  0.00    +0.000 A 
ATOM     12  C   UNL     1       2.036   3.904  21.549  0.00  0.00    +0.000 A 
ATOM     13  C   UNL     1       2.498   2.601  21.730  0.00  0.00    +0.000 A 
ATOM     14  C   UNL     1       3.447   2.087  20.856  0.00  0.00    +0.000 A 
ATOM     15  C   UNL     1       3.917   2.880  19.808  0.00  0.00    +0.000 A 
ATOM     16  C   UNL     1       3.454   4.177  19.618  0.00  0.00    +0.000 A 
ATOM     17  N   UNL     1       3.914   4.920  18.598  0.00  0.00    +0.000 NA
ATOM     18  C   UNL     1       3.467   6.195  18.454  0.00  0.00    +0.000 A 
ENDROOT
BRANCH   1  20
ATOM     19  N   UNL     1       5.811   5.572  16.761  0.00  0.00    +0.000 N 
ATOM     20  C   UNL     1       4.920   6.552  16.397  0.00  0.00    +0.000 C 
ATOM     21  O   UNL     1       4.847   6.997  15.255  0.00  0.00    +0.000 OA
ATOM     22  H   UNL     1       5.998   5.455  17.757  0.00  0.00    +0.000 HD
BRANCH  19  23
ATOM     23  C   UNL     1       6.761   5.009  15.824  0.00  0.00    +0.000 C 
BRANCH  23  24
ATOM     24  C   UNL     1       6.178   3.840  15.011  0.00  0.00    +0.000 C 
BRANCH  24  26
ATOM     25  C   UNL     1       5.506   3.619  12.673  0.00  0.00    +0.000 C 
ATOM     26  N   UNL     1       6.628   3.777  13.599  0.00  0.00    +0.000 NA
ATOM     27  C   UNL     1       7.372   4.996  13.270  0.00  0.00    +0.000 C 
ENDBRANCH  24  26
ENDBRANCH  23  24
ENDBRANCH  19  23
ENDBRANCH   1  20
BRANCH   7  28
ATOM     28  N   UNL     1       0.294   7.900  20.970  0.00  0.00    +0.000 N 
ATOM     29  H   UNL     1       0.278   6.907  20.772  0.00  0.00    +0.000 HD
ATOM     30  H   UNL     1      -0.643   8.298  21.099  0.00  0.00    +0.000 HD
ENDBRANCH   7  28
TORSDOF 5
ENDMDL
MODEL 5
REMARK VINA RESULT:      -7.3      3.904      5.103
REMARK  Name = 
REMARK  7 active torsions:
REMARK  status: ('A' for Active; 'I' for Inactive)
REMARK    1  A    between atoms: C_1  and  N_2
REMARK    2  A    between atoms: N_2  and  C_3
REMARK    3  A    between atoms: N_2  and  C_4
REMARK    4  A    between atoms: C_4  and  C_5
REMARK    5  A    between atoms: C_5  and  N_6
REMARK    6  A    between atoms: C_7  and  C_9
REMARK    7  A    between atoms: C_15  and  N_16
REMARK                            x       y       z     vdW  Elec       q    Type
REMARK                         _______ _______ _______ _____ _____    ______ ____
ROOT
ATOM      1  C   UNL     1       2.548   6.401  19.285  0.00  0.00    +0.000 A 
ATOM      2  C   UNL     1       1.965   5.699  20.347  0.00  0.00    +0.000 A 
ATOM      3  C   UNL     1       2.154   4.329  20.487  0.00  0.00    +0.000 A 
ATOM      4  C   UNL     1       1.523   3.659  21.548  0.00  0.00    +0.000 A 
ATOM      5  C   UNL     1       1.655   2.285  21.700  0.00  0.00    +0.000 A 
ATOM      6  C   UNL     1       2.423   1.568  20.792  0.00  0.00    +0.000 A 
ATOM      7  C   UNL     1       3.096   2.220  19.747  0.00  0.00    +0.000 A 
ATOM      8  C   UNL     1       2.957   3.632  19.554  0.00  0.00    +0.000 A 
ATOM      9  C   UNL     1       3.590   4.363  18.507  0.00  0.00    +0.000 A 
ATOM     10  N   UNL     1       4.423   3.729  17.637  0.00  0.00    +0.000 NA
ATOM     11  C   UNL     1       5.017   4.424  16.657  0.00  0.00    +0.000 A 
ATOM     12  C   UNL     1       5.864   3.774  15.765  0.00  0.00    +0.000 A 
ATOM     13  C   UNL     1       6.508   4.469  14.742  0.00  0.00    +0.000 A 
ATOM     14  C   UNL     1       6.303   5.836  14.611  0.00  0.00    +0.000 A 
ATOM     15  C   UNL     1       5.448   6.490  15.501  0.00  0.00    +0.000 A 
ATOM     16  C   UNL     1       4.798   5.801  16.518  0.00  0.00    +0.000 A 
ATOM     17  N   UNL     1       3.974   6.450  17.358  0.00  0.00    +0.000 NA
ATOM     18  C   UNL     1       3.375   5.757  18.363  0.00  0.00    +0.000 A 
ENDROOT
BRANCH   1  20
ATOM     19  N   UNL     1       2.001   8.380  17.952  0.00  0.00    +0.000 N 
ATOM     20  C   UNL     1       2.198   7.850  19.204  0.00  0.00    +0.000 C 
ATOM     21  O   UNL     1       2.030   8.495  20.236  0.00  0.00    +0.000 OA
ATOM     22  H   UNL     1       2.416   7.885  17.163  0.00  0.00    +0.000 HD
BRANCH  19  23
ATOM     23  C   UNL     1       1.608   9.760  17.755  0.00  0.00    +0.000 C 
BRANCH  23  24
ATOM     24  C   UNL     1       0.125  10.012  18.075  0.00  0.00    +0.000 C 
BRANCH  24  26
ATOM     25  C   UNL     1      -0.672  10.744  20.265  0.00  0.00    +0.000 C 
ATOM     26  N   UNL     1      -0.133  11.165  18.972  0.00  0.00    +0.000 NA
ATOM     27  C   UNL     1       1.112  11.912  19.174  0.00  0.00    +0.000 C 
ENDBRANCH  24  26
ENDBRANCH  23  24
ENDBRANCH  19  23
ENDBRANCH   1  20
BRANCH   7  28
ATOM     28  N   UNL     1       3.718   1.397  18.780  0.00  0.00    +0.000 N 
ATOM     29  H   UNL     1       3.946   0.467  19.112  0.00  0.00    +0.000 HD
ATOM     30  H   UNL     1       4.521   1.879  18.359  0.00  0.00    +0.000 HD
ENDBRANCH   7  28
TORSDOF 5
ENDMDL
MODEL 6
REMARK VINA RESULT:      -7.0      9.205     11.045
REMARK  Name = 
REMARK  7 active torsions:
REMARK  status: ('A' for Active; 'I' for Inactive)
REMARK    1  A    between atoms: C_1  and  N_2
REMARK    2  A    between atoms: N_2  and  C_3
REMARK    3  A    between atoms: N_2  and  C_4
REMARK    4  A    between atoms: C_4  and  C_5
REMARK    5  A    between atoms: C_5  and  N_6
REMARK    6  A    between atoms: C_7  and  C_9
REMARK    7  A    between atoms: C_15  and  N_16
REMARK                            x       y       z     vdW  Elec       q    Type
REMARK                         _______ _______ _______ _____ _____    ______ ____
ROOT
ATOM      1  C   UNL     1      -0.876  11.326  21.246  0.00  0.00    +0.000 A 
ATOM      2  C   UNL     1      -1.193  12.086  22.379  0.00  0.00    +0.000 A 
ATOM      3  C   UNL     1      -2.284  12.948  22.380  0.00  0.00    +0.000 A 
ATOM      4  C   UNL     1      -2.546  13.716  23.525  0.00  0.00    +0.000 A 
ATOM      5  C   UNL     1      -3.602  14.617  23.551  0.00  0.00    +0.000 A 
ATOM      6  C   UNL     1      -4.410  14.756  22.431  0.00  0.00    +0.000 A 
ATOM      7  C   UNL     1      -4.193  13.971  21.288  0.00  0.00    +0.000 A 
ATOM      8  C   UNL     1      -3.097  13.052  21.226  0.00  0.00    +0.000 A 
ATOM      9  C   UNL     1      -2.799  12.236  20.096  0.00  0.00    +0.000 A 
ATOM     10  N   UNL     1      -3.604  12.265  18.999  0.00  0.00    +0.000 NA
ATOM     11  C   UNL     1      -3.319  11.492  17.942  0.00  0.00    +0.000 A 
ATOM     12  C   UNL     1      -4.140  11.526  16.820  0.00  0.00    +0.000 A 
ATOM     13  C   UNL     1      -3.880  10.727  15.708  0.00  0.00    +0.000 A 
ATOM     14  C   UNL     1      -2.782   9.877  15.721  0.00  0.00    +0.000 A 
ATOM     15  C   UNL     1      -1.952   9.844  16.843  0.00  0.00    +0.000 A 
ATOM     16  C   UNL     1      -2.202  10.645  17.952  0.00  0.00    +0.000 A 
ATOM     17  N   UNL     1      -1.386  10.603  19.018  0.00  0.00    +0.000 NA
ATOM     18  C   UNL     1      -1.672  11.374  20.100  0.00  0.00    +0.000 A 
ENDROOT
BRANCH   1  20
ATOM     19  N   UNL     1       0.238   9.147  21.199  0.00  0.00    +0.000 N 
ATOM     20  C   UNL     1       0.367  10.506  21.350  0.00  0.00    +0.000 C 
ATOM     21  O   UNL     1       1.453  11.061  21.492  0.00  0.00    +0.000 OA
ATOM     22  H   UNL     1      -0.685   8.743  21.361  0.00  0.00    +0.000 HD
BRANCH  19  23
ATOM     23  C   UNL     1       1.381   8.258  21.229  0.00  0.00    +0.000 C 
BRANCH  23  24
ATOM     24  C   UNL     1       1.855   7.846  19.825  0.00  0.00    +0.000 C 
BRANCH  24  26
ATOM     25  C   UNL     1       1.831   5.506  20.526  0.00  0.00    +0.000 C 
ATOM     26  N   UNL     1       2.539   6.531  19.758  0.00  0.00    +0.000 NA
ATOM     27  C   UNL     1       2.650   6.111  18.358  0.00  0.00    +0.000 C 
ENDBRANCH  24  26
ENDBRANCH  23  24
ENDBRANCH  19  23
ENDBRANCH   1  20
BRANCH   7  28
ATOM     28  N   UNL     1      -4.957  14.291  20.141  0.00  0.00    +0.000 N 
ATOM     29  H   UNL     1      -4.450  14.202  19.268  0.00  0.00    +0.000 HD
ATOM     30  H   UNL     1      -5.406  15.207  20.251  0.00  0.00    +0.000 HD
ENDBRANCH   7  28
TORSDOF 5
ENDMDL
MODEL 7
REMARK VINA RESULT:      -6.9      8.726     11.220
REMARK  Name = 
REMARK  7 active torsions:
REMARK  status: ('A' for Active; 'I' for Inactive)
REMARK    1  A    between atoms: C_1  and  N_2
REMARK    2  A    between atoms: N_2  and  C_3
REMARK    3  A    between atoms: N_2  and  C_4
REMARK    4  A    between atoms: C_4  and  C_5
REMARK    5  A    between atoms: C_5  and  N_6
REMARK    6  A    between atoms: C_7  and  C_9
REMARK    7  A    between atoms: C_15  and  N_16
REMARK                            x       y       z     vdW  Elec       q    Type
REMARK                         _______ _______ _______ _____ _____    ______ ____
ROOT
ATOM      1  C   UNL     1      -0.496  10.301  18.992  0.00  0.00    +0.000 A 
ATOM      2  C   UNL     1      -0.947   9.925  17.721  0.00  0.00    +0.000 A 
ATOM      3  C   UNL     1      -2.143  10.417  17.213  0.00  0.00    +0.000 A 
ATOM      4  C   UNL     1      -2.574   9.987  15.948  0.00  0.00    +0.000 A 
ATOM      5  C   UNL     1      -3.783  10.425  15.421  0.00  0.00    +0.000 A 
ATOM      6  C   UNL     1      -4.571  11.300  16.156  0.00  0.00    +0.000 A 
ATOM      7  C   UNL     1      -4.143  11.776  17.406  0.00  0.00    +0.000 A 
ATOM      8  C   UNL     1      -2.913  11.322  17.982  0.00  0.00    +0.000 A 
ATOM      9  C   UNL     1      -2.421  11.741  19.252  0.00  0.00    +0.000 A 
ATOM     10  N   UNL     1      -3.107  12.662  19.981  0.00  0.00    +0.000 NA
ATOM     11  C   UNL     1      -2.636  13.054  21.174  0.00  0.00    +0.000 A 
ATOM     12  C   UNL     1      -3.341  13.992  21.920  0.00  0.00    +0.000 A 
ATOM     13  C   UNL     1      -2.873  14.431  23.158  0.00  0.00    +0.000 A 
ATOM     14  C   UNL     1      -1.679  13.923  23.655  0.00  0.00    +0.000 A 
ATOM     15  C   UNL     1      -0.972  12.977  22.911  0.00  0.00    +0.000 A 
ATOM     16  C   UNL     1      -1.438  12.530  21.679  0.00  0.00    +0.000 A 
ATOM     17  N   UNL     1      -0.745  11.614  20.984  0.00  0.00    +0.000 NA
ATOM     18  C   UNL     1      -1.208  11.218  19.768  0.00  0.00    +0.000 A 
ENDROOT
BRANCH   1  20
ATOM     19  N   UNL     1       0.653   8.729  20.476  0.00  0.00    +0.000 N 
ATOM     20  C   UNL     1       0.760   9.637  19.451  0.00  0.00    +0.000 C 
ATOM     21  O   UNL     1       1.817   9.862  18.867  0.00  0.00    +0.000 OA
ATOM     22  H   UNL     1      -0.167   8.797  21.079  0.00  0.00    +0.000 HD
BRANCH  19  23
ATOM     23  C   UNL     1       1.795   7.986  20.968  0.00  0.00    +0.000 C 
BRANCH  23  24
ATOM     24  C   UNL     1       1.836   6.538  20.451  0.00  0.00    +0.000 C 
BRANCH  24  26
ATOM     25  C   UNL     1       3.417   4.811  19.755  0.00  0.00    +0.000 C 
ATOM     26  N   UNL     1       3.011   6.209  19.608  0.00  0.00    +0.000 NA
ATOM     27  C   UNL     1       2.696   6.489  18.204  0.00  0.00    +0.000 C 
ENDBRANCH  24  26
ENDBRANCH  23  24
ENDBRANCH  19  23
ENDBRANCH   1  20
BRANCH   7  28
ATOM     28  N   UNL     1      -5.077  12.531  18.153  0.00  0.00    +0.000 N 
ATOM     29  H   UNL     1      -5.458  13.327  17.655  0.00  0.00    +0.000 HD
ATOM     30  H   UNL     1      -4.688  12.781  19.069  0.00  0.00    +0.000 HD
ENDBRANCH   7  28
TORSDOF 5
ENDMDL
MODEL 8
REMARK VINA RESULT:      -6.7     10.783     12.182
REMARK  Name = 
REMARK  7 active torsions:
REMARK  status: ('A' for Active; 'I' for Inactive)
REMARK    1  A    between atoms: C_1  and  N_2
REMARK    2  A    between atoms: N_2  and  C_3
REMARK    3  A    between atoms: N_2  and  C_4
REMARK    4  A    between atoms: C_4  and  C_5
REMARK    5  A    between atoms: C_5  and  N_6
REMARK    6  A    between atoms: C_7  and  C_9
REMARK    7  A    between atoms: C_15  and  N_16
REMARK                            x       y       z     vdW  Elec       q    Type
REMARK                         _______ _______ _______ _____ _____    ______ ____
ROOT
ATOM      1  C   UNL     1      -2.633  12.748  21.881  0.00  0.00    +0.000 A 
ATOM      2  C   UNL     1      -3.472  13.018  22.969  0.00  0.00    +0.000 A 
ATOM      3  C   UNL     1      -4.855  12.994  22.829  0.00  0.00    +0.000 A 
ATOM      4  C   UNL     1      -5.659  13.303  23.937  0.00  0.00    +0.000 A 
ATOM      5  C   UNL     1      -7.043  13.328  23.828  0.00  0.00    +0.000 A 
ATOM      6  C   UNL     1      -7.637  13.041  22.607  0.00  0.00    +0.000 A 
ATOM      7  C   UNL     1      -6.857  12.690  21.494  0.00  0.00    +0.000 A 
ATOM      8  C   UNL     1      -5.427  12.680  21.573  0.00  0.00    +0.000 A 
ATOM      9  C   UNL     1      -4.567  12.355  20.484  0.00  0.00    +0.000 A 
ATOM     10  N   UNL     1      -5.093  11.982  19.285  0.00  0.00    +0.000 NA
ATOM     11  C   UNL     1      -4.277  11.675  18.267  0.00  0.00    +0.000 A 
ATOM     12  C   UNL     1      -4.815  11.299  17.041  0.00  0.00    +0.000 A 
ATOM     13  C   UNL     1      -3.995  10.961  15.964  0.00  0.00    +0.000 A 
ATOM     14  C   UNL     1      -2.616  10.998  16.119  0.00  0.00    +0.000 A 
ATOM     15  C   UNL     1      -2.072  11.380  17.347  0.00  0.00    +0.000 A 
ATOM     16  C   UNL     1      -2.885  11.726  18.422  0.00  0.00    +0.000 A 
ATOM     17  N   UNL     1      -2.340  12.098  19.592  0.00  0.00    +0.000 NA
ATOM     18  C   UNL     1      -3.158  12.401  20.635  0.00  0.00    +0.000 A 
ENDROOT
BRANCH   1  20
ATOM     19  N   UNL     1      -0.469  13.764  21.354  0.00  0.00    +0.000 N 
ATOM     20  C   UNL     1      -1.171  12.889  22.147  0.00  0.00    +0.000 C 
ATOM     21  O   UNL     1      -0.663  12.288  23.090  0.00  0.00    +0.000 OA
ATOM     22  H   UNL     1      -0.873  14.004  20.449  0.00  0.00    +0.000 HD
BRANCH  19  23
ATOM     23  C   UNL     1       0.943  14.019  21.554  0.00  0.00    +0.000 C 
BRANCH  23  24
ATOM     24  C   UNL     1       1.841  13.165  20.643  0.00  0.00    +0.000 C 
BRANCH  24  26
ATOM     25  C   UNL     1       1.913  13.255  18.203  0.00  0.00    +0.000 C 
ATOM     26  N   UNL     1       1.208  12.731  19.373  0.00  0.00    +0.000 NA
ATOM     27  C   UNL     1       1.181  11.266  19.319  0.00  0.00    +0.000 C 
ENDBRANCH  24  26
ENDBRANCH  23  24
ENDBRANCH  19  23
ENDBRANCH   1  20
BRANCH   7  28
ATOM     28  N   UNL     1      -7.531  12.573  20.256  0.00  0.00    +0.000 N 
ATOM     29  H   UNL     1      -7.261  11.761  19.713  0.00  0.00    +0.000 HD
ATOM     30  H   UNL     1      -7.466  13.449  19.725  0.00  0.00    +0.000 HD
ENDBRANCH   7  28
TORSDOF 5
ENDMDL
MODEL 9
REMARK VINA RESULT:      -6.7      8.391     10.130
REMARK  Name = 
REMARK  7 active torsions:
REMARK  status: ('A' for Active; 'I' for Inactive)
REMARK    1  A    between atoms: C_1  and  N_2
REMARK    2  A    between atoms: N_2  and  C_3
REMARK    3  A    between atoms: N_2  and  C_4
REMARK    4  A    between atoms: C_4  and  C_5
REMARK    5  A    between atoms: C_5  and  N_6
REMARK    6  A    between atoms: C_7  and  C_9
REMARK    7  A    between atoms: C_15  and  N_16
REMARK                            x       y       z     vdW  Elec       q    Type
REMARK                         _______ _______ _______ _____ _____    ______ ____
ROOT
ATOM      1  C   UNL     1      -0.141  10.347  20.087  0.00  0.00    +0.000 A 
ATOM      2  C   UNL     1      -0.130  10.950  21.350  0.00  0.00    +0.000 A 
ATOM      3  C   UNL     1      -1.082  11.902  21.696  0.00  0.00    +0.000 A 
ATOM      4  C   UNL     1      -1.014  12.506  22.961  0.00  0.00    +0.000 A 
ATOM      5  C   UNL     1      -1.923  13.489  23.330  0.00  0.00    +0.000 A 
ATOM      6  C   UNL     1      -2.912  13.876  22.436  0.00  0.00    +0.000 A 
ATOM      7  C   UNL     1      -3.025  13.259  21.180  0.00  0.00    +0.000 A 
ATOM      8  C   UNL     1      -2.087  12.260  20.766  0.00  0.00    +0.000 A 
ATOM      9  C   UNL     1      -2.123  11.603  19.501  0.00  0.00    +0.000 A 
ATOM     10  N   UNL     1      -3.119  11.878  18.616  0.00  0.00    +0.000 NA
ATOM     11  C   UNL     1      -3.147  11.253  17.430  0.00  0.00    +0.000 A 
ATOM     12  C   UNL     1      -4.162  11.539  16.524  0.00  0.00    +0.000 A 
ATOM     13  C   UNL     1      -4.229  10.898  15.287  0.00  0.00    +0.000 A 
ATOM     14  C   UNL     1      -3.266   9.955  14.954  0.00  0.00    +0.000 A 
ATOM     15  C   UNL     1      -2.242   9.670  15.859  0.00  0.00    +0.000 A 
ATOM     16  C   UNL     1      -2.166  10.312  17.091  0.00  0.00    +0.000 A 
ATOM     17  N   UNL     1      -1.167  10.027  17.943  0.00  0.00    +0.000 NA
ATOM     18  C   UNL     1      -1.135  10.647  19.153  0.00  0.00    +0.000 A 
ENDROOT
BRANCH   1  20
ATOM     19  N   UNL     1       1.509   9.401  18.545  0.00  0.00    +0.000 N 
ATOM     20  C   UNL     1       0.985   9.405  19.815  0.00  0.00    +0.000 C 
ATOM     21  O   UNL     1       1.447   8.728  20.729  0.00  0.00    +0.000 OA
ATOM     22  H   UNL     1       0.921   9.762  17.794  0.00  0.00    +0.000 HD
BRANCH  19  23
ATOM     23  C   UNL     1       2.635   8.566  18.181  0.00  0.00    +0.000 C 
BRANCH  23  24
ATOM     24  C   UNL     1       2.245   7.093  17.969  0.00  0.00    +0.000 C 
BRANCH  24  26
ATOM     25  C   UNL     1       2.944   4.758  17.812  0.00  0.00    +0.000 C 
ATOM     26  N   UNL     1       3.354   6.123  18.141  0.00  0.00    +0.000 NA
ATOM     27  C   UNL     1       4.482   6.519  17.292  0.00  0.00    +0.000 C 
ENDBRANCH  24  26
ENDBRANCH  23  24
ENDBRANCH  19  23
ENDBRANCH   1  20
BRANCH   7  28
ATOM     28  N   UNL     1      -3.953  13.824  20.275  0.00  0.00    +0.000 N 
ATOM     29  H   UNL     1      -3.777  14.798  20.056  0.00  0.00    +0.000 HD
ATOM     30  H   UNL     1      -4.915  13.653  20.589  0.00  0.00    +0.000 HD
ENDBRANCH   7  28
TORSDOF 5
ENDMDL
