MODEL 1
REMARK VINA RESULT:      -7.2      0.000      0.000
REMARK  Name = 
REMARK  4 active torsions:
REMARK  status: ('A' for Active; 'I' for Inactive)
REMARK    1  A    between atoms: N_1  and  C_2
REMARK    2  A    between atoms: C_2  and  C_4
REMARK    3  A    between atoms: N_6  and  C_7
REMARK    4  A    between atoms: C_7  and  C_8
REMARK                            x       y       z     vdW  Elec       q    Type
REMARK                         _______ _______ _______ _____ _____    ______ ____
ROOT
ATOM      1  C   UNL     1       5.667   5.042  16.573  0.00  0.00    +0.000 A 
ATOM      2  C   UNL     1       4.860   4.089  17.190  0.00  0.00    +0.000 A 
ATOM      3  N   UNL     1       5.224   3.981  18.507  0.00  0.00    +0.000 N 
ATOM      4  C   UNL     1       6.269   4.831  18.762  0.00  0.00    +0.000 A 
ATOM      5  N   UNL     1       6.910   4.931  19.938  0.00  0.00    +0.000 NA
ATOM      6  C   UNL     1       7.849   5.887  19.917  0.00  0.00    +0.000 A 
ATOM      7  N   UNL     1       8.157   6.715  18.905  0.00  0.00    +0.000 NA
ATOM      8  C   UNL     1       7.491   6.586  17.741  0.00  0.00    +0.000 A 
ATOM      9  N   UNL     1       7.814   7.507  16.754  0.00  0.00    +0.000 N 
ATOM     10  C   UNL     1       6.524   5.570  17.608  0.00  0.00    +0.000 A 
ATOM     11  H   UNL     1       8.702   7.946  16.958  0.00  0.00    +0.000 HD
ATOM     12  H   UNL     1       7.707   7.155  15.809  0.00  0.00    +0.000 HD
ENDROOT
BRANCH   1  13
ATOM     13  C   UNL     1       5.583   5.344  15.153  0.00  0.00    +0.000 C 
ATOM     14  S   UNL     1       5.857   4.183  14.000  0.00  0.00    +0.000 S 
BRANCH  13  15
ATOM     15  N   UNL     1       5.178   6.598  14.799  0.00  0.00    +0.000 N 
ATOM     16  H   UNL     1       4.463   6.703  14.091  0.00  0.00    +0.000 HD
ATOM     17  H   UNL     1       5.598   7.432  15.189  0.00  0.00    +0.000 HD
ENDBRANCH  13  15
ENDBRANCH   1  13
BRANCH   3  18
ATOM     18  C   UNL     1       4.675   3.018  19.453  0.00  0.00    +0.000 C 
BRANCH  18  19
ATOM     19  C   UNL     1       3.176   3.123  19.619  0.00  0.00    +0.000 A 
ATOM     20  C   UNL     1       2.614   4.116  20.438  0.00  0.00    +0.000 A 
ATOM     21  C   UNL     1       1.228   4.275  20.517  0.00  0.00    +0.000 A 
ATOM     22  C   UNL     1       0.386   3.442  19.786  0.00  0.00    +0.000 A 
ATOM     23  C   UNL     1       0.927   2.443  18.980  0.00  0.00    +0.000 A 
ATOM     24  C   UNL     1       2.312   2.286  18.897  0.00  0.00    +0.000 A 
ENDBRANCH  18  19
ENDBRANCH   3  18
TORSDOF 4
ENDMDL
MODEL 2
REMARK VINA RESULT:      -7.2      0.100      1.083
REMARK  Name = 
REMARK  4 active torsions:
REMARK  status: ('A' for Active; 'I' for Inactive)
REMARK    1  A    between atoms: N_1  and  C_2
REMARK    2  A    between atoms: C_2  and  C_4
REMARK    3  A    between atoms: N_6  and  C_7
REMARK    4  A    between atoms: C_7  and  C_8
REMARK                            x       y       z     vdW  Elec       q    Type
REMARK                         _______ _______ _______ _____ _____    ______ ____
ROOT
ATOM      1  C   UNL     1       5.682   5.115  16.573  0.00  0.00    +0.000 A 
ATOM      2  C   UNL     1       4.851   4.175  17.176  0.00  0.00    +0.000 A 
ATOM      3  N   UNL     1       5.203   4.050  18.496  0.00  0.00    +0.000 N 
ATOM      4  C   UNL     1       6.264   4.876  18.765  0.00  0.00    +0.000 A 
ATOM      5  N   UNL     1       6.897   4.953  19.947  0.00  0.00    +0.000 NA
ATOM      6  C   UNL     1       7.856   5.889  19.940  0.00  0.00    +0.000 A 
ATOM      7  N   UNL     1       8.189   6.718  18.936  0.00  0.00    +0.000 NA
ATOM      8  C   UNL     1       7.529   6.612  17.766  0.00  0.00    +0.000 A 
ATOM      9  N   UNL     1       7.879   7.533  16.788  0.00  0.00    +0.000 N 
ATOM     10  C   UNL     1       6.542   5.618  17.619  0.00  0.00    +0.000 A 
ATOM     11  H   UNL     1       8.774   7.952  17.002  0.00  0.00    +0.000 HD
ATOM     12  H   UNL     1       7.772   7.191  15.840  0.00  0.00    +0.000 HD
ENDROOT
BRANCH   1  13
ATOM     13  C   UNL     1       5.616   5.430  15.155  0.00  0.00    +0.000 C 
ATOM     14  S   UNL     1       5.906   4.279  13.995  0.00  0.00    +0.000 S 
BRANCH  13  15
ATOM     15  N   UNL     1       5.213   6.686  14.807  0.00  0.00    +0.000 N 
ATOM     16  H   UNL     1       4.943   6.868  13.850  0.00  0.00    +0.000 HD
ATOM     17  H   UNL     1       5.217   7.456  15.463  0.00  0.00    +0.000 HD
ENDBRANCH  13  15
ENDBRANCH   1  13
BRANCH   3  18
ATOM     18  C   UNL     1       4.627   3.091  19.430  0.00  0.00    +0.000 C 
BRANCH  18  19
ATOM     19  C   UNL     1       3.122   3.186  19.540  0.00  0.00    +0.000 A 
ATOM     20  C   UNL     1       2.296   2.284  18.850  0.00  0.00    +0.000 A 
ATOM     21  C   UNL     1       0.909   2.310  19.026  0.00  0.00    +0.000 A 
ATOM     22  C   UNL     1       0.331   3.238  19.886  0.00  0.00    +0.000 A 
ATOM     23  C   UNL     1       1.135   4.149  20.567  0.00  0.00    +0.000 A 
ATOM     24  C   UNL     1       2.521   4.122  20.396  0.00  0.00    +0.000 A 
ENDBRANCH  18  19
ENDBRANCH   3  18
TORSDOF 4
ENDMDL
MODEL 3
REMARK VINA RESULT:      -7.0      3.997      5.338
REMARK  Name = 
REMARK  4 active torsions:
REMARK  status: ('A' for Active; 'I' for Inactive)
REMARK    1  A    between atoms: N_1  and  C_2
REMARK    2  A    between atoms: C_2  and  C_4
REMARK    3  A    between atoms: N_6  and  C_7
REMARK    4  A    between atoms: C_7  and  C_8
REMARK                            x       y       z     vdW  Elec       q    Type
REMARK                         _______ _______ _______ _____ _____    ______ ____
ROOT
ATOM      1  C   UNL     1       2.366   4.252  19.036  0.00  0.00    +0.000 A 
ATOM      2  C   UNL     1       1.818   5.415  18.500  0.00  0.00    +0.000 A 
ATOM      3  N   UNL     1       2.833   6.266  18.148  0.00  0.00    +0.000 N 
ATOM      4  C   UNL     1       4.038   5.693  18.463  0.00  0.00    +0.000 A 
ATOM      5  N   UNL     1       5.235   6.283  18.308  0.00  0.00    +0.000 NA
ATOM      6  C   UNL     1       6.242   5.465  18.640  0.00  0.00    +0.000 A 
ATOM      7  N   UNL     1       6.165   4.188  19.051  0.00  0.00    +0.000 NA
ATOM      8  C   UNL     1       4.947   3.630  19.192  0.00  0.00    +0.000 A 
ATOM      9  N   UNL     1       4.934   2.292  19.564  0.00  0.00    +0.000 N 
ATOM     10  C   UNL     1       3.799   4.406  18.942  0.00  0.00    +0.000 A 
ATOM     11  H   UNL     1       5.829   2.026  19.953  0.00  0.00    +0.000 HD
ATOM     12  H   UNL     1       4.123   2.022  20.108  0.00  0.00    +0.000 HD
ENDROOT
BRANCH   1  13
ATOM     13  C   UNL     1       1.553   3.173  19.573  0.00  0.00    +0.000 C 
ATOM     14  S   UNL     1       1.498   2.853  21.200  0.00  0.00    +0.000 S 
BRANCH  13  15
ATOM     15  N   UNL     1       0.758   2.489  18.700  0.00  0.00    +0.000 N 
ATOM     16  H   UNL     1       0.643   2.842  17.759  0.00  0.00    +0.000 HD
ATOM     17  H   UNL     1       0.243   1.662  18.973  0.00  0.00    +0.000 HD
ENDBRANCH  13  15
ENDBRANCH   1  13
BRANCH   3  18
ATOM     18  C   UNL     1       2.655   7.621  17.644  0.00  0.00    +0.000 C 
BRANCH  18  19
ATOM     19  C   UNL     1       1.825   8.499  18.553  0.00  0.00    +0.000 A 
ATOM     20  C   UNL     1       1.014   9.515  18.024  0.00  0.00    +0.000 A 
ATOM     21  C   UNL     1       0.175  10.263  18.854  0.00  0.00    +0.000 A 
ATOM     22  C   UNL     1       0.139  10.011  20.222  0.00  0.00    +0.000 A 
ATOM     23  C   UNL     1       0.948   9.016  20.766  0.00  0.00    +0.000 A 
ATOM     24  C   UNL     1       1.784   8.265  19.937  0.00  0.00    +0.000 A 
ENDBRANCH  18  19
ENDBRANCH   3  18
TORSDOF 4
ENDMDL
MODEL 4
REMARK VINA RESULT:      -7.0      4.039      5.346
REMARK  Name = 
REMARK  4 active torsions:
REMARK  status: ('A' for Active; 'I' for Inactive)
REMARK    1  A    between atoms: N_1  and  C_2
REMARK    2  A    between atoms: C_2  and  C_4
REMARK    3  A    between atoms: N_6  and  C_7
REMARK    4  A    between atoms: C_7  and  C_8
REMARK                            x       y       z     vdW  Elec       q    Type
REMARK                         _______ _______ _______ _____ _____    ______ ____
ROOT
ATOM      1  C   UNL     1       2.374   4.305  19.059  0.00  0.00    +0.000 A 
ATOM      2  C   UNL     1       1.837   5.484  18.546  0.00  0.00    +0.000 A 
ATOM      3  N   UNL     1       2.861   6.329  18.203  0.00  0.00    +0.000 N 
ATOM      4  C   UNL     1       4.061   5.735  18.501  0.00  0.00    +0.000 A 
ATOM      5  N   UNL     1       5.263   6.313  18.350  0.00  0.00    +0.000 NA
ATOM      6  C   UNL     1       6.263   5.478  18.661  0.00  0.00    +0.000 A 
ATOM      7  N   UNL     1       6.172   4.195  19.051  0.00  0.00    +0.000 NA
ATOM      8  C   UNL     1       4.948   3.649  19.190  0.00  0.00    +0.000 A 
ATOM      9  N   UNL     1       4.921   2.306  19.539  0.00  0.00    +0.000 N 
ATOM     10  C   UNL     1       3.808   4.444  18.960  0.00  0.00    +0.000 A 
ATOM     11  H   UNL     1       5.815   2.022  19.918  0.00  0.00    +0.000 HD
ATOM     12  H   UNL     1       4.110   2.036  20.083  0.00  0.00    +0.000 HD
ENDROOT
BRANCH   1  13
ATOM     13  C   UNL     1       1.551   3.227  19.582  0.00  0.00    +0.000 C 
ATOM     14  S   UNL     1       1.481   2.897  21.207  0.00  0.00    +0.000 S 
BRANCH  13  15
ATOM     15  N   UNL     1       0.760   2.553  18.698  0.00  0.00    +0.000 N 
ATOM     16  H   UNL     1       0.893   2.702  17.707  0.00  0.00    +0.000 HD
ATOM     17  H   UNL     1       0.013   1.941  18.999  0.00  0.00    +0.000 HD
ENDBRANCH  13  15
ENDBRANCH   1  13
BRANCH   3  18
ATOM     18  C   UNL     1       2.696   7.694  17.723  0.00  0.00    +0.000 C 
BRANCH  18  19
ATOM     19  C   UNL     1       1.739   8.515  18.557  0.00  0.00    +0.000 A 
ATOM     20  C   UNL     1       1.725   8.397  19.956  0.00  0.00    +0.000 A 
ATOM     21  C   UNL     1       0.908   9.224  20.733  0.00  0.00    +0.000 A 
ATOM     22  C   UNL     1       0.092  10.172  20.124  0.00  0.00    +0.000 A 
ATOM     23  C   UNL     1       0.083  10.292  18.737  0.00  0.00    +0.000 A 
ATOM     24  C   UNL     1       0.901   9.471  17.959  0.00  0.00    +0.000 A 
ENDBRANCH  18  19
ENDBRANCH   3  18
TORSDOF 4
ENDMDL
MODEL 5
REMARK VINA RESULT:      -7.0      3.373      5.156
REMARK  Name = 
REMARK  4 active torsions:
REMARK  status: ('A' for Active; 'I' for Inactive)
REMARK    1  A    between atoms: N_1  and  C_2
REMARK    2  A    between atoms: C_2  and  C_4
REMARK    3  A    between atoms: N_6  and  C_7
REMARK    4  A    between atoms: C_7  and  C_8
REMARK                            x       y       z     vdW  Elec       q    Type
REMARK                         _______ _______ _______ _____ _____    ______ ____
ROOT
ATOM      1  C   UNL     1       5.168   5.224  18.490  0.00  0.00    +0.000 A 
ATOM      2  C   UNL     1       4.578   6.439  18.151  0.00  0.00    +0.000 A 
ATOM      3  N   UNL     1       3.215   6.299  18.184  0.00  0.00    +0.000 N 
ATOM      4  C   UNL     1       2.898   5.007  18.519  0.00  0.00    +0.000 A 
ATOM      5  N   UNL     1       1.651   4.513  18.581  0.00  0.00    +0.000 NA
ATOM      6  C   UNL     1       1.638   3.239  18.994  0.00  0.00    +0.000 A 
ATOM      7  N   UNL     1       2.686   2.481  19.358  0.00  0.00    +0.000 NA
ATOM      8  C   UNL     1       3.922   3.012  19.285  0.00  0.00    +0.000 A 
ATOM      9  N   UNL     1       4.957   2.201  19.729  0.00  0.00    +0.000 N 
ATOM     10  C   UNL     1       4.080   4.325  18.798  0.00  0.00    +0.000 A 
ATOM     11  H   UNL     1       4.658   1.235  19.765  0.00  0.00    +0.000 HD
ATOM     12  H   UNL     1       5.842   2.367  19.263  0.00  0.00    +0.000 HD
ENDROOT
BRANCH   1  13
ATOM     13  C   UNL     1       6.607   5.017  18.480  0.00  0.00    +0.000 C 
ATOM     14  S   UNL     1       7.419   4.628  17.086  0.00  0.00    +0.000 S 
BRANCH  13  15
ATOM     15  N   UNL     1       7.284   5.246  19.642  0.00  0.00    +0.000 N 
ATOM     16  H   UNL     1       7.267   4.544  20.369  0.00  0.00    +0.000 HD
ATOM     17  H   UNL     1       7.769   6.116  19.821  0.00  0.00    +0.000 HD
ENDBRANCH  13  15
ENDBRANCH   1  13
BRANCH   3  18
ATOM     18  C   UNL     1       2.256   7.324  17.794  0.00  0.00    +0.000 C 
BRANCH  18  19
ATOM     19  C   UNL     1       1.800   8.192  18.945  0.00  0.00    +0.000 A 
ATOM     20  C   UNL     1       1.279   9.475  18.711  0.00  0.00    +0.000 A 
ATOM     21  C   UNL     1       0.769  10.240  19.764  0.00  0.00    +0.000 A 
ATOM     22  C   UNL     1       0.778   9.737  21.062  0.00  0.00    +0.000 A 
ATOM     23  C   UNL     1       1.305   8.473  21.313  0.00  0.00    +0.000 A 
ATOM     24  C   UNL     1       1.811   7.705  20.262  0.00  0.00    +0.000 A 
ENDBRANCH  18  19
ENDBRANCH   3  18
TORSDOF 4
ENDMDL
MODEL 6
REMARK VINA RESULT:      -6.9      3.438      5.453
REMARK  Name = 
REMARK  4 active torsions:
REMARK  status: ('A' for Active; 'I' for Inactive)
REMARK    1  A    between atoms: N_1  and  C_2
REMARK    2  A    between atoms: C_2  and  C_4
REMARK    3  A    between atoms: N_6  and  C_7
REMARK    4  A    between atoms: C_7  and  C_8
REMARK                            x       y       z     vdW  Elec       q    Type
REMARK                         _______ _______ _______ _____ _____    ______ ____
ROOT
ATOM      1  C   UNL     1       4.394   4.504  18.691  0.00  0.00    +0.000 A 
ATOM      2  C   UNL     1       4.059   5.655  19.399  0.00  0.00    +0.000 A 
ATOM      3  N   UNL     1       2.798   5.509  19.918  0.00  0.00    +0.000 N 
ATOM      4  C   UNL     1       2.290   4.291  19.545  0.00  0.00    +0.000 A 
ATOM      5  N   UNL     1       1.053   3.854  19.831  0.00  0.00    +0.000 NA
ATOM      6  C   UNL     1       0.852   2.603  19.395  0.00  0.00    +0.000 A 
ATOM      7  N   UNL     1       1.728   1.797  18.773  0.00  0.00    +0.000 NA
ATOM      8  C   UNL     1       2.961   2.271  18.505  0.00  0.00    +0.000 A 
ATOM      9  N   UNL     1       3.839   1.373  17.914  0.00  0.00    +0.000 N 
ATOM     10  C   UNL     1       3.280   3.599  18.850  0.00  0.00    +0.000 A 
ATOM     11  H   UNL     1       3.331   0.596  17.511  0.00  0.00    +0.000 HD
ATOM     12  H   UNL     1       4.528   1.805  17.309  0.00  0.00    +0.000 HD
ENDROOT
BRANCH   1  13
ATOM     13  C   UNL     1       5.642   4.366  17.957  0.00  0.00    +0.000 C 
ATOM     14  S   UNL     1       5.677   4.344  16.299  0.00  0.00    +0.000 S 
BRANCH  13  15
ATOM     15  N   UNL     1       6.799   4.350  18.680  0.00  0.00    +0.000 N 
ATOM     16  H   UNL     1       7.392   3.532  18.642  0.00  0.00    +0.000 HD
ATOM     17  H   UNL     1       7.065   5.112  19.291  0.00  0.00    +0.000 HD
ENDBRANCH  13  15
ENDBRANCH   1  13
BRANCH   3  18
ATOM     18  C   UNL     1       2.062   6.541  20.638  0.00  0.00    +0.000 C 
BRANCH  18  19
ATOM     19  C   UNL     1       1.846   7.801  19.831  0.00  0.00    +0.000 A 
ATOM     20  C   UNL     1       2.274   7.879  18.496  0.00  0.00    +0.000 A 
ATOM     21  C   UNL     1       1.989   9.007  17.721  0.00  0.00    +0.000 A 
ATOM     22  C   UNL     1       1.281  10.071  18.270  0.00  0.00    +0.000 A 
ATOM     23  C   UNL     1       0.862  10.017  19.597  0.00  0.00    +0.000 A 
ATOM     24  C   UNL     1       1.142   8.889  20.371  0.00  0.00    +0.000 A 
ENDBRANCH  18  19
ENDBRANCH   3  18
TORSDOF 4
ENDMDL
MODEL 7
REMARK VINA RESULT:      -6.9      3.462      5.396
REMARK  Name = 
REMARK  4 active torsions:
REMARK  status: ('A' for Active; 'I' for Inactive)
REMARK    1  A    between atoms: N_1  and  C_2
REMARK    2  A    between atoms: C_2  and  C_4
REMARK    3  A    between atoms: N_6  and  C_7
REMARK    4  A    between atoms: C_7  and  C_8
REMARK                            x       y       z     vdW  Elec       q    Type
REMARK                         _______ _______ _______ _____ _____    ______ ____
ROOT
ATOM      1  C   UNL     1       4.370   4.500  18.717  0.00  0.00    +0.000 A 
ATOM      2  C   UNL     1       4.085   5.668  19.420  0.00  0.00    +0.000 A 
ATOM      3  N   UNL     1       2.834   5.564  19.972  0.00  0.00    +0.000 N 
ATOM      4  C   UNL     1       2.284   4.356  19.628  0.00  0.00    +0.000 A 
ATOM      5  N   UNL     1       1.043   3.957  19.951  0.00  0.00    +0.000 NA
ATOM      6  C   UNL     1       0.796   2.707  19.536  0.00  0.00    +0.000 A 
ATOM      7  N   UNL     1       1.633   1.870  18.901  0.00  0.00    +0.000 NA
ATOM      8  C   UNL     1       2.871   2.306  18.596  0.00  0.00    +0.000 A 
ATOM      9  N   UNL     1       3.708   1.377  17.993  0.00  0.00    +0.000 N 
ATOM     10  C   UNL     1       3.235   3.628  18.916  0.00  0.00    +0.000 A 
ATOM     11  H   UNL     1       3.169   0.610  17.613  0.00  0.00    +0.000 HD
ATOM     12  H   UNL     1       4.393   1.783  17.366  0.00  0.00    +0.000 HD
ENDROOT
BRANCH   1  13
ATOM     13  C   UNL     1       5.594   4.319  17.954  0.00  0.00    +0.000 C 
ATOM     14  S   UNL     1       5.583   4.260  16.295  0.00  0.00    +0.000 S 
BRANCH  13  15
ATOM     15  N   UNL     1       6.769   4.293  18.645  0.00  0.00    +0.000 N 
ATOM     16  H   UNL     1       7.061   3.432  19.089  0.00  0.00    +0.000 HD
ATOM     17  H   UNL     1       7.341   5.118  18.769  0.00  0.00    +0.000 HD
ENDBRANCH  13  15
ENDBRANCH   1  13
BRANCH   3  18
ATOM     18  C   UNL     1       2.147   6.624  20.698  0.00  0.00    +0.000 C 
BRANCH  18  19
ATOM     19  C   UNL     1       1.795   7.814  19.836  0.00  0.00    +0.000 A 
ATOM     20  C   UNL     1       1.118   8.918  20.380  0.00  0.00    +0.000 A 
ATOM     21  C   UNL     1       0.878  10.058  19.609  0.00  0.00    +0.000 A 
ATOM     22  C   UNL     1       1.302  10.109  18.285  0.00  0.00    +0.000 A 
ATOM     23  C   UNL     1       1.961   9.017  17.725  0.00  0.00    +0.000 A 
ATOM     24  C   UNL     1       2.207   7.879  18.495  0.00  0.00    +0.000 A 
ENDBRANCH  18  19
ENDBRANCH   3  18
TORSDOF 4
ENDMDL
MODEL 8
REMARK VINA RESULT:      -6.8      2.806      5.753
REMARK  Name = 
REMARK  4 active torsions:
REMARK  status: ('A' for Active; 'I' for Inactive)
REMARK    1  A    between atoms: N_1  and  C_2
REMARK    2  A    between atoms: C_2  and  C_4
REMARK    3  A    between atoms: N_6  and  C_7
REMARK    4  A    between atoms: C_7  and  C_8
REMARK                            x       y       z     vdW  Elec       q    Type
REMARK                         _______ _______ _______ _____ _____    ______ ____
ROOT
ATOM      1  C   UNL     1       3.433   6.130  19.046  0.00  0.00    +0.000 A 
ATOM      2  C   UNL     1       4.608   6.176  18.300  0.00  0.00    +0.000 A 
ATOM      3  N   UNL     1       5.248   4.968  18.399  0.00  0.00    +0.000 N 
ATOM      4  C   UNL     1       4.525   4.135  19.214  0.00  0.00    +0.000 A 
ATOM      5  N   UNL     1       4.900   2.897  19.575  0.00  0.00    +0.000 NA
ATOM      6  C   UNL     1       3.970   2.292  20.326  0.00  0.00    +0.000 A 
ATOM      7  N   UNL     1       2.770   2.770  20.693  0.00  0.00    +0.000 NA
ATOM      8  C   UNL     1       2.428   4.016  20.310  0.00  0.00    +0.000 A 
ATOM      9  N   UNL     1       1.153   4.432  20.670  0.00  0.00    +0.000 N 
ATOM     10  C   UNL     1       3.348   4.788  19.573  0.00  0.00    +0.000 A 
ATOM     11  H   UNL     1       0.789   3.849  21.412  0.00  0.00    +0.000 HD
ATOM     12  H   UNL     1       1.071   5.431  20.819  0.00  0.00    +0.000 HD
ENDROOT
BRANCH   1  13
ATOM     13  C   UNL     1       2.556   7.278  19.206  0.00  0.00    +0.000 C 
ATOM     14  S   UNL     1       2.090   8.203  17.909  0.00  0.00    +0.000 S 
BRANCH  13  15
ATOM     15  N   UNL     1       2.049   7.515  20.450  0.00  0.00    +0.000 N 
ATOM     16  H   UNL     1       1.279   8.162  20.553  0.00  0.00    +0.000 HD
ATOM     17  H   UNL     1       2.446   7.099  21.283  0.00  0.00    +0.000 HD
ENDBRANCH  13  15
ENDBRANCH   1  13
BRANCH   3  18
ATOM     18  C   UNL     1       6.557   4.663  17.836  0.00  0.00    +0.000 C 
BRANCH  18  19
ATOM     19  C   UNL     1       6.541   4.480  16.336  0.00  0.00    +0.000 A 
ATOM     20  C   UNL     1       5.561   3.683  15.723  0.00  0.00    +0.000 A 
ATOM     21  C   UNL     1       5.487   3.590  14.330  0.00  0.00    +0.000 A 
ATOM     22  C   UNL     1       6.391   4.286  13.534  0.00  0.00    +0.000 A 
ATOM     23  C   UNL     1       7.378   5.069  14.126  0.00  0.00    +0.000 A 
ATOM     24  C   UNL     1       7.451   5.167  15.517  0.00  0.00    +0.000 A 
ENDBRANCH  18  19
ENDBRANCH   3  18
TORSDOF 4
ENDMDL
MODEL 9
REMARK VINA RESULT:      -6.8      3.397      5.182
REMARK  Name = 
REMARK  4 active torsions:
REMARK  status: ('A' for Active; 'I' for Inactive)
REMARK    1  A    between atoms: N_1  and  C_2
REMARK    2  A    between atoms: C_2  and  C_4
REMARK    3  A    between atoms: N_6  and  C_7
REMARK    4  A    between atoms: C_7  and  C_8
REMARK                            x       y       z     vdW  Elec       q    Type
REMARK                         _______ _______ _______ _____ _____    ______ ____
ROOT
ATOM      1  C   UNL     1       5.198   5.305  18.455  0.00  0.00    +0.000 A 
ATOM      2  C   UNL     1       4.643   6.545  18.149  0.00  0.00    +0.000 A 
ATOM      3  N   UNL     1       3.278   6.423  18.095  0.00  0.00    +0.000 N 
ATOM      4  C   UNL     1       2.928   5.120  18.340  0.00  0.00    +0.000 A 
ATOM      5  N   UNL     1       1.674   4.641  18.301  0.00  0.00    +0.000 NA
ATOM      6  C   UNL     1       1.622   3.347  18.643  0.00  0.00    +0.000 A 
ATOM      7  N   UNL     1       2.638   2.556  19.026  0.00  0.00    +0.000 NA
ATOM      8  C   UNL     1       3.882   3.072  19.054  0.00  0.00    +0.000 A 
ATOM      9  N   UNL     1       4.880   2.223  19.513  0.00  0.00    +0.000 N 
ATOM     10  C   UNL     1       4.084   4.407  18.650  0.00  0.00    +0.000 A 
ATOM     11  H   UNL     1       4.568   1.261  19.478  0.00  0.00    +0.000 HD
ATOM     12  H   UNL     1       5.792   2.402  19.109  0.00  0.00    +0.000 HD
ENDROOT
BRANCH   1  13
ATOM     13  C   UNL     1       6.632   5.078  18.518  0.00  0.00    +0.000 C 
ATOM     14  S   UNL     1       7.499   4.622  17.179  0.00  0.00    +0.000 S 
BRANCH  13  15
ATOM     15  N   UNL     1       7.261   5.345  19.699  0.00  0.00    +0.000 N 
ATOM     16  H   UNL     1       8.263   5.220  19.763  0.00  0.00    +0.000 HD
ATOM     17  H   UNL     1       6.755   5.624  20.529  0.00  0.00    +0.000 HD
ENDBRANCH  13  15
ENDBRANCH   1  13
BRANCH   3  18
ATOM     18  C   UNL     1       2.356   7.482  17.706  0.00  0.00    +0.000 C 
BRANCH  18  19
ATOM     19  C   UNL     1       1.775   8.236  18.880  0.00  0.00    +0.000 A 
ATOM     20  C   UNL     1       1.842   7.704  20.178  0.00  0.00    +0.000 A 
ATOM     21  C   UNL     1       1.392   8.443  21.276  0.00  0.00    +0.000 A 
ATOM     22  C   UNL     1       0.864   9.717  21.092  0.00  0.00    +0.000 A 
ATOM     23  C   UNL     1       0.776  10.254  19.810  0.00  0.00    +0.000 A 
ATOM     24  C   UNL     1       1.230   9.519  18.712  0.00  0.00    +0.000 A 
ENDBRANCH  18  19
ENDBRANCH   3  18
TORSDOF 4
ENDMDL
