MODEL 1
REMARK VINA RESULT:      -8.6      0.000      0.000
REMARK  Name = 
REMARK  8 active torsions:
REMARK  status: ('A' for Active; 'I' for Inactive)
REMARK    1  A    between atoms: C_1  and  N_2
REMARK    2  A    between atoms: C_5  and  O_6
REMARK    3  A    between atoms: O_6  and  C_7
REMARK    4  A    between atoms: C_9  and  O_10
REMARK    5  A    between atoms: O_10  and  C_11
REMARK    6  A    between atoms: C_14  and  S_15
REMARK    7  A    between atoms: S_15  and  C_16
REMARK    8  A    between atoms: C_22  and  C_23
REMARK                            x       y       z     vdW  Elec       q    Type
REMARK                         _______ _______ _______ _____ _____    ______ ____
ROOT
ATOM      1  C   UNL     1       2.227   4.441  17.688  0.00  0.00    +0.000 A 
ATOM      2  C   UNL     1       2.041   5.421  18.682  0.00  0.00    +0.000 A 
ATOM      3  C   UNL     1       2.962   6.471  18.831  0.00  0.00    +0.000 A 
ATOM      4  C   UNL     1       4.111   6.496  18.036  0.00  0.00    +0.000 A 
ATOM      5  C   UNL     1       4.267   5.566  17.011  0.00  0.00    +0.000 A 
ATOM      6  C   UNL     1       3.318   4.551  16.826  0.00  0.00    +0.000 A 
ENDROOT
BRANCH   5   7
ATOM      7  C   UNL     1       5.379   5.699  16.031  0.00  0.00    +0.000 C 
ATOM      8  O   UNL     1       6.060   6.717  16.097  0.00  0.00    +0.000 OA
ATOM      9  N   UNL     1       5.492   4.676  15.114  0.00  0.00    +0.000 N 
ATOM     10  C   UNL     1       6.449   4.719  14.140  0.00  0.00    +0.000 A 
ATOM     11  N   UNL     1       7.523   5.461  14.074  0.00  0.00    +0.000 NA
ATOM     12  C   UNL     1       8.146   5.259  12.864  0.00  0.00    +0.000 A 
ATOM     13  C   UNL     1       7.526   4.363  12.020  0.00  0.00    +0.000 A 
ATOM     14  S   UNL     1       6.162   3.682  12.812  0.00  0.00    +0.000 S 
ATOM     15  H   UNL     1       4.775   3.974  15.011  0.00  0.00    +0.000 HD
ENDBRANCH   5   7
BRANCH   1  16
ATOM     16  O   UNL     1       1.259   3.470  17.566  0.00  0.00    +0.000 OA
BRANCH  16  21
ATOM     17  C   UNL     1       1.815   2.803  22.219  0.00  0.00    +0.000 C 
ATOM     18  N   UNL     1       1.748   2.200  20.892  0.00  0.00    +0.000 NA
ATOM     19  C   UNL     1       3.039   2.178  20.211  0.00  0.00    +0.000 C 
ATOM     20  C   UNL     1       2.654   1.881  18.763  0.00  0.00    +0.000 C 
ATOM     21  C   UNL     1       1.230   2.444  18.582  0.00  0.00    +0.000 C 
ATOM     22  C   UNL     1       0.886   2.971  19.986  0.00  0.00    +0.000 C 
ENDBRANCH  16  21
ENDBRANCH   1  16
BRANCH   3  23
ATOM     23  O   UNL     1       2.711   7.466  19.765  0.00  0.00    +0.000 OA
BRANCH  23  24
ATOM     24  C   UNL     1       1.772   8.445  19.455  0.00  0.00    +0.000 A 
ATOM     25  C   UNL     1       1.589   8.932  18.153  0.00  0.00    +0.000 A 
ATOM     26  C   UNL     1       0.673   9.942  17.883  0.00  0.00    +0.000 A 
ATOM     27  C   UNL     1      -0.148  10.407  18.906  0.00  0.00    +0.000 A 
ATOM     28  C   UNL     1      -0.004   9.926  20.213  0.00  0.00    +0.000 A 
ATOM     29  C   UNL     1       0.961   8.940  20.485  0.00  0.00    +0.000 A 
BRANCH  27  30
ATOM     30  S   UNL     1      -1.398  11.608  18.512  0.00  0.00    +0.000 S 
ATOM     31  C   UNL     1      -0.473  13.106  18.311  0.00  0.00    +0.000 C 
ATOM     32  O   UNL     1      -1.964  11.235  17.226  0.00  0.00    +0.000 OA
ATOM     33  O   UNL     1      -2.248  11.752  19.690  0.00  0.00    +0.000 OA
ENDBRANCH  27  30
ENDBRANCH  23  24
ENDBRANCH   3  23
TORSDOF 6
ENDMDL
MODEL 2
REMARK VINA RESULT:      -8.1      2.242      2.858
REMARK  Name = 
REMARK  8 active torsions:
REMARK  status: ('A' for Active; 'I' for Inactive)
REMARK    1  A    between atoms: C_1  and  N_2
REMARK    2  A    between atoms: C_5  and  O_6
REMARK    3  A    between atoms: O_6  and  C_7
REMARK    4  A    between atoms: C_9  and  O_10
REMARK    5  A    between atoms: O_10  and  C_11
REMARK    6  A    between atoms: C_14  and  S_15
REMARK    7  A    between atoms: S_15  and  C_16
REMARK    8  A    between atoms: C_22  and  C_23
REMARK                            x       y       z     vdW  Elec       q    Type
REMARK                         _______ _______ _______ _____ _____    ______ ____
ROOT
ATOM      1  C   UNL     1       3.035   6.056  19.571  0.00  0.00    +0.000 A 
ATOM      2  C   UNL     1       2.114   7.098  19.344  0.00  0.00    +0.000 A 
ATOM      3  C   UNL     1       2.263   7.955  18.241  0.00  0.00    +0.000 A 
ATOM      4  C   UNL     1       3.379   7.819  17.411  0.00  0.00    +0.000 A 
ATOM      5  C   UNL     1       4.255   6.752  17.593  0.00  0.00    +0.000 A 
ATOM      6  C   UNL     1       4.074   5.863  18.662  0.00  0.00    +0.000 A 
ENDROOT
BRANCH   5   7
ATOM      7  C   UNL     1       5.330   6.477  16.602  0.00  0.00    +0.000 C 
ATOM      8  O   UNL     1       6.242   7.294  16.528  0.00  0.00    +0.000 OA
ATOM      9  N   UNL     1       5.156   5.347  15.831  0.00  0.00    +0.000 N 
ATOM     10  C   UNL     1       6.058   5.025  14.857  0.00  0.00    +0.000 A 
ATOM     11  N   UNL     1       7.278   5.462  14.688  0.00  0.00    +0.000 NA
ATOM     12  C   UNL     1       7.788   4.957  13.514  0.00  0.00    +0.000 A 
ATOM     13  C   UNL     1       6.938   4.141  12.801  0.00  0.00    +0.000 A 
ATOM     14  S   UNL     1       5.477   3.929  13.682  0.00  0.00    +0.000 S 
ATOM     15  H   UNL     1       4.285   4.837  15.825  0.00  0.00    +0.000 HD
ENDBRANCH   5   7
BRANCH   1  16
ATOM     16  O   UNL     1       2.799   5.224  20.642  0.00  0.00    +0.000 OA
BRANCH  16  21
ATOM     17  C   UNL     1       3.671   1.200  18.308  0.00  0.00    +0.000 C 
ATOM     18  N   UNL     1       2.683   2.048  18.965  0.00  0.00    +0.000 NA
ATOM     19  C   UNL     1       2.105   3.046  18.070  0.00  0.00    +0.000 C 
ATOM     20  C   UNL     1       1.430   4.018  19.037  0.00  0.00    +0.000 C 
ATOM     21  C   UNL     1       2.230   3.929  20.352  0.00  0.00    +0.000 C 
ATOM     22  C   UNL     1       3.280   2.846  20.044  0.00  0.00    +0.000 C 
ENDBRANCH  16  21
ENDBRANCH   1  16
BRANCH   3  23
ATOM     23  O   UNL     1       1.297   8.921  17.998  0.00  0.00    +0.000 OA
BRANCH  23  24
ATOM     24  C   UNL     1       1.389  10.135  18.671  0.00  0.00    +0.000 A 
ATOM     25  C   UNL     1       0.843  10.335  19.947  0.00  0.00    +0.000 A 
ATOM     26  C   UNL     1       0.913  11.573  20.576  0.00  0.00    +0.000 A 
ATOM     27  C   UNL     1       1.625  12.604  19.970  0.00  0.00    +0.000 A 
ATOM     28  C   UNL     1       2.200  12.429  18.706  0.00  0.00    +0.000 A 
ATOM     29  C   UNL     1       2.080  11.188  18.056  0.00  0.00    +0.000 A 
BRANCH  27  30
ATOM     30  S   UNL     1       1.809  14.138  20.848  0.00  0.00    +0.000 S 
ATOM     31  C   UNL     1       3.544  14.195  21.207  0.00  0.00    +0.000 C 
ATOM     32  O   UNL     1       1.493  15.209  19.916  0.00  0.00    +0.000 OA
ATOM     33  O   UNL     1       1.087  14.007  22.109  0.00  0.00    +0.000 OA
ENDBRANCH  27  30
ENDBRANCH  23  24
ENDBRANCH   3  23
TORSDOF 6
ENDMDL
MODEL 3
REMARK VINA RESULT:      -8.1      4.886     10.853
REMARK  Name = 
REMARK  8 active torsions:
REMARK  status: ('A' for Active; 'I' for Inactive)
REMARK    1  A    between atoms: C_1  and  N_2
REMARK    2  A    between atoms: C_5  and  O_6
REMARK    3  A    between atoms: O_6  and  C_7
REMARK    4  A    between atoms: C_9  and  O_10
REMARK    5  A    between atoms: O_10  and  C_11
REMARK    6  A    between atoms: C_14  and  S_15
REMARK    7  A    between atoms: S_15  and  C_16
REMARK    8  A    between atoms: C_22  and  C_23
REMARK                            x       y       z     vdW  Elec       q    Type
REMARK                         _______ _______ _______ _____ _____    ______ ____
ROOT
ATOM      1  C   UNL     1       2.080  12.057  18.721  0.00  0.00    +0.000 A 
ATOM      2  C   UNL     1       2.102  10.787  18.112  0.00  0.00    +0.000 A 
ATOM      3  C   UNL     1       1.334   9.732  18.634  0.00  0.00    +0.000 A 
ATOM      4  C   UNL     1       0.605   9.929  19.809  0.00  0.00    +0.000 A 
ATOM      5  C   UNL     1       0.531  11.198  20.378  0.00  0.00    +0.000 A 
ATOM      6  C   UNL     1       1.254  12.264  19.824  0.00  0.00    +0.000 A 
ENDROOT
BRANCH   5   7
ATOM      7  C   UNL     1      -0.396  11.468  21.510  0.00  0.00    +0.000 C 
ATOM      8  O   UNL     1      -0.092  11.000  22.602  0.00  0.00    +0.000 OA
ATOM      9  N   UNL     1      -1.534  12.180  21.193  0.00  0.00    +0.000 N 
ATOM     10  C   UNL     1      -2.476  12.443  22.146  0.00  0.00    +0.000 A 
ATOM     11  N   UNL     1      -2.369  12.381  23.448  0.00  0.00    +0.000 NA
ATOM     12  C   UNL     1      -3.597  12.622  24.021  0.00  0.00    +0.000 A 
ATOM     13  C   UNL     1      -4.628  12.859  23.137  0.00  0.00    +0.000 A 
ATOM     14  S   UNL     1      -4.013  12.870  21.532  0.00  0.00    +0.000 S 
ATOM     15  H   UNL     1      -1.798  12.361  20.236  0.00  0.00    +0.000 HD
ENDBRANCH   5   7
BRANCH   1  16
ATOM     16  O   UNL     1       2.819  13.056  18.127  0.00  0.00    +0.000 OA
BRANCH  16  21
ATOM     17  C   UNL     1       1.445  17.581  17.939  0.00  0.00    +0.000 C 
ATOM     18  N   UNL     1       2.350  16.597  18.521  0.00  0.00    +0.000 NA
ATOM     19  C   UNL     1       3.555  16.392  17.722  0.00  0.00    +0.000 C 
ATOM     20  C   UNL     1       4.127  15.096  18.296  0.00  0.00    +0.000 C 
ATOM     21  C   UNL     1       2.919  14.308  18.840  0.00  0.00    +0.000 C 
ATOM     22  C   UNL     1       1.739  15.262  18.584  0.00  0.00    +0.000 C 
ENDBRANCH  16  21
ENDBRANCH   1  16
BRANCH   3  23
ATOM     23  O   UNL     1       1.312   8.515  17.967  0.00  0.00    +0.000 OA
BRANCH  23  24
ATOM     24  C   UNL     1       2.366   7.630  18.168  0.00  0.00    +0.000 A 
ATOM     25  C   UNL     1       3.477   7.571  17.314  0.00  0.00    +0.000 A 
ATOM     26  C   UNL     1       4.494   6.645  17.517  0.00  0.00    +0.000 A 
ATOM     27  C   UNL     1       4.457   5.831  18.646  0.00  0.00    +0.000 A 
ATOM     28  C   UNL     1       3.372   5.881  19.528  0.00  0.00    +0.000 A 
ATOM     29  C   UNL     1       2.324   6.786  19.286  0.00  0.00    +0.000 A 
BRANCH  27  30
ATOM     30  S   UNL     1       5.829   4.744  18.953  0.00  0.00    +0.000 S 
ATOM     31  C   UNL     1       6.562   4.552  17.351  0.00  0.00    +0.000 C 
ATOM     32  O   UNL     1       6.762   5.458  19.809  0.00  0.00    +0.000 OA
ATOM     33  O   UNL     1       5.279   3.454  19.360  0.00  0.00    +0.000 OA
ENDBRANCH  27  30
ENDBRANCH  23  24
ENDBRANCH   3  23
TORSDOF 6
ENDMDL
MODEL 4
REMARK VINA RESULT:      -7.9      1.929      2.550
REMARK  Name = 
REMARK  8 active torsions:
REMARK  status: ('A' for Active; 'I' for Inactive)
REMARK    1  A    between atoms: C_1  and  N_2
REMARK    2  A    between atoms: C_5  and  O_6
REMARK    3  A    between atoms: O_6  and  C_7
REMARK    4  A    between atoms: C_9  and  O_10
REMARK    5  A    between atoms: O_10  and  C_11
REMARK    6  A    between atoms: C_14  and  S_15
REMARK    7  A    between atoms: S_15  and  C_16
REMARK    8  A    between atoms: C_22  and  C_23
REMARK                            x       y       z     vdW  Elec       q    Type
REMARK                         _______ _______ _______ _____ _____    ______ ____
ROOT
ATOM      1  C   UNL     1       3.903   5.437  19.606  0.00  0.00    +0.000 A 
ATOM      2  C   UNL     1       2.775   6.265  19.449  0.00  0.00    +0.000 A 
ATOM      3  C   UNL     1       2.638   7.079  18.312  0.00  0.00    +0.000 A 
ATOM      4  C   UNL     1       3.670   7.122  17.370  0.00  0.00    +0.000 A 
ATOM      5  C   UNL     1       4.756   6.259  17.489  0.00  0.00    +0.000 A 
ATOM      6  C   UNL     1       4.865   5.406  18.596  0.00  0.00    +0.000 A 
ENDROOT
BRANCH   5   7
ATOM      7  C   UNL     1       5.760   6.151  16.396  0.00  0.00    +0.000 C 
ATOM      8  O   UNL     1       6.602   7.040  16.323  0.00  0.00    +0.000 OA
ATOM      9  N   UNL     1       5.602   5.078  15.544  0.00  0.00    +0.000 N 
ATOM     10  C   UNL     1       6.439   4.908  14.479  0.00  0.00    +0.000 A 
ATOM     11  N   UNL     1       7.606   5.452  14.254  0.00  0.00    +0.000 NA
ATOM     12  C   UNL     1       8.051   5.086  13.004  0.00  0.00    +0.000 A 
ATOM     13  C   UNL     1       7.203   4.267  12.290  0.00  0.00    +0.000 A 
ATOM     14  S   UNL     1       5.841   3.870  13.260  0.00  0.00    +0.000 S 
ATOM     15  H   UNL     1       4.772   4.504  15.562  0.00  0.00    +0.000 HD
ENDBRANCH   5   7
BRANCH   1  16
ATOM     16  O   UNL     1       3.947   4.629  20.720  0.00  0.00    +0.000 OA
BRANCH  16  21
ATOM     17  C   UNL     1       0.478   2.258  18.543  0.00  0.00    +0.000 C 
ATOM     18  N   UNL     1       1.463   2.278  19.617  0.00  0.00    +0.000 NA
ATOM     19  C   UNL     1       0.966   2.915  20.834  0.00  0.00    +0.000 C 
ATOM     20  C   UNL     1       2.244   3.158  21.636  0.00  0.00    +0.000 C 
ATOM     21  C   UNL     1       3.372   3.311  20.595  0.00  0.00    +0.000 C 
ATOM     22  C   UNL     1       2.644   3.075  19.260  0.00  0.00    +0.000 C 
ENDBRANCH  16  21
ENDBRANCH   1  16
BRANCH   3  23
ATOM     23  O   UNL     1       1.479   7.823  18.145  0.00  0.00    +0.000 OA
BRANCH  23  24
ATOM     24  C   UNL     1       1.422   9.096  18.703  0.00  0.00    +0.000 A 
ATOM     25  C   UNL     1       0.916   9.337  19.988  0.00  0.00    +0.000 A 
ATOM     26  C   UNL     1       0.833  10.627  20.501  0.00  0.00    +0.000 A 
ATOM     27  C   UNL     1       1.354  11.686  19.763  0.00  0.00    +0.000 A 
ATOM     28  C   UNL     1       1.885  11.475  18.486  0.00  0.00    +0.000 A 
ATOM     29  C   UNL     1       1.918  10.173  17.956  0.00  0.00    +0.000 A 
BRANCH  27  30
ATOM     30  S   UNL     1       1.351  13.308  20.490  0.00  0.00    +0.000 S 
ATOM     31  C   UNL     1      -0.195  13.364  21.354  0.00  0.00    +0.000 C 
ATOM     32  O   UNL     1       2.429  13.346  21.464  0.00  0.00    +0.000 OA
ATOM     33  O   UNL     1       1.297  14.274  19.397  0.00  0.00    +0.000 OA
ENDBRANCH  27  30
ENDBRANCH  23  24
ENDBRANCH   3  23
TORSDOF 6
ENDMDL
MODEL 5
REMARK VINA RESULT:      -7.9      1.962      2.683
REMARK  Name = 
REMARK  8 active torsions:
REMARK  status: ('A' for Active; 'I' for Inactive)
REMARK    1  A    between atoms: C_1  and  N_2
REMARK    2  A    between atoms: C_5  and  O_6
REMARK    3  A    between atoms: O_6  and  C_7
REMARK    4  A    between atoms: C_9  and  O_10
REMARK    5  A    between atoms: O_10  and  C_11
REMARK    6  A    between atoms: C_14  and  S_15
REMARK    7  A    between atoms: S_15  and  C_16
REMARK    8  A    between atoms: C_22  and  C_23
REMARK                            x       y       z     vdW  Elec       q    Type
REMARK                         _______ _______ _______ _____ _____    ______ ____
ROOT
ATOM      1  C   UNL     1       2.957   6.184  19.728  0.00  0.00    +0.000 A 
ATOM      2  C   UNL     1       2.023   7.197  19.437  0.00  0.00    +0.000 A 
ATOM      3  C   UNL     1       2.170   7.997  18.291  0.00  0.00    +0.000 A 
ATOM      4  C   UNL     1       3.295   7.834  17.479  0.00  0.00    +0.000 A 
ATOM      5  C   UNL     1       4.186   6.793  17.727  0.00  0.00    +0.000 A 
ATOM      6  C   UNL     1       4.009   5.959  18.839  0.00  0.00    +0.000 A 
ENDROOT
BRANCH   5   7
ATOM      7  C   UNL     1       5.274   6.481  16.760  0.00  0.00    +0.000 C 
ATOM      8  O   UNL     1       6.219   7.263  16.715  0.00  0.00    +0.000 OA
ATOM      9  N   UNL     1       5.076   5.364  15.978  0.00  0.00    +0.000 N 
ATOM     10  C   UNL     1       5.989   5.012  15.025  0.00  0.00    +0.000 A 
ATOM     11  N   UNL     1       7.229   5.403  14.890  0.00  0.00    +0.000 NA
ATOM     12  C   UNL     1       7.750   4.885  13.726  0.00  0.00    +0.000 A 
ATOM     13  C   UNL     1       6.887   4.107  12.986  0.00  0.00    +0.000 A 
ATOM     14  S   UNL     1       5.398   3.946  13.828  0.00  0.00    +0.000 S 
ATOM     15  H   UNL     1       4.187   4.888  15.947  0.00  0.00    +0.000 HD
ENDBRANCH   5   7
BRANCH   1  16
ATOM     16  O   UNL     1       2.724   5.407  20.839  0.00  0.00    +0.000 OA
BRANCH  16  21
ATOM     17  C   UNL     1       3.249   1.924  17.679  0.00  0.00    +0.000 C 
ATOM     18  N   UNL     1       2.543   2.416  18.856  0.00  0.00    +0.000 NA
ATOM     19  C   UNL     1       1.388   3.243  18.522  0.00  0.00    +0.000 C 
ATOM     20  C   UNL     1       1.068   3.931  19.849  0.00  0.00    +0.000 C 
ATOM     21  C   UNL     1       2.405   4.017  20.612  0.00  0.00    +0.000 C 
ATOM     22  C   UNL     1       3.388   3.302  19.668  0.00  0.00    +0.000 C 
ENDBRANCH  16  21
ENDBRANCH   1  16
BRANCH   3  23
ATOM     23  O   UNL     1       1.192   8.933  17.988  0.00  0.00    +0.000 OA
BRANCH  23  24
ATOM     24  C   UNL     1       0.954   9.962  18.894  0.00  0.00    +0.000 A 
ATOM     25  C   UNL     1       1.549  11.226  18.778  0.00  0.00    +0.000 A 
ATOM     26  C   UNL     1       1.326  12.219  19.725  0.00  0.00    +0.000 A 
ATOM     27  C   UNL     1       0.416  11.986  20.752  0.00  0.00    +0.000 A 
ATOM     28  C   UNL     1      -0.211  10.742  20.883  0.00  0.00    +0.000 A 
ATOM     29  C   UNL     1       0.061   9.727  19.949  0.00  0.00    +0.000 A 
BRANCH  27  30
ATOM     30  S   UNL     1       0.050  13.312  21.877  0.00  0.00    +0.000 S 
ATOM     31  C   UNL     1      -1.149  14.275  20.996  0.00  0.00    +0.000 C 
ATOM     32  O   UNL     1      -0.593  12.724  23.042  0.00  0.00    +0.000 OA
ATOM     33  O   UNL     1       1.263  14.111  22.017  0.00  0.00    +0.000 OA
ENDBRANCH  27  30
ENDBRANCH  23  24
ENDBRANCH   3  23
TORSDOF 6
ENDMDL
MODEL 6
REMARK VINA RESULT:      -7.8      5.076     10.394
REMARK  Name = 
REMARK  8 active torsions:
REMARK  status: ('A' for Active; 'I' for Inactive)
REMARK    1  A    between atoms: C_1  and  N_2
REMARK    2  A    between atoms: C_5  and  O_6
REMARK    3  A    between atoms: O_6  and  C_7
REMARK    4  A    between atoms: C_9  and  O_10
REMARK    5  A    between atoms: O_10  and  C_11
REMARK    6  A    between atoms: C_14  and  S_15
REMARK    7  A    between atoms: S_15  and  C_16
REMARK    8  A    between atoms: C_22  and  C_23
REMARK                            x       y       z     vdW  Elec       q    Type
REMARK                         _______ _______ _______ _____ _____    ______ ____
ROOT
ATOM      1  C   UNL     1      -0.769  10.117  18.211  0.00  0.00    +0.000 A 
ATOM      2  C   UNL     1       0.430   9.381  18.281  0.00  0.00    +0.000 A 
ATOM      3  C   UNL     1       1.218   9.407  19.444  0.00  0.00    +0.000 A 
ATOM      4  C   UNL     1       0.844  10.232  20.508  0.00  0.00    +0.000 A 
ATOM      5  C   UNL     1      -0.371  10.911  20.468  0.00  0.00    +0.000 A 
ATOM      6  C   UNL     1      -1.185  10.840  19.329  0.00  0.00    +0.000 A 
ENDROOT
BRANCH   5   7
ATOM      7  C   UNL     1      -0.876  11.631  21.669  0.00  0.00    +0.000 C 
ATOM      8  O   UNL     1      -0.199  11.553  22.690  0.00  0.00    +0.000 OA
ATOM      9  N   UNL     1      -2.086  12.272  21.516  0.00  0.00    +0.000 N 
ATOM     10  C   UNL     1      -2.665  12.924  22.567  0.00  0.00    +0.000 A 
ATOM     11  N   UNL     1      -2.124  13.314  23.691  0.00  0.00    +0.000 NA
ATOM     12  C   UNL     1      -3.098  13.834  24.513  0.00  0.00    +0.000 A 
ATOM     13  C   UNL     1      -4.376  13.824  23.997  0.00  0.00    +0.000 A 
ATOM     14  S   UNL     1      -4.338  13.225  22.387  0.00  0.00    +0.000 S 
ATOM     15  H   UNL     1      -2.665  12.126  20.702  0.00  0.00    +0.000 HD
ENDBRANCH   5   7
BRANCH   1  16
ATOM     16  O   UNL     1      -1.515  10.005  17.059  0.00  0.00    +0.000 OA
BRANCH  16  21
ATOM     17  C   UNL     1      -5.908  11.734  17.391  0.00  0.00    +0.000 C 
ATOM     18  N   UNL     1      -4.609  11.803  16.731  0.00  0.00    +0.000 NA
ATOM     19  C   UNL     1      -4.500  10.891  15.596  0.00  0.00    +0.000 C 
ATOM     20  C   UNL     1      -2.995  10.857  15.331  0.00  0.00    +0.000 C 
ATOM     21  C   UNL     1      -2.322  11.143  16.689  0.00  0.00    +0.000 C 
ATOM     22  C   UNL     1      -3.521  11.384  17.625  0.00  0.00    +0.000 C 
ENDBRANCH  16  21
ENDBRANCH   1  16
BRANCH   3  23
ATOM     23  O   UNL     1       2.351   8.609  19.513  0.00  0.00    +0.000 OA
BRANCH  23  24
ATOM     24  C   UNL     1       2.191   7.228  19.501  0.00  0.00    +0.000 A 
ATOM     25  C   UNL     1       1.730   6.510  20.614  0.00  0.00    +0.000 A 
ATOM     26  C   UNL     1       1.622   5.124  20.584  0.00  0.00    +0.000 A 
ATOM     27  C   UNL     1       1.881   4.447  19.396  0.00  0.00    +0.000 A 
ATOM     28  C   UNL     1       2.323   5.138  18.261  0.00  0.00    +0.000 A 
ATOM     29  C   UNL     1       2.477   6.534  18.317  0.00  0.00    +0.000 A 
BRANCH  27  30
ATOM     30  S   UNL     1       1.616   2.691  19.344  0.00  0.00    +0.000 S 
ATOM     31  C   UNL     1       3.144   2.068  18.698  0.00  0.00    +0.000 C 
ATOM     32  O   UNL     1       1.473   2.235  20.718  0.00  0.00    +0.000 OA
ATOM     33  O   UNL     1       0.568   2.438  18.360  0.00  0.00    +0.000 OA
ENDBRANCH  27  30
ENDBRANCH  23  24
ENDBRANCH   3  23
TORSDOF 6
ENDMDL
MODEL 7
REMARK VINA RESULT:      -7.8      4.547      7.620
REMARK  Name = 
REMARK  8 active torsions:
REMARK  status: ('A' for Active; 'I' for Inactive)
REMARK    1  A    between atoms: C_1  and  N_2
REMARK    2  A    between atoms: C_5  and  O_6
REMARK    3  A    between atoms: O_6  and  C_7
REMARK    4  A    between atoms: C_9  and  O_10
REMARK    5  A    between atoms: O_10  and  C_11
REMARK    6  A    between atoms: C_14  and  S_15
REMARK    7  A    between atoms: S_15  and  C_16
REMARK    8  A    between atoms: C_22  and  C_23
REMARK                            x       y       z     vdW  Elec       q    Type
REMARK                         _______ _______ _______ _____ _____    ______ ____
ROOT
ATOM      1  C   UNL     1      -0.687  10.570  19.107  0.00  0.00    +0.000 A 
ATOM      2  C   UNL     1      -0.770  11.080  20.417  0.00  0.00    +0.000 A 
ATOM      3  C   UNL     1       0.017  10.537  21.447  0.00  0.00    +0.000 A 
ATOM      4  C   UNL     1       0.829   9.432  21.180  0.00  0.00    +0.000 A 
ATOM      5  C   UNL     1       0.962   8.965  19.875  0.00  0.00    +0.000 A 
ATOM      6  C   UNL     1       0.218   9.544  18.837  0.00  0.00    +0.000 A 
ENDROOT
BRANCH   5   7
ATOM      7  C   UNL     1       1.971   7.923  19.543  0.00  0.00    +0.000 C 
ATOM      8  O   UNL     1       2.708   8.147  18.588  0.00  0.00    +0.000 OA
ATOM      9  N   UNL     1       1.933   6.786  20.320  0.00  0.00    +0.000 N 
ATOM     10  C   UNL     1       2.782   5.746  20.072  0.00  0.00    +0.000 A 
ATOM     11  N   UNL     1       3.881   5.732  19.364  0.00  0.00    +0.000 NA
ATOM     12  C   UNL     1       4.363   4.445  19.288  0.00  0.00    +0.000 A 
ATOM     13  C   UNL     1       3.610   3.492  19.939  0.00  0.00    +0.000 A 
ATOM     14  S   UNL     1       2.303   4.253  20.753  0.00  0.00    +0.000 S 
ATOM     15  H   UNL     1       1.172   6.604  20.958  0.00  0.00    +0.000 HD
ENDBRANCH   5   7
BRANCH   1  16
ATOM     16  O   UNL     1      -1.450  11.183  18.139  0.00  0.00    +0.000 OA
BRANCH  16  21
ATOM     17  C   UNL     1      -3.630  10.099  14.080  0.00  0.00    +0.000 C 
ATOM     18  N   UNL     1      -3.697  10.138  15.537  0.00  0.00    +0.000 NA
ATOM     19  C   UNL     1      -4.173  11.419  16.050  0.00  0.00    +0.000 C 
ATOM     20  C   UNL     1      -3.796  11.354  17.530  0.00  0.00    +0.000 C 
ATOM     21  C   UNL     1      -2.563  10.431  17.609  0.00  0.00    +0.000 C 
ATOM     22  C   UNL     1      -2.369   9.986  16.148  0.00  0.00    +0.000 C 
ENDBRANCH  16  21
ENDBRANCH   1  16
BRANCH   3  23
ATOM     23  O   UNL     1      -0.027  11.112  22.709  0.00  0.00    +0.000 OA
BRANCH  23  24
ATOM     24  C   UNL     1      -0.996  12.077  22.965  0.00  0.00    +0.000 A 
ATOM     25  C   UNL     1      -0.758  13.449  22.808  0.00  0.00    +0.000 A 
ATOM     26  C   UNL     1      -1.734  14.391  23.114  0.00  0.00    +0.000 A 
ATOM     27  C   UNL     1      -3.003  13.958  23.487  0.00  0.00    +0.000 A 
ATOM     28  C   UNL     1      -3.279  12.593  23.632  0.00  0.00    +0.000 A 
ATOM     29  C   UNL     1      -2.269  11.651  23.369  0.00  0.00    +0.000 A 
BRANCH  27  30
ATOM     30  S   UNL     1      -4.271  15.174  23.751  0.00  0.00    +0.000 S 
ATOM     31  C   UNL     1      -4.041  16.301  22.402  0.00  0.00    +0.000 C 
ATOM     32  O   UNL     1      -5.552  14.506  23.584  0.00  0.00    +0.000 OA
ATOM     33  O   UNL     1      -3.950  15.876  24.990  0.00  0.00    +0.000 OA
ENDBRANCH  27  30
ENDBRANCH  23  24
ENDBRANCH   3  23
TORSDOF 6
ENDMDL
MODEL 8
REMARK VINA RESULT:      -7.8      5.119      9.599
REMARK  Name = 
REMARK  8 active torsions:
REMARK  status: ('A' for Active; 'I' for Inactive)
REMARK    1  A    between atoms: C_1  and  N_2
REMARK    2  A    between atoms: C_5  and  O_6
REMARK    3  A    between atoms: O_6  and  C_7
REMARK    4  A    between atoms: C_9  and  O_10
REMARK    5  A    between atoms: O_10  and  C_11
REMARK    6  A    between atoms: C_14  and  S_15
REMARK    7  A    between atoms: S_15  and  C_16
REMARK    8  A    between atoms: C_22  and  C_23
REMARK                            x       y       z     vdW  Elec       q    Type
REMARK                         _______ _______ _______ _____ _____    ______ ____
ROOT
ATOM      1  C   UNL     1      -0.883  10.499  18.550  0.00  0.00    +0.000 A 
ATOM      2  C   UNL     1       0.034   9.556  18.045  0.00  0.00    +0.000 A 
ATOM      3  C   UNL     1       1.403   9.659  18.345  0.00  0.00    +0.000 A 
ATOM      4  C   UNL     1       1.864  10.750  19.085  0.00  0.00    +0.000 A 
ATOM      5  C   UNL     1       0.955  11.648  19.639  0.00  0.00    +0.000 A 
ATOM      6  C   UNL     1      -0.417  11.514  19.385  0.00  0.00    +0.000 A 
ENDROOT
BRANCH   5   7
ATOM      7  C   UNL     1       1.411  12.697  20.591  0.00  0.00    +0.000 C 
ATOM      8  O   UNL     1       0.736  12.862  21.602  0.00  0.00    +0.000 OA
ATOM      9  N   UNL     1       2.526  13.410  20.206  0.00  0.00    +0.000 N 
ATOM     10  C   UNL     1       3.002  14.427  20.982  0.00  0.00    +0.000 A 
ATOM     11  N   UNL     1       2.750  14.692  22.237  0.00  0.00    +0.000 NA
ATOM     12  C   UNL     1       3.357  15.877  22.588  0.00  0.00    +0.000 A 
ATOM     13  C   UNL     1       4.062  16.501  21.582  0.00  0.00    +0.000 A 
ATOM     14  S   UNL     1       4.038  15.519  20.172  0.00  0.00    +0.000 S 
ATOM     15  H   UNL     1       2.905  13.339  19.273  0.00  0.00    +0.000 HD
ENDBRANCH   5   7
BRANCH   1  16
ATOM     16  O   UNL     1      -2.214  10.308  18.257  0.00  0.00    +0.000 OA
BRANCH  16  21
ATOM     17  C   UNL     1      -6.379  12.358  19.177  0.00  0.00    +0.000 C 
ATOM     18  N   UNL     1      -5.199  12.307  18.322  0.00  0.00    +0.000 NA
ATOM     19  C   UNL     1      -5.329  11.346  17.230  0.00  0.00    +0.000 C 
ATOM     20  C   UNL     1      -3.890  11.195  16.738  0.00  0.00    +0.000 C 
ATOM     21  C   UNL     1      -2.995  11.485  17.960  0.00  0.00    +0.000 C 
ATOM     22  C   UNL     1      -4.012  11.847  19.056  0.00  0.00    +0.000 C 
ENDBRANCH  16  21
ENDBRANCH   1  16
BRANCH   3  23
ATOM     23  O   UNL     1       2.270   8.671  17.901  0.00  0.00    +0.000 OA
BRANCH  23  24
ATOM     24  C   UNL     1       2.258   7.439  18.546  0.00  0.00    +0.000 A 
ATOM     25  C   UNL     1       2.034   7.309  19.924  0.00  0.00    +0.000 A 
ATOM     26  C   UNL     1       2.071   6.067  20.548  0.00  0.00    +0.000 A 
ATOM     27  C   UNL     1       2.234   4.922  19.773  0.00  0.00    +0.000 A 
ATOM     28  C   UNL     1       2.440   5.017  18.392  0.00  0.00    +0.000 A 
ATOM     29  C   UNL     1       2.450   6.282  17.779  0.00  0.00    +0.000 A 
BRANCH  27  30
ATOM     30  S   UNL     1       2.153   3.337  20.573  0.00  0.00    +0.000 S 
ATOM     31  C   UNL     1       3.692   2.579  20.130  0.00  0.00    +0.000 C 
ATOM     32  O   UNL     1       2.150   3.577  22.007  0.00  0.00    +0.000 OA
ATOM     33  O   UNL     1       1.075   2.585  19.939  0.00  0.00    +0.000 OA
ENDBRANCH  27  30
ENDBRANCH  23  24
ENDBRANCH   3  23
TORSDOF 6
ENDMDL
MODEL 9
REMARK VINA RESULT:      -7.7      4.931      9.547
REMARK  Name = 
REMARK  8 active torsions:
REMARK  status: ('A' for Active; 'I' for Inactive)
REMARK    1  A    between atoms: C_1  and  N_2
REMARK    2  A    between atoms: C_5  and  O_6
REMARK    3  A    between atoms: O_6  and  C_7
REMARK    4  A    between atoms: C_9  and  O_10
REMARK    5  A    between atoms: O_10  and  C_11
REMARK    6  A    between atoms: C_14  and  S_15
REMARK    7  A    between atoms: S_15  and  C_16
REMARK    8  A    between atoms: C_22  and  C_23
REMARK                            x       y       z     vdW  Elec       q    Type
REMARK                         _______ _______ _______ _____ _____    ______ ____
ROOT
ATOM      1  C   UNL     1      -0.400  10.211  18.064  0.00  0.00    +0.000 A 
ATOM      2  C   UNL     1       0.606   9.268  17.776  0.00  0.00    +0.000 A 
ATOM      3  C   UNL     1       1.889   9.399  18.334  0.00  0.00    +0.000 A 
ATOM      4  C   UNL     1       2.187  10.518  19.116  0.00  0.00    +0.000 A 
ATOM      5  C   UNL     1       1.180  11.417  19.455  0.00  0.00    +0.000 A 
ATOM      6  C   UNL     1      -0.116  11.255  18.943  0.00  0.00    +0.000 A 
ENDROOT
BRANCH   5   7
ATOM      7  C   UNL     1       1.431  12.498  20.446  0.00  0.00    +0.000 C 
ATOM      8  O   UNL     1       0.903  12.378  21.547  0.00  0.00    +0.000 OA
ATOM      9  N   UNL     1       2.198  13.553  19.998  0.00  0.00    +0.000 N 
ATOM     10  C   UNL     1       2.452  14.621  20.810  0.00  0.00    +0.000 A 
ATOM     11  N   UNL     1       2.327  14.717  22.108  0.00  0.00    +0.000 NA
ATOM     12  C   UNL     1       2.586  16.010  22.500  0.00  0.00    +0.000 A 
ATOM     13  C   UNL     1       2.900  16.886  21.484  0.00  0.00    +0.000 A 
ATOM     14  S   UNL     1       2.962  16.033  19.993  0.00  0.00    +0.000 S 
ATOM     15  H   UNL     1       2.432  13.662  19.023  0.00  0.00    +0.000 HD
ENDBRANCH   5   7
BRANCH   1  16
ATOM     16  O   UNL     1      -1.647   9.992  17.523  0.00  0.00    +0.000 OA
BRANCH  16  21
ATOM     17  C   UNL     1      -6.012  11.819  17.557  0.00  0.00    +0.000 C 
ATOM     18  N   UNL     1      -4.666  11.869  17.000  0.00  0.00    +0.000 NA
ATOM     19  C   UNL     1      -4.490  10.977  15.857  0.00  0.00    +0.000 C 
ATOM     20  C   UNL     1      -2.971  10.913  15.707  0.00  0.00    +0.000 C 
ATOM     21  C   UNL     1      -2.398  11.156  17.117  0.00  0.00    +0.000 C 
ATOM     22  C   UNL     1      -3.658  11.407  17.964  0.00  0.00    +0.000 C 
ENDBRANCH  16  21
ENDBRANCH   1  16
BRANCH   3  23
ATOM     23  O   UNL     1       2.836   8.412  18.097  0.00  0.00    +0.000 OA
BRANCH  23  24
ATOM     24  C   UNL     1       2.557   7.114  18.510  0.00  0.00    +0.000 A 
ATOM     25  C   UNL     1       2.204   6.799  19.830  0.00  0.00    +0.000 A 
ATOM     26  C   UNL     1       1.974   5.485  20.223  0.00  0.00    +0.000 A 
ATOM     27  C   UNL     1       1.996   4.476  19.264  0.00  0.00    +0.000 A 
ATOM     28  C   UNL     1       2.324   4.761  17.934  0.00  0.00    +0.000 A 
ATOM     29  C   UNL     1       2.605   6.086  17.558  0.00  0.00    +0.000 A 
BRANCH  27  30
ATOM     30  S   UNL     1       1.575   2.823  19.763  0.00  0.00    +0.000 S 
ATOM     31  C   UNL     1       1.561   2.924  21.532  0.00  0.00    +0.000 C 
ATOM     32  O   UNL     1       0.221   2.565  19.302  0.00  0.00    +0.000 OA
ATOM     33  O   UNL     1       2.679   1.955  19.365  0.00  0.00    +0.000 OA
ENDBRANCH  27  30
ENDBRANCH  23  24
ENDBRANCH   3  23
TORSDOF 6
ENDMDL
