MODEL 1
REMARK VINA RESULT:      -8.5      0.000      0.000
REMARK  Name = 
REMARK  6 active torsions:
REMARK  status: ('A' for Active; 'I' for Inactive)
REMARK    1  A    between atoms: N_2  and  C_4
REMARK    2  A    between atoms: C_6  and  C_7
REMARK    3  A    between atoms: C_7  and  S_8
REMARK    4  A    between atoms: S_8  and  C_9
REMARK    5  A    between atoms: C_12  and  C_13
REMARK    6  A    between atoms: C_21  and  N_22
REMARK                            x       y       z     vdW  Elec       q    Type
REMARK                         _______ _______ _______ _____ _____    ______ ____
ROOT
ATOM      1  C   UNL     1       3.636   3.327  17.405  0.00  0.00    +0.000 C 
ENDROOT
BRANCH   1   4
ATOM      2  C   UNL     1       6.660   4.758  15.544  0.00  0.00    +0.000 A 
ATOM      3  C   UNL     1       5.458   4.079  15.811  0.00  0.00    +0.000 A 
ATOM      4  C   UNL     1       4.963   4.003  17.124  0.00  0.00    +0.000 A 
ATOM      5  C   UNL     1       5.705   4.588  18.164  0.00  0.00    +0.000 A 
ATOM      6  C   UNL     1       6.906   5.267  17.884  0.00  0.00    +0.000 A 
ATOM      7  C   UNL     1       7.390   5.360  16.574  0.00  0.00    +0.000 A 
BRANCH   2   9
ATOM      8  O   UNL     1       6.600   4.143  13.306  0.00  0.00    +0.000 OA
ATOM      9  N   UNL     1       7.146   4.858  14.160  0.00  0.00    +0.000 N 
ATOM     10  O   UNL     1       8.064   5.654  13.930  0.00  0.00    +0.000 OA
ENDBRANCH   2   9
BRANCH   6  11
ATOM     11  N   UNL     1       7.650   5.910  18.977  0.00  0.00    +0.000 N 
ATOM     12  O   UNL     1       8.264   6.955  18.718  0.00  0.00    +0.000 OA
ATOM     13  O   UNL     1       7.621   5.366  20.089  0.00  0.00    +0.000 OA
ENDBRANCH   6  11
ENDBRANCH   1   4
BRANCH   1  14
ATOM     14  S   UNL     1       3.462   2.823  19.139  0.00  0.00    +0.000 S 
BRANCH  14  15
ATOM     15  C   UNL     1       2.761   4.280  19.784  0.00  0.00    +0.000 A 
ATOM     16  N   UNL     1       2.077   4.344  20.908  0.00  0.00    +0.000 NA
ATOM     17  N   UNL     1       1.646   5.649  21.035  0.00  0.00    +0.000 NA
ATOM     18  C   UNL     1       2.089   6.295  19.975  0.00  0.00    +0.000 A 
ATOM     19  O   UNL     1       2.826   5.490  19.143  0.00  0.00    +0.000 OA
BRANCH  18  20
ATOM     20  C   UNL     1       1.850   7.671  19.552  0.00  0.00    +0.000 A 
ATOM     21  C   UNL     1       1.261   8.581  20.445  0.00  0.00    +0.000 A 
ATOM     22  C   UNL     1       0.965   9.888  20.048  0.00  0.00    +0.000 A 
ATOM     23  C   UNL     1       1.255  10.306  18.751  0.00  0.00    +0.000 A 
ATOM     24  C   UNL     1       1.853   9.421  17.856  0.00  0.00    +0.000 A 
ATOM     25  C   UNL     1       2.151   8.114  18.255  0.00  0.00    +0.000 A 
ENDBRANCH  18  20
ENDBRANCH  14  15
ENDBRANCH   1  14
TORSDOF 6
ENDMDL
MODEL 2
REMARK VINA RESULT:      -8.3      0.291      1.328
REMARK  Name = 
REMARK  6 active torsions:
REMARK  status: ('A' for Active; 'I' for Inactive)
REMARK    1  A    between atoms: N_2  and  C_4
REMARK    2  A    between atoms: C_6  and  C_7
REMARK    3  A    between atoms: C_7  and  S_8
REMARK    4  A    between atoms: S_8  and  C_9
REMARK    5  A    between atoms: C_12  and  C_13
REMARK    6  A    between atoms: C_21  and  N_22
REMARK                            x       y       z     vdW  Elec       q    Type
REMARK                         _______ _______ _______ _____ _____    ______ ____
ROOT
ATOM      1  C   UNL     1       3.564   3.591  17.206  0.00  0.00    +0.000 C 
ENDROOT
BRANCH   1   4
ATOM      2  C   UNL     1       6.653   4.767  15.274  0.00  0.00    +0.000 A 
ATOM      3  C   UNL     1       5.407   4.187  15.571  0.00  0.00    +0.000 A 
ATOM      4  C   UNL     1       4.934   4.158  16.894  0.00  0.00    +0.000 A 
ATOM      5  C   UNL     1       5.741   4.690  17.914  0.00  0.00    +0.000 A 
ATOM      6  C   UNL     1       6.985   5.271  17.605  0.00  0.00    +0.000 A 
ATOM      7  C   UNL     1       7.449   5.317  16.285  0.00  0.00    +0.000 A 
BRANCH   2   9
ATOM      8  O   UNL     1       8.029   5.615  13.607  0.00  0.00    +0.000 OA
ATOM      9  N   UNL     1       7.117   4.819  13.880  0.00  0.00    +0.000 N 
ATOM     10  O   UNL     1       6.576   4.062  13.067  0.00  0.00    +0.000 OA
ENDBRANCH   2   9
BRANCH   6  11
ATOM     11  N   UNL     1       7.799   5.860  18.678  0.00  0.00    +0.000 N 
ATOM     12  O   UNL     1       8.068   5.146  19.654  0.00  0.00    +0.000 OA
ATOM     13  O   UNL     1       8.161   7.036  18.544  0.00  0.00    +0.000 OA
ENDBRANCH   6  11
ENDBRANCH   1   4
BRANCH   1  14
ATOM     14  S   UNL     1       3.417   3.027  18.924  0.00  0.00    +0.000 S 
BRANCH  14  15
ATOM     15  C   UNL     1       2.779   4.480  19.640  0.00  0.00    +0.000 A 
ATOM     16  N   UNL     1       2.251   4.547  20.846  0.00  0.00    +0.000 NA
ATOM     17  N   UNL     1       1.815   5.846  21.014  0.00  0.00    +0.000 NA
ATOM     18  C   UNL     1       2.098   6.485  19.896  0.00  0.00    +0.000 A 
ATOM     19  O   UNL     1       2.733   5.681  18.983  0.00  0.00    +0.000 OA
BRANCH  18  20
ATOM     20  C   UNL     1       1.776   7.850  19.493  0.00  0.00    +0.000 A 
ATOM     21  C   UNL     1       2.162   8.309  18.223  0.00  0.00    +0.000 A 
ATOM     22  C   UNL     1       1.920   9.630  17.833  0.00  0.00    +0.000 A 
ATOM     23  C   UNL     1       1.287  10.510  18.707  0.00  0.00    +0.000 A 
ATOM     24  C   UNL     1       0.884  10.068  19.965  0.00  0.00    +0.000 A 
ATOM     25  C   UNL     1       1.124   8.746  20.354  0.00  0.00    +0.000 A 
ENDBRANCH  18  20
ENDBRANCH  14  15
ENDBRANCH   1  14
TORSDOF 6
ENDMDL
MODEL 3
REMARK VINA RESULT:      -8.2      4.306      6.655
REMARK  Name = 
REMARK  6 active torsions:
REMARK  status: ('A' for Active; 'I' for Inactive)
REMARK    1  A    between atoms: N_2  and  C_4
REMARK    2  A    between atoms: C_6  and  C_7
REMARK    3  A    between atoms: C_7  and  S_8
REMARK    4  A    between atoms: S_8  and  C_9
REMARK    5  A    between atoms: C_12  and  C_13
REMARK    6  A    between atoms: C_21  and  N_22
REMARK                            x       y       z     vdW  Elec       q    Type
REMARK                         _______ _______ _______ _____ _____    ______ ____
ROOT
ATOM      1  C   UNL     1       6.575   5.060  17.227  0.00  0.00    +0.000 C 
ENDROOT
BRANCH   1   4
ATOM      2  C   UNL     1       3.003   3.916  17.996  0.00  0.00    +0.000 A 
ATOM      3  C   UNL     1       4.362   3.893  17.633  0.00  0.00    +0.000 A 
ATOM      4  C   UNL     1       5.096   5.089  17.556  0.00  0.00    +0.000 A 
ATOM      5  C   UNL     1       4.441   6.305  17.817  0.00  0.00    +0.000 A 
ATOM      6  C   UNL     1       3.082   6.315  18.182  0.00  0.00    +0.000 A 
ATOM      7  C   UNL     1       2.354   5.124  18.277  0.00  0.00    +0.000 A 
BRANCH   2   9
ATOM      8  O   UNL     1       1.021   2.717  18.149  0.00  0.00    +0.000 OA
ATOM      9  N   UNL     1       2.259   2.653  18.105  0.00  0.00    +0.000 N 
ATOM     10  O   UNL     1       2.912   1.604  18.138  0.00  0.00    +0.000 OA
ENDBRANCH   2   9
BRANCH   6  11
ATOM     11  N   UNL     1       2.422   7.592  18.492  0.00  0.00    +0.000 N 
ATOM     12  O   UNL     1       2.315   8.421  17.578  0.00  0.00    +0.000 OA
ATOM     13  O   UNL     1       2.019   7.763  19.650  0.00  0.00    +0.000 OA
ENDBRANCH   6  11
ENDBRANCH   1   4
BRANCH   1  14
ATOM     14  S   UNL     1       7.612   5.541  18.635  0.00  0.00    +0.000 S 
BRANCH  14  15
ATOM     15  C   UNL     1       7.875   7.213  18.231  0.00  0.00    +0.000 A 
ATOM     16  N   UNL     1       7.466   7.784  17.116  0.00  0.00    +0.000 NA
ATOM     17  N   UNL     1       7.919   9.087  17.150  0.00  0.00    +0.000 NA
ATOM     18  C   UNL     1       8.582   9.225  18.281  0.00  0.00    +0.000 A 
ATOM     19  O   UNL     1       8.578   8.076  19.032  0.00  0.00    +0.000 OA
BRANCH  18  20
ATOM     20  C   UNL     1       9.345  10.363  18.784  0.00  0.00    +0.000 A 
ATOM     21  C   UNL     1       9.450  10.572  20.170  0.00  0.00    +0.000 A 
ATOM     22  C   UNL     1      10.124  11.686  20.679  0.00  0.00    +0.000 A 
ATOM     23  C   UNL     1      10.705  12.607  19.810  0.00  0.00    +0.000 A 
ATOM     24  C   UNL     1      10.624  12.407  18.433  0.00  0.00    +0.000 A 
ATOM     25  C   UNL     1       9.951  11.291  17.924  0.00  0.00    +0.000 A 
ENDBRANCH  18  20
ENDBRANCH  14  15
ENDBRANCH   1  14
TORSDOF 6
ENDMDL
MODEL 4
REMARK VINA RESULT:      -8.2      1.867      3.920
REMARK  Name = 
REMARK  6 active torsions:
REMARK  status: ('A' for Active; 'I' for Inactive)
REMARK    1  A    between atoms: N_2  and  C_4
REMARK    2  A    between atoms: C_6  and  C_7
REMARK    3  A    between atoms: C_7  and  S_8
REMARK    4  A    between atoms: S_8  and  C_9
REMARK    5  A    between atoms: C_12  and  C_13
REMARK    6  A    between atoms: C_21  and  N_22
REMARK                            x       y       z     vdW  Elec       q    Type
REMARK                         _______ _______ _______ _____ _____    ______ ____
ROOT
ATOM      1  C   UNL     1       3.025   4.663  18.214  0.00  0.00    +0.000 C 
ENDROOT
BRANCH   1   4
ATOM      2  C   UNL     1       6.731   5.624  18.261  0.00  0.00    +0.000 A 
ATOM      3  C   UNL     1       5.407   5.397  18.677  0.00  0.00    +0.000 A 
ATOM      4  C   UNL     1       4.436   4.969  17.755  0.00  0.00    +0.000 A 
ATOM      5  C   UNL     1       4.806   4.804  16.409  0.00  0.00    +0.000 A 
ATOM      6  C   UNL     1       6.135   5.032  16.005  0.00  0.00    +0.000 A 
ATOM      7  C   UNL     1       7.107   5.439  16.926  0.00  0.00    +0.000 A 
BRANCH   2   9
ATOM      8  O   UNL     1       8.494   6.974  18.938  0.00  0.00    +0.000 OA
ATOM      9  N   UNL     1       7.742   6.038  19.245  0.00  0.00    +0.000 N 
ATOM     10  O   UNL     1       7.775   5.432  20.323  0.00  0.00    +0.000 OA
ENDBRANCH   2   9
BRANCH   6  11
ATOM     11  N   UNL     1       6.515   4.814  14.601  0.00  0.00    +0.000 N 
ATOM     12  O   UNL     1       7.573   5.323  14.207  0.00  0.00    +0.000 OA
ATOM     13  O   UNL     1       5.751   4.141  13.897  0.00  0.00    +0.000 OA
ENDBRANCH   6  11
ENDBRANCH   1   4
BRANCH   1  14
ATOM     14  S   UNL     1       2.775   5.010  19.977  0.00  0.00    +0.000 S 
BRANCH  14  15
ATOM     15  C   UNL     1       2.150   6.630  19.857  0.00  0.00    +0.000 A 
ATOM     16  N   UNL     1       2.436   7.469  18.882  0.00  0.00    +0.000 NA
ATOM     17  N   UNL     1       1.797   8.655  19.181  0.00  0.00    +0.000 NA
ATOM     18  C   UNL     1       1.168   8.465  20.324  0.00  0.00    +0.000 A 
ATOM     19  O   UNL     1       1.332   7.189  20.804  0.00  0.00    +0.000 OA
BRANCH  18  20
ATOM     20  C   UNL     1       0.417   9.409  21.146  0.00  0.00    +0.000 A 
ATOM     21  C   UNL     1       0.078  10.668  20.624  0.00  0.00    +0.000 A 
ATOM     22  C   UNL     1      -0.589  11.614  21.408  0.00  0.00    +0.000 A 
ATOM     23  C   UNL     1      -0.928  11.314  22.725  0.00  0.00    +0.000 A 
ATOM     24  C   UNL     1      -0.613  10.065  23.254  0.00  0.00    +0.000 A 
ATOM     25  C   UNL     1       0.052   9.117  22.469  0.00  0.00    +0.000 A 
ENDBRANCH  18  20
ENDBRANCH  14  15
ENDBRANCH   1  14
TORSDOF 6
ENDMDL
MODEL 5
REMARK VINA RESULT:      -8.1      0.419      3.170
REMARK  Name = 
REMARK  6 active torsions:
REMARK  status: ('A' for Active; 'I' for Inactive)
REMARK    1  A    between atoms: N_2  and  C_4
REMARK    2  A    between atoms: C_6  and  C_7
REMARK    3  A    between atoms: C_7  and  S_8
REMARK    4  A    between atoms: S_8  and  C_9
REMARK    5  A    between atoms: C_12  and  C_13
REMARK    6  A    between atoms: C_21  and  N_22
REMARK                            x       y       z     vdW  Elec       q    Type
REMARK                         _______ _______ _______ _____ _____    ______ ____
ROOT
ATOM      1  C   UNL     1       3.235   3.720  17.394  0.00  0.00    +0.000 C 
ENDROOT
BRANCH   1   4
ATOM      2  C   UNL     1       6.698   5.274  17.895  0.00  0.00    +0.000 A 
ATOM      3  C   UNL     1       5.400   4.798  18.153  0.00  0.00    +0.000 A 
ATOM      4  C   UNL     1       4.608   4.293  17.107  0.00  0.00    +0.000 A 
ATOM      5  C   UNL     1       5.125   4.302  15.800  0.00  0.00    +0.000 A 
ATOM      6  C   UNL     1       6.426   4.780  15.554  0.00  0.00    +0.000 A 
ATOM      7  C   UNL     1       7.222   5.265  16.597  0.00  0.00    +0.000 A 
BRANCH   2   9
ATOM      8  O   UNL     1       7.492   5.135  20.072  0.00  0.00    +0.000 OA
ATOM      9  N   UNL     1       7.526   5.768  19.006  0.00  0.00    +0.000 N 
ATOM     10  O   UNL     1       8.210   6.778  18.807  0.00  0.00    +0.000 OA
ENDBRANCH   2   9
BRANCH   6  11
ATOM     11  N   UNL     1       6.967   4.745  14.187  0.00  0.00    +0.000 N 
ATOM     12  O   UNL     1       6.453   3.953  13.386  0.00  0.00    +0.000 OA
ATOM     13  O   UNL     1       7.907   5.505  13.923  0.00  0.00    +0.000 OA
ENDBRANCH   6  11
ENDBRANCH   1   4
BRANCH   1  14
ATOM     14  S   UNL     1       3.040   3.209  19.124  0.00  0.00    +0.000 S 
BRANCH  14  15
ATOM     15  C   UNL     1       2.433   4.699  19.788  0.00  0.00    +0.000 A 
ATOM     16  N   UNL     1       1.855   4.810  20.967  0.00  0.00    +0.000 NA
ATOM     17  N   UNL     1       1.468   6.128  21.095  0.00  0.00    +0.000 NA
ATOM     18  C   UNL     1       1.827   6.735  19.982  0.00  0.00    +0.000 A 
ATOM     19  O   UNL     1       2.467   5.890  19.110  0.00  0.00    +0.000 OA
BRANCH  18  20
ATOM     20  C   UNL     1       1.581   8.105  19.543  0.00  0.00    +0.000 A 
ATOM     21  C   UNL     1       2.013   8.516  18.271  0.00  0.00    +0.000 A 
ATOM     22  C   UNL     1       1.845   9.838  17.848  0.00  0.00    +0.000 A 
ATOM     23  C   UNL     1       1.241  10.769  18.691  0.00  0.00    +0.000 A 
ATOM     24  C   UNL     1       0.793  10.375  19.950  0.00  0.00    +0.000 A 
ATOM     25  C   UNL     1       0.959   9.051  20.372  0.00  0.00    +0.000 A 
ENDBRANCH  18  20
ENDBRANCH  14  15
ENDBRANCH   1  14
TORSDOF 6
ENDMDL
MODEL 6
REMARK VINA RESULT:      -8.0      1.437      2.049
REMARK  Name = 
REMARK  6 active torsions:
REMARK  status: ('A' for Active; 'I' for Inactive)
REMARK    1  A    between atoms: N_2  and  C_4
REMARK    2  A    between atoms: C_6  and  C_7
REMARK    3  A    between atoms: C_7  and  S_8
REMARK    4  A    between atoms: S_8  and  C_9
REMARK    5  A    between atoms: C_12  and  C_13
REMARK    6  A    between atoms: C_21  and  N_22
REMARK                            x       y       z     vdW  Elec       q    Type
REMARK                         _______ _______ _______ _____ _____    ______ ____
ROOT
ATOM      1  C   UNL     1       3.400   3.764  18.156  0.00  0.00    +0.000 C 
ENDROOT
BRANCH   1   4
ATOM      2  C   UNL     1       6.448   4.675  16.025  0.00  0.00    +0.000 A 
ATOM      3  C   UNL     1       5.190   4.175  16.410  0.00  0.00    +0.000 A 
ATOM      4  C   UNL     1       4.779   4.244  17.752  0.00  0.00    +0.000 A 
ATOM      5  C   UNL     1       5.658   4.792  18.703  0.00  0.00    +0.000 A 
ATOM      6  C   UNL     1       6.912   5.291  18.306  0.00  0.00    +0.000 A 
ATOM      7  C   UNL     1       7.315   5.240  16.967  0.00  0.00    +0.000 A 
BRANCH   2   9
ATOM      8  O   UNL     1       6.296   3.784  13.887  0.00  0.00    +0.000 OA
ATOM      9  N   UNL     1       6.848   4.626  14.611  0.00  0.00    +0.000 N 
ATOM     10  O   UNL     1       7.704   5.432  14.229  0.00  0.00    +0.000 OA
ENDBRANCH   2   9
BRANCH   6  11
ATOM     11  N   UNL     1       7.803   5.898  19.306  0.00  0.00    +0.000 N 
ATOM     12  O   UNL     1       8.469   6.883  18.960  0.00  0.00    +0.000 OA
ATOM     13  O   UNL     1       7.836   5.384  20.432  0.00  0.00    +0.000 OA
ENDBRANCH   6  11
ENDBRANCH   1   4
BRANCH   1  14
ATOM     14  S   UNL     1       2.987   4.194  19.870  0.00  0.00    +0.000 S 
BRANCH  14  15
ATOM     15  C   UNL     1       2.474   5.839  19.630  0.00  0.00    +0.000 A 
ATOM     16  N   UNL     1       2.802   6.579  18.589  0.00  0.00    +0.000 NA
ATOM     17  N   UNL     1       2.252   7.826  18.801  0.00  0.00    +0.000 NA
ATOM     18  C   UNL     1       1.629   7.770  19.962  0.00  0.00    +0.000 A 
ATOM     19  O   UNL     1       1.712   6.527  20.538  0.00  0.00    +0.000 OA
BRANCH  18  20
ATOM     20  C   UNL     1       0.958   8.825  20.714  0.00  0.00    +0.000 A 
ATOM     21  C   UNL     1       0.579  10.010  20.063  0.00  0.00    +0.000 A 
ATOM     22  C   UNL     1      -0.011  11.062  20.771  0.00  0.00    +0.000 A 
ATOM     23  C   UNL     1      -0.233  10.942  22.141  0.00  0.00    +0.000 A 
ATOM     24  C   UNL     1       0.122   9.767  22.800  0.00  0.00    +0.000 A 
ATOM     25  C   UNL     1       0.711   8.714  22.091  0.00  0.00    +0.000 A 
ENDBRANCH  18  20
ENDBRANCH  14  15
ENDBRANCH   1  14
TORSDOF 6
ENDMDL
MODEL 7
REMARK VINA RESULT:      -8.0      2.940      7.612
REMARK  Name = 
REMARK  6 active torsions:
REMARK  status: ('A' for Active; 'I' for Inactive)
REMARK    1  A    between atoms: N_2  and  C_4
REMARK    2  A    between atoms: C_6  and  C_7
REMARK    3  A    between atoms: C_7  and  S_8
REMARK    4  A    between atoms: S_8  and  C_9
REMARK    5  A    between atoms: C_12  and  C_13
REMARK    6  A    between atoms: C_21  and  N_22
REMARK                            x       y       z     vdW  Elec       q    Type
REMARK                         _______ _______ _______ _____ _____    ______ ____
ROOT
ATOM      1  C   UNL     1       5.458   4.041  17.903  0.00  0.00    +0.000 C 
ENDROOT
BRANCH   1   4
ATOM      2  C   UNL     1       2.726   6.336  19.291  0.00  0.00    +0.000 A 
ATOM      3  C   UNL     1       3.843   5.877  18.570  0.00  0.00    +0.000 A 
ATOM      4  C   UNL     1       4.295   4.555  18.726  0.00  0.00    +0.000 A 
ATOM      5  C   UNL     1       3.631   3.715  19.636  0.00  0.00    +0.000 A 
ATOM      6  C   UNL     1       2.513   4.185  20.350  0.00  0.00    +0.000 A 
ATOM      7  C   UNL     1       2.050   5.495  20.181  0.00  0.00    +0.000 A 
BRANCH   2   9
ATOM      8  O   UNL     1       2.316   8.182  17.945  0.00  0.00    +0.000 OA
ATOM      9  N   UNL     1       2.246   7.711  19.089  0.00  0.00    +0.000 N 
ATOM     10  O   UNL     1       1.795   8.311  20.072  0.00  0.00    +0.000 OA
ENDBRANCH   2   9
BRANCH   6  11
ATOM     11  N   UNL     1       1.804   3.280  21.268  0.00  0.00    +0.000 N 
ATOM     12  O   UNL     1       0.782   2.719  20.847  0.00  0.00    +0.000 OA
ATOM     13  O   UNL     1       2.267   3.139  22.407  0.00  0.00    +0.000 OA
ENDBRANCH   6  11
ENDBRANCH   1   4
BRANCH   1  14
ATOM     14  S   UNL     1       6.704   5.319  17.580  0.00  0.00    +0.000 S 
BRANCH  14  15
ATOM     15  C   UNL     1       6.926   5.068  15.872  0.00  0.00    +0.000 A 
ATOM     16  N   UNL     1       7.752   5.763  15.117  0.00  0.00    +0.000 NA
ATOM     17  N   UNL     1       7.592   5.301  13.826  0.00  0.00    +0.000 NA
ATOM     18  C   UNL     1       6.672   4.358  13.877  0.00  0.00    +0.000 A 
ATOM     19  O   UNL     1       6.217   4.141  15.153  0.00  0.00    +0.000 OA
BRANCH  18  20
ATOM     20  C   UNL     1       6.050   3.601  12.795  0.00  0.00    +0.000 A 
ATOM     21  C   UNL     1       4.739   3.909  12.395  0.00  0.00    +0.000 A 
ATOM     22  C   UNL     1       4.096   3.161  11.404  0.00  0.00    +0.000 A 
ATOM     23  C   UNL     1       4.756   2.096  10.796  0.00  0.00    +0.000 A 
ATOM     24  C   UNL     1       6.062   1.786  11.169  0.00  0.00    +0.000 A 
ATOM     25  C   UNL     1       6.706   2.535  12.160  0.00  0.00    +0.000 A 
ENDBRANCH  18  20
ENDBRANCH  14  15
ENDBRANCH   1  14
TORSDOF 6
ENDMDL
MODEL 8
REMARK VINA RESULT:      -8.0      4.043      6.887
REMARK  Name = 
REMARK  6 active torsions:
REMARK  status: ('A' for Active; 'I' for Inactive)
REMARK    1  A    between atoms: N_2  and  C_4
REMARK    2  A    between atoms: C_6  and  C_7
REMARK    3  A    between atoms: C_7  and  S_8
REMARK    4  A    between atoms: S_8  and  C_9
REMARK    5  A    between atoms: C_12  and  C_13
REMARK    6  A    between atoms: C_21  and  N_22
REMARK                            x       y       z     vdW  Elec       q    Type
REMARK                         _______ _______ _______ _____ _____    ______ ____
ROOT
ATOM      1  C   UNL     1       6.118   4.822  17.463  0.00  0.00    +0.000 C 
ENDROOT
BRANCH   1   4
ATOM      2  C   UNL     1       3.129   4.194  19.772  0.00  0.00    +0.000 A 
ATOM      3  C   UNL     1       4.295   3.986  19.013  0.00  0.00    +0.000 A 
ATOM      4  C   UNL     1       4.828   5.025  18.230  0.00  0.00    +0.000 A 
ATOM      5  C   UNL     1       4.157   6.260  18.196  0.00  0.00    +0.000 A 
ATOM      6  C   UNL     1       2.993   6.457  18.961  0.00  0.00    +0.000 A 
ATOM      7  C   UNL     1       2.472   5.430  19.755  0.00  0.00    +0.000 A 
BRANCH   2   9
ATOM      8  O   UNL     1       2.279   2.052  20.048  0.00  0.00    +0.000 OA
ATOM      9  N   UNL     1       2.605   3.108  20.611  0.00  0.00    +0.000 N 
ATOM     10  O   UNL     1       2.529   3.309  21.829  0.00  0.00    +0.000 OA
ENDBRANCH   2   9
BRANCH   6  11
ATOM     11  N   UNL     1       2.327   7.768  18.946  0.00  0.00    +0.000 N 
ATOM     12  O   UNL     1       2.448   8.463  17.928  0.00  0.00    +0.000 OA
ATOM     13  O   UNL     1       1.690   8.100  19.955  0.00  0.00    +0.000 OA
ENDBRANCH   6  11
ENDBRANCH   1   4
BRANCH   1  14
ATOM     14  S   UNL     1       7.588   5.184  18.463  0.00  0.00    +0.000 S 
BRANCH  14  15
ATOM     15  C   UNL     1       7.737   6.887  18.133  0.00  0.00    +0.000 A 
ATOM     16  N   UNL     1       7.181   7.500  17.108  0.00  0.00    +0.000 NA
ATOM     17  N   UNL     1       7.583   8.819  17.170  0.00  0.00    +0.000 NA
ATOM     18  C   UNL     1       8.366   8.923  18.225  0.00  0.00    +0.000 A 
ATOM     19  O   UNL     1       8.494   7.735  18.900  0.00  0.00    +0.000 OA
BRANCH  18  20
ATOM     20  C   UNL     1       9.138  10.065  18.706  0.00  0.00    +0.000 A 
ATOM     21  C   UNL     1       9.809  10.888  17.787  0.00  0.00    +0.000 A 
ATOM     22  C   UNL     1      10.604  11.952  18.223  0.00  0.00    +0.000 A 
ATOM     23  C   UNL     1      10.739  12.210  19.585  0.00  0.00    +0.000 A 
ATOM     24  C   UNL     1      10.068  11.413  20.511  0.00  0.00    +0.000 A 
ATOM     25  C   UNL     1       9.271  10.349  20.074  0.00  0.00    +0.000 A 
ENDBRANCH  18  20
ENDBRANCH  14  15
ENDBRANCH   1  14
TORSDOF 6
ENDMDL
MODEL 9
REMARK VINA RESULT:      -7.9      0.869      1.333
REMARK  Name = 
REMARK  6 active torsions:
REMARK  status: ('A' for Active; 'I' for Inactive)
REMARK    1  A    between atoms: N_2  and  C_4
REMARK    2  A    between atoms: C_6  and  C_7
REMARK    3  A    between atoms: C_7  and  S_8
REMARK    4  A    between atoms: S_8  and  C_9
REMARK    5  A    between atoms: C_12  and  C_13
REMARK    6  A    between atoms: C_21  and  N_22
REMARK                            x       y       z     vdW  Elec       q    Type
REMARK                         _______ _______ _______ _____ _____    ______ ____
ROOT
ATOM      1  C   UNL     1       3.870   2.893  18.035  0.00  0.00    +0.000 C 
ENDROOT
BRANCH   1   4
ATOM      2  C   UNL     1       6.577   4.558  15.899  0.00  0.00    +0.000 A 
ATOM      3  C   UNL     1       5.476   3.769  16.281  0.00  0.00    +0.000 A 
ATOM      4  C   UNL     1       5.093   3.691  17.631  0.00  0.00    +0.000 A 
ATOM      5  C   UNL     1       5.846   4.389  18.591  0.00  0.00    +0.000 A 
ATOM      6  C   UNL     1       6.943   5.177  18.197  0.00  0.00    +0.000 A 
ATOM      7  C   UNL     1       7.315   5.270  16.851  0.00  0.00    +0.000 A 
BRANCH   2   9
ATOM      8  O   UNL     1       7.859   5.434  14.174  0.00  0.00    +0.000 OA
ATOM      9  N   UNL     1       6.943   4.655  14.479  0.00  0.00    +0.000 N 
ATOM     10  O   UNL     1       6.322   3.948  13.677  0.00  0.00    +0.000 OA
ENDBRANCH   2   9
BRANCH   6  11
ATOM     11  N   UNL     1       7.696   5.934  19.209  0.00  0.00    +0.000 N 
ATOM     12  O   UNL     1       7.833   5.419  20.327  0.00  0.00    +0.000 OA
ATOM     13  O   UNL     1       8.141   7.042  18.883  0.00  0.00    +0.000 OA
ENDBRANCH   6  11
ENDBRANCH   1   4
BRANCH   1  14
ATOM     14  S   UNL     1       2.318   3.718  17.583  0.00  0.00    +0.000 S 
BRANCH  14  15
ATOM     15  C   UNL     1       2.214   4.856  18.896  0.00  0.00    +0.000 A 
ATOM     16  N   UNL     1       2.315   4.536  20.170  0.00  0.00    +0.000 NA
ATOM     17  N   UNL     1       2.121   5.700  20.887  0.00  0.00    +0.000 NA
ATOM     18  C   UNL     1       1.906   6.654  20.002  0.00  0.00    +0.000 A 
ATOM     19  O   UNL     1       1.972   6.192  18.711  0.00  0.00    +0.000 OA
BRANCH  18  20
ATOM     20  C   UNL     1       1.553   8.055  20.206  0.00  0.00    +0.000 A 
ATOM     21  C   UNL     1       1.254   8.515  21.499  0.00  0.00    +0.000 A 
ATOM     22  C   UNL     1       0.854   9.838  21.716  0.00  0.00    +0.000 A 
ATOM     23  C   UNL     1       0.749  10.719  20.642  0.00  0.00    +0.000 A 
ATOM     24  C   UNL     1       1.057  10.284  19.355  0.00  0.00    +0.000 A 
ATOM     25  C   UNL     1       1.459   8.961  19.139  0.00  0.00    +0.000 A 
ENDBRANCH  18  20
ENDBRANCH  14  15
ENDBRANCH   1  14
TORSDOF 6
ENDMDL
