MODEL 1
REMARK VINA RESULT:      -8.9      0.000      0.000
REMARK  Name = 
REMARK  7 active torsions:
REMARK  status: ('A' for Active; 'I' for Inactive)
REMARK    1  A    between atoms: C_1  and  C_2
REMARK    2  A    between atoms: C_5  and  N_6
REMARK    3  A    between atoms: C_7  and  C_9
REMARK    4  A    between atoms: C_9  and  N_10
REMARK    5  A    between atoms: C_12  and  C_13
REMARK    6  A    between atoms: C_13  and  C_15
REMARK    7  A    between atoms: C_27  and  C_28
REMARK                            x       y       z     vdW  Elec       q    Type
REMARK                         _______ _______ _______ _____ _____    ______ ____
ROOT
ATOM      1  N   UNL     1       6.778   5.951  18.245  0.00  0.00    +0.000 N 
ATOM      2  C   UNL     1       5.604   5.882  18.957  0.00  0.00    +0.000 A 
ATOM      3  C   UNL     1       4.621   5.338  18.147  0.00  0.00    +0.000 A 
ATOM      4  C   UNL     1       5.267   5.004  16.907  0.00  0.00    +0.000 A 
ATOM      5  C   UNL     1       4.821   4.419  15.701  0.00  0.00    +0.000 A 
ATOM      6  C   UNL     1       5.706   4.260  14.629  0.00  0.00    +0.000 A 
ATOM      7  C   UNL     1       7.025   4.684  14.734  0.00  0.00    +0.000 A 
ATOM      8  C   UNL     1       7.498   5.270  15.912  0.00  0.00    +0.000 A 
ATOM      9  C   UNL     1       6.603   5.414  16.987  0.00  0.00    +0.000 A 
ENDROOT
BRANCH   3  10
ATOM     10  C   UNL     1       3.196   5.142  18.485  0.00  0.00    +0.000 C 
ATOM     11  O   UNL     1       2.491   6.109  18.779  0.00  0.00    +0.000 OA
BRANCH  10  12
ATOM     12  C   UNL     1       2.606   3.719  18.467  0.00  0.00    +0.000 C 
ATOM     13  C   UNL     1       3.489   2.713  19.218  0.00  0.00    +0.000 C 
ATOM     14  C   UNL     1       3.338   2.764  20.737  0.00  0.00    +0.000 C 
ATOM     15  C   UNL     1       1.886   2.666  21.188  0.00  0.00    +0.000 C 
ATOM     16  C   UNL     1       0.994   3.682  20.487  0.00  0.00    +0.000 C 
ATOM     17  C   UNL     1       1.150   3.663  18.966  0.00  0.00    +0.000 C 
ENDBRANCH  10  12
ENDBRANCH   3  10
BRANCH   1  18
ATOM     18  C   UNL     1       7.982   6.628  18.710  0.00  0.00    +0.000 C 
BRANCH  18  20
ATOM     19  N   UNL     1       8.988   8.864  19.129  0.00  0.00    +0.000 N 
ATOM     20  C   UNL     1       8.162   8.089  18.336  0.00  0.00    +0.000 C 
ATOM     21  O   UNL     1       7.571   8.489  17.328  0.00  0.00    +0.000 OA
ATOM     22  H   UNL     1       9.532   8.383  19.833  0.00  0.00    +0.000 HD
BRANCH  19  27
ATOM     23  C   UNL     1       9.889  14.532  18.576  0.00  0.00    +0.000 C 
ATOM     24  C   UNL     1       9.648  13.059  18.716  0.00  0.00    +0.000 A 
ATOM     25  C   UNL     1       9.716  12.216  17.612  0.00  0.00    +0.000 A 
ATOM     26  C   UNL     1       9.500  10.844  17.757  0.00  0.00    +0.000 A 
ATOM     27  C   UNL     1       9.227  10.262  19.002  0.00  0.00    +0.000 A 
ATOM     28  C   UNL     1       9.158  11.104  20.128  0.00  0.00    +0.000 A 
ATOM     29  C   UNL     1       8.922  10.638  21.542  0.00  0.00    +0.000 C 
ATOM     30  C   UNL     1       9.371  12.495  19.967  0.00  0.00    +0.000 A 
ENDBRANCH  19  27
ENDBRANCH  18  20
ENDBRANCH   1  18
TORSDOF 5
ENDMDL
MODEL 2
REMARK VINA RESULT:      -8.8      0.603      1.163
REMARK  Name = 
REMARK  7 active torsions:
REMARK  status: ('A' for Active; 'I' for Inactive)
REMARK    1  A    between atoms: C_1  and  C_2
REMARK    2  A    between atoms: C_5  and  N_6
REMARK    3  A    between atoms: C_7  and  C_9
REMARK    4  A    between atoms: C_9  and  N_10
REMARK    5  A    between atoms: C_12  and  C_13
REMARK    6  A    between atoms: C_13  and  C_15
REMARK    7  A    between atoms: C_27  and  C_28
REMARK                            x       y       z     vdW  Elec       q    Type
REMARK                         _______ _______ _______ _____ _____    ______ ____
ROOT
ATOM      1  N   UNL     1       6.998   5.960  18.412  0.00  0.00    +0.000 N 
ATOM      2  C   UNL     1       5.932   5.829  19.270  0.00  0.00    +0.000 A 
ATOM      3  C   UNL     1       4.882   5.231  18.592  0.00  0.00    +0.000 A 
ATOM      4  C   UNL     1       5.379   4.932  17.275  0.00  0.00    +0.000 A 
ATOM      5  C   UNL     1       4.812   4.322  16.134  0.00  0.00    +0.000 A 
ATOM      6  C   UNL     1       5.557   4.210  14.955  0.00  0.00    +0.000 A 
ATOM      7  C   UNL     1       6.854   4.705  14.891  0.00  0.00    +0.000 A 
ATOM      8  C   UNL     1       7.444   5.317  16.002  0.00  0.00    +0.000 A 
ATOM      9  C   UNL     1       6.691   5.414  17.184  0.00  0.00    +0.000 A 
ENDROOT
BRANCH   3  10
ATOM     10  C   UNL     1       3.526   4.959  19.111  0.00  0.00    +0.000 C 
ATOM     11  O   UNL     1       2.625   5.782  18.949  0.00  0.00    +0.000 OA
BRANCH  10  12
ATOM     12  C   UNL     1       3.256   3.637  19.855  0.00  0.00    +0.000 C 
ATOM     13  C   UNL     1       1.986   3.702  20.716  0.00  0.00    +0.000 C 
ATOM     14  C   UNL     1       0.690   3.532  19.926  0.00  0.00    +0.000 C 
ATOM     15  C   UNL     1       0.695   2.289  19.046  0.00  0.00    +0.000 C 
ATOM     16  C   UNL     1       1.926   2.220  18.152  0.00  0.00    +0.000 C 
ATOM     17  C   UNL     1       3.233   2.413  18.921  0.00  0.00    +0.000 C 
ENDBRANCH  10  12
ENDBRANCH   3  10
BRANCH   1  18
ATOM     18  C   UNL     1       8.214   6.702  18.721  0.00  0.00    +0.000 C 
BRANCH  18  20
ATOM     19  N   UNL     1       9.062   9.008  19.115  0.00  0.00    +0.000 N 
ATOM     20  C   UNL     1       8.255   8.176  18.359  0.00  0.00    +0.000 C 
ATOM     21  O   UNL     1       7.576   8.538  17.393  0.00  0.00    +0.000 OA
ATOM     22  H   UNL     1       9.682   8.565  19.778  0.00  0.00    +0.000 HD
BRANCH  19  27
ATOM     23  C   UNL     1       9.474  14.735  18.596  0.00  0.00    +0.000 C 
ATOM     24  C   UNL     1       9.360  13.246  18.727  0.00  0.00    +0.000 A 
ATOM     25  C   UNL     1       9.416  12.424  17.607  0.00  0.00    +0.000 A 
ATOM     26  C   UNL     1       9.320  11.037  17.743  0.00  0.00    +0.000 A 
ATOM     27  C   UNL     1       9.181  10.421  18.995  0.00  0.00    +0.000 A 
ATOM     28  C   UNL     1       9.125  11.243  20.136  0.00  0.00    +0.000 A 
ATOM     29  C   UNL     1       9.026  10.743  21.556  0.00  0.00    +0.000 C 
ATOM     30  C   UNL     1       9.216  12.647  19.984  0.00  0.00    +0.000 A 
ENDBRANCH  19  27
ENDBRANCH  18  20
ENDBRANCH   1  18
TORSDOF 5
ENDMDL
MODEL 3
REMARK VINA RESULT:      -8.8      4.628      6.973
REMARK  Name = 
REMARK  7 active torsions:
REMARK  status: ('A' for Active; 'I' for Inactive)
REMARK    1  A    between atoms: C_1  and  C_2
REMARK    2  A    between atoms: C_5  and  N_6
REMARK    3  A    between atoms: C_7  and  C_9
REMARK    4  A    between atoms: C_9  and  N_10
REMARK    5  A    between atoms: C_12  and  C_13
REMARK    6  A    between atoms: C_13  and  C_15
REMARK    7  A    between atoms: C_27  and  C_28
REMARK                            x       y       z     vdW  Elec       q    Type
REMARK                         _______ _______ _______ _____ _____    ______ ____
ROOT
ATOM      1  N   UNL     1       2.011   6.217  19.895  0.00  0.00    +0.000 N 
ATOM      2  C   UNL     1       2.945   6.817  19.084  0.00  0.00    +0.000 A 
ATOM      3  C   UNL     1       3.382   5.897  18.145  0.00  0.00    +0.000 A 
ATOM      4  C   UNL     1       2.613   4.703  18.372  0.00  0.00    +0.000 A 
ATOM      5  C   UNL     1       2.576   3.434  17.752  0.00  0.00    +0.000 A 
ATOM      6  C   UNL     1       1.726   2.438  18.244  0.00  0.00    +0.000 A 
ATOM      7  C   UNL     1       0.920   2.681  19.349  0.00  0.00    +0.000 A 
ATOM      8  C   UNL     1       0.934   3.925  19.987  0.00  0.00    +0.000 A 
ATOM      9  C   UNL     1       1.783   4.923  19.478  0.00  0.00    +0.000 A 
ENDROOT
BRANCH   3  10
ATOM     10  C   UNL     1       4.427   6.098  17.120  0.00  0.00    +0.000 C 
ATOM     11  O   UNL     1       4.304   6.987  16.277  0.00  0.00    +0.000 OA
BRANCH  10  12
ATOM     12  C   UNL     1       5.668   5.184  17.121  0.00  0.00    +0.000 C 
ATOM     13  C   UNL     1       6.908   5.886  16.551  0.00  0.00    +0.000 C 
ATOM     14  C   UNL     1       7.595   6.831  17.534  0.00  0.00    +0.000 C 
ATOM     15  C   UNL     1       7.903   6.169  18.870  0.00  0.00    +0.000 C 
ATOM     16  C   UNL     1       6.678   5.498  19.478  0.00  0.00    +0.000 C 
ATOM     17  C   UNL     1       5.962   4.567  18.500  0.00  0.00    +0.000 C 
ENDBRANCH  10  12
ENDBRANCH   3  10
BRANCH   1  18
ATOM     18  C   UNL     1       1.462   6.820  21.102  0.00  0.00    +0.000 C 
BRANCH  18  20
ATOM     19  N   UNL     1       0.513   8.888  20.095  0.00  0.00    +0.000 N 
ATOM     20  C   UNL     1       1.263   8.326  21.113  0.00  0.00    +0.000 C 
ATOM     21  O   UNL     1       1.769   8.954  22.047  0.00  0.00    +0.000 OA
ATOM     22  H   UNL     1       0.027   8.252  19.479  0.00  0.00    +0.000 HD
BRANCH  19  27
ATOM     23  C   UNL     1      -0.420  14.518  19.276  0.00  0.00    +0.000 C 
ATOM     24  C   UNL     1      -0.175  13.056  19.497  0.00  0.00    +0.000 A 
ATOM     25  C   UNL     1      -0.911  12.342  20.436  0.00  0.00    +0.000 A 
ATOM     26  C   UNL     1      -0.680  10.977  20.623  0.00  0.00    +0.000 A 
ATOM     27  C   UNL     1       0.275  10.274  19.876  0.00  0.00    +0.000 A 
ATOM     28  C   UNL     1       1.025  10.986  18.921  0.00  0.00    +0.000 A 
ATOM     29  C   UNL     1       2.054  10.376  18.002  0.00  0.00    +0.000 C 
ATOM     30  C   UNL     1       0.787  12.371  18.745  0.00  0.00    +0.000 A 
ENDBRANCH  19  27
ENDBRANCH  18  20
ENDBRANCH   1  18
TORSDOF 5
ENDMDL
MODEL 4
REMARK VINA RESULT:      -8.6      1.242      1.561
REMARK  Name = 
REMARK  7 active torsions:
REMARK  status: ('A' for Active; 'I' for Inactive)
REMARK    1  A    between atoms: C_1  and  C_2
REMARK    2  A    between atoms: C_5  and  N_6
REMARK    3  A    between atoms: C_7  and  C_9
REMARK    4  A    between atoms: C_9  and  N_10
REMARK    5  A    between atoms: C_12  and  C_13
REMARK    6  A    between atoms: C_13  and  C_15
REMARK    7  A    between atoms: C_27  and  C_28
REMARK                            x       y       z     vdW  Elec       q    Type
REMARK                         _______ _______ _______ _____ _____    ______ ____
ROOT
ATOM      1  N   UNL     1       7.233   5.902  18.330  0.00  0.00    +0.000 N 
ATOM      2  C   UNL     1       6.357   5.487  19.305  0.00  0.00    +0.000 A 
ATOM      3  C   UNL     1       5.370   4.711  18.719  0.00  0.00    +0.000 A 
ATOM      4  C   UNL     1       5.719   4.607  17.328  0.00  0.00    +0.000 A 
ATOM      5  C   UNL     1       5.132   3.954  16.221  0.00  0.00    +0.000 A 
ATOM      6  C   UNL     1       5.702   4.081  14.950  0.00  0.00    +0.000 A 
ATOM      7  C   UNL     1       6.840   4.855  14.760  0.00  0.00    +0.000 A 
ATOM      8  C   UNL     1       7.444   5.516  15.834  0.00  0.00    +0.000 A 
ATOM      9  C   UNL     1       6.870   5.374  17.109  0.00  0.00    +0.000 A 
ENDROOT
BRANCH   3  10
ATOM     10  C   UNL     1       4.194   4.114  19.386  0.00  0.00    +0.000 C 
ATOM     11  O   UNL     1       4.299   3.043  19.984  0.00  0.00    +0.000 OA
BRANCH  10  12
ATOM     12  C   UNL     1       2.840   4.846  19.322  0.00  0.00    +0.000 C 
ATOM     13  C   UNL     1       2.001   4.416  18.111  0.00  0.00    +0.000 C 
ATOM     14  C   UNL     1       1.280   3.082  18.295  0.00  0.00    +0.000 C 
ATOM     15  C   UNL     1       0.461   3.028  19.578  0.00  0.00    +0.000 C 
ATOM     16  C   UNL     1       1.281   3.413  20.803  0.00  0.00    +0.000 C 
ATOM     17  C   UNL     1       2.031   4.733  20.627  0.00  0.00    +0.000 C 
ENDBRANCH  10  12
ENDBRANCH   3  10
BRANCH   1  18
ATOM     18  C   UNL     1       8.296   6.876  18.541  0.00  0.00    +0.000 C 
BRANCH  18  20
ATOM     19  N   UNL     1       8.826   9.305  18.647  0.00  0.00    +0.000 N 
ATOM     20  C   UNL     1       8.044   8.306  18.095  0.00  0.00    +0.000 C 
ATOM     21  O   UNL     1       7.164   8.485  17.247  0.00  0.00    +0.000 OA
ATOM     22  H   UNL     1       9.611   9.012  19.213  0.00  0.00    +0.000 HD
BRANCH  19  27
ATOM     23  C   UNL     1       8.247  14.977  17.789  0.00  0.00    +0.000 C 
ATOM     24  C   UNL     1       8.390  13.501  18.015  0.00  0.00    +0.000 A 
ATOM     25  C   UNL     1       7.689  12.588  17.234  0.00  0.00    +0.000 A 
ATOM     26  C   UNL     1       7.840  11.216  17.447  0.00  0.00    +0.000 A 
ATOM     27  C   UNL     1       8.701  10.706  18.429  0.00  0.00    +0.000 A 
ATOM     28  C   UNL     1       9.417  11.620  19.223  0.00  0.00    +0.000 A 
ATOM     29  C   UNL     1      10.418  11.242  20.286  0.00  0.00    +0.000 C 
ATOM     30  C   UNL     1       9.251  13.009  19.003  0.00  0.00    +0.000 A 
ENDBRANCH  19  27
ENDBRANCH  18  20
ENDBRANCH   1  18
TORSDOF 5
ENDMDL
MODEL 5
REMARK VINA RESULT:      -8.6      4.533      6.871
REMARK  Name = 
REMARK  7 active torsions:
REMARK  status: ('A' for Active; 'I' for Inactive)
REMARK    1  A    between atoms: C_1  and  C_2
REMARK    2  A    between atoms: C_5  and  N_6
REMARK    3  A    between atoms: C_7  and  C_9
REMARK    4  A    between atoms: C_9  and  N_10
REMARK    5  A    between atoms: C_12  and  C_13
REMARK    6  A    between atoms: C_13  and  C_15
REMARK    7  A    between atoms: C_27  and  C_28
REMARK                            x       y       z     vdW  Elec       q    Type
REMARK                         _______ _______ _______ _____ _____    ______ ____
ROOT
ATOM      1  N   UNL     1       1.999   5.982  20.290  0.00  0.00    +0.000 N 
ATOM      2  C   UNL     1       3.239   6.482  19.970  0.00  0.00    +0.000 A 
ATOM      3  C   UNL     1       4.002   5.468  19.413  0.00  0.00    +0.000 A 
ATOM      4  C   UNL     1       3.140   4.319  19.339  0.00  0.00    +0.000 A 
ATOM      5  C   UNL     1       3.313   2.998  18.866  0.00  0.00    +0.000 A 
ATOM      6  C   UNL     1       2.270   2.073  18.973  0.00  0.00    +0.000 A 
ATOM      7  C   UNL     1       1.060   2.437  19.551  0.00  0.00    +0.000 A 
ATOM      8  C   UNL     1       0.856   3.735  20.030  0.00  0.00    +0.000 A 
ATOM      9  C   UNL     1       1.908   4.660  19.909  0.00  0.00    +0.000 A 
ENDROOT
BRANCH   3  10
ATOM     10  C   UNL     1       5.414   5.547  18.986  0.00  0.00    +0.000 C 
ATOM     11  O   UNL     1       6.304   5.093  19.705  0.00  0.00    +0.000 OA
BRANCH  10  12
ATOM     12  C   UNL     1       5.756   6.203  17.635  0.00  0.00    +0.000 C 
ATOM     13  C   UNL     1       7.205   5.932  17.206  0.00  0.00    +0.000 C 
ATOM     14  C   UNL     1       7.426   4.548  16.599  0.00  0.00    +0.000 C 
ATOM     15  C   UNL     1       6.451   4.238  15.471  0.00  0.00    +0.000 C 
ATOM     16  C   UNL     1       5.002   4.460  15.882  0.00  0.00    +0.000 C 
ATOM     17  C   UNL     1       4.766   5.831  16.515  0.00  0.00    +0.000 C 
ENDBRANCH  10  12
ENDBRANCH   3  10
BRANCH   1  18
ATOM     18  C   UNL     1       0.992   6.708  21.052  0.00  0.00    +0.000 C 
BRANCH  18  20
ATOM     19  N   UNL     1       0.444   8.921  20.056  0.00  0.00    +0.000 N 
ATOM     20  C   UNL     1       1.076   8.225  21.070  0.00  0.00    +0.000 C 
ATOM     21  O   UNL     1       1.690   8.744  22.008  0.00  0.00    +0.000 OA
ATOM     22  H   UNL     1      -0.151   8.389  19.436  0.00  0.00    +0.000 HD
BRANCH  19  27
ATOM     23  C   UNL     1       0.577  14.631  19.263  0.00  0.00    +0.000 C 
ATOM     24  C   UNL     1       0.546  13.147  19.476  0.00  0.00    +0.000 A 
ATOM     25  C   UNL     1      -0.267  12.583  20.454  0.00  0.00    +0.000 A 
ATOM     26  C   UNL     1      -0.295  11.198  20.635  0.00  0.00    +0.000 A 
ATOM     27  C   UNL     1       0.468  10.328  19.844  0.00  0.00    +0.000 A 
ATOM     28  C   UNL     1       1.293  10.888  18.850  0.00  0.00    +0.000 A 
ATOM     29  C   UNL     1       2.138  10.096  17.883  0.00  0.00    +0.000 C 
ATOM     30  C   UNL     1       1.319  12.293  18.680  0.00  0.00    +0.000 A 
ENDBRANCH  19  27
ENDBRANCH  18  20
ENDBRANCH   1  18
TORSDOF 5
ENDMDL
MODEL 6
REMARK VINA RESULT:      -8.6      0.739      1.334
REMARK  Name = 
REMARK  7 active torsions:
REMARK  status: ('A' for Active; 'I' for Inactive)
REMARK    1  A    between atoms: C_1  and  C_2
REMARK    2  A    between atoms: C_5  and  N_6
REMARK    3  A    between atoms: C_7  and  C_9
REMARK    4  A    between atoms: C_9  and  N_10
REMARK    5  A    between atoms: C_12  and  C_13
REMARK    6  A    between atoms: C_13  and  C_15
REMARK    7  A    between atoms: C_27  and  C_28
REMARK                            x       y       z     vdW  Elec       q    Type
REMARK                         _______ _______ _______ _____ _____    ______ ____
ROOT
ATOM      1  N   UNL     1       6.694   6.120  18.192  0.00  0.00    +0.000 N 
ATOM      2  C   UNL     1       5.496   6.218  18.860  0.00  0.00    +0.000 A 
ATOM      3  C   UNL     1       4.493   5.695  18.061  0.00  0.00    +0.000 A 
ATOM      4  C   UNL     1       5.145   5.199  16.879  0.00  0.00    +0.000 A 
ATOM      5  C   UNL     1       4.686   4.552  15.710  0.00  0.00    +0.000 A 
ATOM      6  C   UNL     1       5.585   4.223  14.691  0.00  0.00    +0.000 A 
ATOM      7  C   UNL     1       6.934   4.535  14.812  0.00  0.00    +0.000 A 
ATOM      8  C   UNL     1       7.421   5.177  15.955  0.00  0.00    +0.000 A 
ATOM      9  C   UNL     1       6.510   5.494  16.978  0.00  0.00    +0.000 A 
ENDROOT
BRANCH   3  10
ATOM     10  C   UNL     1       3.046   5.657  18.358  0.00  0.00    +0.000 C 
ATOM     11  O   UNL     1       2.302   6.538  17.924  0.00  0.00    +0.000 OA
BRANCH  10  12
ATOM     12  C   UNL     1       2.482   4.506  19.213  0.00  0.00    +0.000 C 
ATOM     13  C   UNL     1       1.572   3.572  18.405  0.00  0.00    +0.000 C 
ATOM     14  C   UNL     1       2.326   2.567  17.536  0.00  0.00    +0.000 C 
ATOM     15  C   UNL     1       3.369   1.779  18.317  0.00  0.00    +0.000 C 
ATOM     16  C   UNL     1       4.312   2.685  19.098  0.00  0.00    +0.000 C 
ATOM     17  C   UNL     1       3.575   3.715  19.955  0.00  0.00    +0.000 C 
ENDBRANCH  10  12
ENDBRANCH   3  10
BRANCH   1  18
ATOM     18  C   UNL     1       7.939   6.725  18.646  0.00  0.00    +0.000 C 
BRANCH  18  20
ATOM     19  N   UNL     1       8.998   8.924  19.131  0.00  0.00    +0.000 N 
ATOM     20  C   UNL     1       8.190   8.180  18.290  0.00  0.00    +0.000 C 
ATOM     21  O   UNL     1       7.671   8.603  17.253  0.00  0.00    +0.000 OA
ATOM     22  H   UNL     1       9.484   8.422  19.861  0.00  0.00    +0.000 HD
BRANCH  19  27
ATOM     23  C   UNL     1      10.124  14.558  18.658  0.00  0.00    +0.000 C 
ATOM     24  C   UNL     1       9.824  13.094  18.777  0.00  0.00    +0.000 A 
ATOM     25  C   UNL     1       9.901  12.257  17.668  0.00  0.00    +0.000 A 
ATOM     26  C   UNL     1       9.630  10.893  17.794  0.00  0.00    +0.000 A 
ATOM     27  C   UNL     1       9.291  10.312  19.024  0.00  0.00    +0.000 A 
ATOM     28  C   UNL     1       9.213  11.149  20.154  0.00  0.00    +0.000 A 
ATOM     29  C   UNL     1       8.911  10.681  21.555  0.00  0.00    +0.000 C 
ATOM     30  C   UNL     1       9.483  12.532  20.012  0.00  0.00    +0.000 A 
ENDBRANCH  19  27
ENDBRANCH  18  20
ENDBRANCH   1  18
TORSDOF 5
ENDMDL
MODEL 7
REMARK VINA RESULT:      -8.5      4.600      6.460
REMARK  Name = 
REMARK  7 active torsions:
REMARK  status: ('A' for Active; 'I' for Inactive)
REMARK    1  A    between atoms: C_1  and  C_2
REMARK    2  A    between atoms: C_5  and  N_6
REMARK    3  A    between atoms: C_7  and  C_9
REMARK    4  A    between atoms: C_9  and  N_10
REMARK    5  A    between atoms: C_12  and  C_13
REMARK    6  A    between atoms: C_13  and  C_15
REMARK    7  A    between atoms: C_27  and  C_28
REMARK                            x       y       z     vdW  Elec       q    Type
REMARK                         _______ _______ _______ _____ _____    ______ ____
ROOT
ATOM      1  N   UNL     1       3.556   7.033  17.610  0.00  0.00    +0.000 N 
ATOM      2  C   UNL     1       2.683   5.979  17.733  0.00  0.00    +0.000 A 
ATOM      3  C   UNL     1       3.392   4.794  17.621  0.00  0.00    +0.000 A 
ATOM      4  C   UNL     1       4.774   5.169  17.490  0.00  0.00    +0.000 A 
ATOM      5  C   UNL     1       5.975   4.438  17.352  0.00  0.00    +0.000 A 
ATOM      6  C   UNL     1       7.192   5.110  17.198  0.00  0.00    +0.000 A 
ATOM      7  C   UNL     1       7.232   6.499  17.169  0.00  0.00    +0.000 A 
ATOM      8  C   UNL     1       6.062   7.253  17.300  0.00  0.00    +0.000 A 
ATOM      9  C   UNL     1       4.845   6.568  17.465  0.00  0.00    +0.000 A 
ENDROOT
BRANCH   3  10
ATOM     10  C   UNL     1       2.842   3.423  17.630  0.00  0.00    +0.000 C 
ATOM     11  O   UNL     1       2.258   2.983  16.639  0.00  0.00    +0.000 OA
BRANCH  10  12
ATOM     12  C   UNL     1       3.008   2.553  18.892  0.00  0.00    +0.000 C 
ATOM     13  C   UNL     1       3.647   3.327  20.053  0.00  0.00    +0.000 C 
ATOM     14  C   UNL     1       2.676   4.240  20.800  0.00  0.00    +0.000 C 
ATOM     15  C   UNL     1       1.414   3.515  21.250  0.00  0.00    +0.000 C 
ATOM     16  C   UNL     1       0.738   2.770  20.107  0.00  0.00    +0.000 C 
ATOM     17  C   UNL     1       1.700   1.870  19.330  0.00  0.00    +0.000 C 
ENDBRANCH  10  12
ENDBRANCH   3  10
BRANCH   1  18
ATOM     18  C   UNL     1       3.149   8.428  17.499  0.00  0.00    +0.000 C 
BRANCH  18  20
ATOM     19  N   UNL     1       1.291  10.007  17.992  0.00  0.00    +0.000 N 
ATOM     20  C   UNL     1       2.028   8.912  18.403  0.00  0.00    +0.000 C 
ATOM     21  O   UNL     1       1.832   8.279  19.445  0.00  0.00    +0.000 OA
ATOM     22  H   UNL     1       1.450  10.341  17.052  0.00  0.00    +0.000 HD
BRANCH  19  27
ATOM     23  C   UNL     1      -2.858  12.734  20.924  0.00  0.00    +0.000 C 
ATOM     24  C   UNL     1      -1.776  12.032  20.160  0.00  0.00    +0.000 A 
ATOM     25  C   UNL     1      -0.453  12.083  20.585  0.00  0.00    +0.000 A 
ATOM     26  C   UNL     1       0.544  11.416  19.870  0.00  0.00    +0.000 A 
ATOM     27  C   UNL     1       0.259  10.664  18.721  0.00  0.00    +0.000 A 
ATOM     28  C   UNL     1      -1.077  10.603  18.283  0.00  0.00    +0.000 A 
ATOM     29  C   UNL     1      -1.561   9.803  17.099  0.00  0.00    +0.000 C 
ATOM     30  C   UNL     1      -2.077  11.290  19.012  0.00  0.00    +0.000 A 
ENDBRANCH  19  27
ENDBRANCH  18  20
ENDBRANCH   1  18
TORSDOF 5
ENDMDL
MODEL 8
REMARK VINA RESULT:      -8.5      4.606      6.713
REMARK  Name = 
REMARK  7 active torsions:
REMARK  status: ('A' for Active; 'I' for Inactive)
REMARK    1  A    between atoms: C_1  and  C_2
REMARK    2  A    between atoms: C_5  and  N_6
REMARK    3  A    between atoms: C_7  and  C_9
REMARK    4  A    between atoms: C_9  and  N_10
REMARK    5  A    between atoms: C_12  and  C_13
REMARK    6  A    between atoms: C_13  and  C_15
REMARK    7  A    between atoms: C_27  and  C_28
REMARK                            x       y       z     vdW  Elec       q    Type
REMARK                         _______ _______ _______ _____ _____    ______ ____
ROOT
ATOM      1  N   UNL     1       2.010   6.200  20.185  0.00  0.00    +0.000 N 
ATOM      2  C   UNL     1       3.254   6.651  19.811  0.00  0.00    +0.000 A 
ATOM      3  C   UNL     1       4.013   5.573  19.387  0.00  0.00    +0.000 A 
ATOM      4  C   UNL     1       3.146   4.427  19.451  0.00  0.00    +0.000 A 
ATOM      5  C   UNL     1       3.314   3.058  19.146  0.00  0.00    +0.000 A 
ATOM      6  C   UNL     1       2.266   2.157  19.362  0.00  0.00    +0.000 A 
ATOM      7  C   UNL     1       1.056   2.596  19.886  0.00  0.00    +0.000 A 
ATOM      8  C   UNL     1       0.857   3.943  20.201  0.00  0.00    +0.000 A 
ATOM      9  C   UNL     1       1.913   4.842  19.970  0.00  0.00    +0.000 A 
ENDROOT
BRANCH   3  10
ATOM     10  C   UNL     1       5.427   5.592  18.958  0.00  0.00    +0.000 C 
ATOM     11  O   UNL     1       6.300   5.115  19.684  0.00  0.00    +0.000 OA
BRANCH  10  12
ATOM     12  C   UNL     1       5.793   6.215  17.598  0.00  0.00    +0.000 C 
ATOM     13  C   UNL     1       7.233   5.892  17.177  0.00  0.00    +0.000 C 
ATOM     14  C   UNL     1       7.411   4.492  16.593  0.00  0.00    +0.000 C 
ATOM     15  C   UNL     1       6.430   4.194  15.467  0.00  0.00    +0.000 C 
ATOM     16  C   UNL     1       4.988   4.469  15.871  0.00  0.00    +0.000 C 
ATOM     17  C   UNL     1       4.794   5.857  16.482  0.00  0.00    +0.000 C 
ENDBRANCH  10  12
ENDBRANCH   3  10
BRANCH   1  18
ATOM     18  C   UNL     1       1.004   7.020  20.849  0.00  0.00    +0.000 C 
BRANCH  18  20
ATOM     19  N   UNL     1       0.776   9.244  19.758  0.00  0.00    +0.000 N 
ATOM     20  C   UNL     1       1.211   8.525  20.857  0.00  0.00    +0.000 C 
ATOM     21  O   UNL     1       1.739   9.015  21.859  0.00  0.00    +0.000 OA
ATOM     22  H   UNL     1       0.224   8.747  19.073  0.00  0.00    +0.000 HD
BRANCH  19  27
ATOM     23  C   UNL     1       1.430  14.887  18.769  0.00  0.00    +0.000 C 
ATOM     24  C   UNL     1       1.257  13.419  19.019  0.00  0.00    +0.000 A 
ATOM     25  C   UNL     1       2.060  12.485  18.373  0.00  0.00    +0.000 A 
ATOM     26  C   UNL     1       1.897  11.120  18.623  0.00  0.00    +0.000 A 
ATOM     27  C   UNL     1       0.944  10.639  19.531  0.00  0.00    +0.000 A 
ATOM     28  C   UNL     1       0.127  11.575  20.193  0.00  0.00    +0.000 A 
ATOM     29  C   UNL     1      -0.910  11.232  21.233  0.00  0.00    +0.000 C 
ATOM     30  C   UNL     1       0.297  12.955  19.926  0.00  0.00    +0.000 A 
ENDBRANCH  19  27
ENDBRANCH  18  20
ENDBRANCH   1  18
TORSDOF 5
ENDMDL
MODEL 9
REMARK VINA RESULT:      -8.5      4.915      6.910
REMARK  Name = 
REMARK  7 active torsions:
REMARK  status: ('A' for Active; 'I' for Inactive)
REMARK    1  A    between atoms: C_1  and  C_2
REMARK    2  A    between atoms: C_5  and  N_6
REMARK    3  A    between atoms: C_7  and  C_9
REMARK    4  A    between atoms: C_9  and  N_10
REMARK    5  A    between atoms: C_12  and  C_13
REMARK    6  A    between atoms: C_13  and  C_15
REMARK    7  A    between atoms: C_27  and  C_28
REMARK                            x       y       z     vdW  Elec       q    Type
REMARK                         _______ _______ _______ _____ _____    ______ ____
ROOT
ATOM      1  N   UNL     1       2.969   7.256  17.804  0.00  0.00    +0.000 N 
ATOM      2  C   UNL     1       2.004   6.295  17.986  0.00  0.00    +0.000 A 
ATOM      3  C   UNL     1       2.586   5.044  17.855  0.00  0.00    +0.000 A 
ATOM      4  C   UNL     1       3.990   5.280  17.649  0.00  0.00    +0.000 A 
ATOM      5  C   UNL     1       5.104   4.432  17.461  0.00  0.00    +0.000 A 
ATOM      6  C   UNL     1       6.372   4.979  17.237  0.00  0.00    +0.000 A 
ATOM      7  C   UNL     1       6.547   6.357  17.186  0.00  0.00    +0.000 A 
ATOM      8  C   UNL     1       5.465   7.224  17.366  0.00  0.00    +0.000 A 
ATOM      9  C   UNL     1       4.197   6.664  17.602  0.00  0.00    +0.000 A 
ENDROOT
BRANCH   3  10
ATOM     10  C   UNL     1       1.905   3.734  17.911  0.00  0.00    +0.000 C 
ATOM     11  O   UNL     1       2.075   2.910  17.012  0.00  0.00    +0.000 OA
BRANCH  10  12
ATOM     12  C   UNL     1       0.985   3.415  19.105  0.00  0.00    +0.000 C 
ATOM     13  C   UNL     1       1.238   2.013  19.677  0.00  0.00    +0.000 C 
ATOM     14  C   UNL     1       2.461   1.924  20.587  0.00  0.00    +0.000 C 
ATOM     15  C   UNL     1       2.452   2.975  21.689  0.00  0.00    +0.000 C 
ATOM     16  C   UNL     1       2.242   4.381  21.144  0.00  0.00    +0.000 C 
ATOM     17  C   UNL     1       1.036   4.485  20.211  0.00  0.00    +0.000 C 
ENDBRANCH  10  12
ENDBRANCH   3  10
BRANCH   1  18
ATOM     18  C   UNL     1       2.696   8.684  17.695  0.00  0.00    +0.000 C 
BRANCH  18  20
ATOM     19  N   UNL     1       0.647  10.082  17.888  0.00  0.00    +0.000 N 
ATOM     20  C   UNL     1       1.554   9.251  18.521  0.00  0.00    +0.000 C 
ATOM     21  O   UNL     1       1.497   8.916  19.707  0.00  0.00    +0.000 OA
ATOM     22  H   UNL     1       0.717  10.156  16.882  0.00  0.00    +0.000 HD
BRANCH  19  27
ATOM     23  C   UNL     1      -3.721  12.961  20.311  0.00  0.00    +0.000 C 
ATOM     24  C   UNL     1      -2.582  12.219  19.679  0.00  0.00    +0.000 A 
ATOM     25  C   UNL     1      -1.301  12.285  20.216  0.00  0.00    +0.000 A 
ATOM     26  C   UNL     1      -0.250  11.580  19.624  0.00  0.00    +0.000 A 
ATOM     27  C   UNL     1      -0.439  10.776  18.491  0.00  0.00    +0.000 A 
ATOM     28  C   UNL     1      -1.732  10.700  17.940  0.00  0.00    +0.000 A 
ATOM     29  C   UNL     1      -2.117   9.847  16.757  0.00  0.00    +0.000 C 
ATOM     30  C   UNL     1      -2.787  11.425  18.545  0.00  0.00    +0.000 A 
ENDBRANCH  19  27
ENDBRANCH  18  20
ENDBRANCH   1  18
TORSDOF 5
ENDMDL
