MODEL 1
REMARK VINA RESULT:      -8.9      0.000      0.000
REMARK  Name = 
REMARK  4 active torsions:
REMARK  status: ('A' for Active; 'I' for Inactive)
REMARK    1  A    between atoms: C_2  and  C_4
REMARK    2  A    between atoms: C_9  and  C_10
REMARK    3  A    between atoms: C_13  and  C_14
REMARK    4  A    between atoms: C_17  and  C_18
REMARK                            x       y       z     vdW  Elec       q    Type
REMARK                         _______ _______ _______ _____ _____    ______ ____
ROOT
ATOM      1  C   UNL     1       0.442   9.744  21.368  0.00  0.00    +0.000 A 
ATOM      2  C   UNL     1       0.371  10.504  20.197  0.00  0.00    +0.000 A 
ATOM      3  C   UNL     1       0.990  10.062  19.023  0.00  0.00    +0.000 A 
ATOM      4  C   UNL     1       1.676   8.833  19.026  0.00  0.00    +0.000 A 
ATOM      5  C   UNL     1       2.375   8.099  18.031  0.00  0.00    +0.000 A 
ATOM      6  C   UNL     1       2.835   6.929  18.601  0.00  0.00    +0.000 A 
ATOM      7  N   UNL     1       2.466   6.953  19.925  0.00  0.00    +0.000 N 
ATOM      8  C   UNL     1       1.744   8.095  20.207  0.00  0.00    +0.000 A 
ATOM      9  C   UNL     1       1.150   8.531  21.400  0.00  0.00    +0.000 A 
ATOM     10  H   UNL     1       2.682   6.224  20.591  0.00  0.00    +0.000 HD
ENDROOT
BRANCH   1  12
ATOM     11  N   UNL     1      -0.371  11.495  22.808  0.00  0.00    +0.000 NA
ATOM     12  C   UNL     1      -0.248  10.226  22.600  0.00  0.00    +0.000 C 
ATOM     13  N   UNL     1      -0.727   9.328  23.512  0.00  0.00    +0.000 N 
ATOM     14  H   UNL     1      -0.901  11.651  23.668  0.00  0.00    +0.000 HD
ATOM     15  H   UNL     1      -0.873   9.691  24.447  0.00  0.00    +0.000 HD
ATOM     16  H   UNL     1      -0.247   8.435  23.533  0.00  0.00    +0.000 HD
ENDBRANCH   1  12
BRANCH   6  17
ATOM     17  C   UNL     1       3.566   5.851  18.011  0.00  0.00    +0.000 A 
ATOM     18  C   UNL     1       3.655   4.540  18.444  0.00  0.00    +0.000 A 
ATOM     19  C   UNL     1       4.471   3.847  17.522  0.00  0.00    +0.000 A 
ATOM     20  C   UNL     1       4.847   4.758  16.553  0.00  0.00    +0.000 A 
ATOM     21  O   UNL     1       4.311   5.983  16.868  0.00  0.00    +0.000 OA
BRANCH  20  22
ATOM     22  C   UNL     1       5.629   4.522  15.375  0.00  0.00    +0.000 A 
ATOM     23  C   UNL     1       6.849   5.076  15.036  0.00  0.00    +0.000 A 
ATOM     24  C   UNL     1       7.185   4.601  13.747  0.00  0.00    +0.000 A 
ATOM     25  C   UNL     1       6.160   3.765  13.357  0.00  0.00    +0.000 A 
ATOM     26  O   UNL     1       5.225   3.692  14.356  0.00  0.00    +0.000 OA
BRANCH  25  27
ATOM     27  C   UNL     1       5.938   3.024  12.131  0.00  0.00    +0.000 C 
ATOM     28  N   UNL     1       4.796   3.121  11.518  0.00  0.00    +0.000 NA
ATOM     29  N   UNL     1       6.858   2.201  11.555  0.00  0.00    +0.000 N 
ATOM     30  H   UNL     1       4.202   3.773  12.045  0.00  0.00    +0.000 HD
ATOM     31  H   UNL     1       7.481   1.712  12.182  0.00  0.00    +0.000 HD
ATOM     32  H   UNL     1       6.430   1.606  10.855  0.00  0.00    +0.000 HD
ENDBRANCH  25  27
ENDBRANCH  20  22
ENDBRANCH   6  17
TORSDOF 4
ENDMDL
MODEL 2
REMARK VINA RESULT:      -8.7      2.606     10.273
REMARK  Name = 
REMARK  4 active torsions:
REMARK  status: ('A' for Active; 'I' for Inactive)
REMARK    1  A    between atoms: C_2  and  C_4
REMARK    2  A    between atoms: C_9  and  C_10
REMARK    3  A    between atoms: C_13  and  C_14
REMARK    4  A    between atoms: C_17  and  C_18
REMARK                            x       y       z     vdW  Elec       q    Type
REMARK                         _______ _______ _______ _____ _____    ______ ____
ROOT
ATOM      1  C   UNL     1       5.695   4.856  15.658  0.00  0.00    +0.000 A 
ATOM      2  C   UNL     1       5.163   3.858  16.481  0.00  0.00    +0.000 A 
ATOM      3  C   UNL     1       4.203   4.170  17.449  0.00  0.00    +0.000 A 
ATOM      4  C   UNL     1       3.763   5.501  17.579  0.00  0.00    +0.000 A 
ATOM      5  C   UNL     1       2.811   6.141  18.417  0.00  0.00    +0.000 A 
ATOM      6  C   UNL     1       2.776   7.480  18.086  0.00  0.00    +0.000 A 
ATOM      7  N   UNL     1       3.708   7.676  17.095  0.00  0.00    +0.000 N 
ATOM      8  C   UNL     1       4.313   6.483  16.756  0.00  0.00    +0.000 A 
ATOM      9  C   UNL     1       5.293   6.194  15.796  0.00  0.00    +0.000 A 
ATOM     10  H   UNL     1       3.907   8.570  16.667  0.00  0.00    +0.000 HD
ENDROOT
BRANCH   1  12
ATOM     11  N   UNL     1       6.502   3.454  13.873  0.00  0.00    +0.000 NA
ATOM     12  C   UNL     1       6.700   4.491  14.618  0.00  0.00    +0.000 C 
ATOM     13  N   UNL     1       7.834   5.240  14.469  0.00  0.00    +0.000 N 
ATOM     14  H   UNL     1       7.258   3.373  13.191  0.00  0.00    +0.000 HD
ATOM     15  H   UNL     1       8.606   4.776  14.007  0.00  0.00    +0.000 HD
ATOM     16  H   UNL     1       8.141   5.729  15.303  0.00  0.00    +0.000 HD
ENDBRANCH   1  12
BRANCH   6  17
ATOM     17  C   UNL     1       1.967   8.532  18.620  0.00  0.00    +0.000 A 
ATOM     18  C   UNL     1       1.451   9.632  17.959  0.00  0.00    +0.000 A 
ATOM     19  C   UNL     1       0.699  10.372  18.898  0.00  0.00    +0.000 A 
ATOM     20  C   UNL     1       0.775   9.694  20.100  0.00  0.00    +0.000 A 
ATOM     21  O   UNL     1       1.568   8.585  19.930  0.00  0.00    +0.000 OA
BRANCH  20  22
ATOM     22  C   UNL     1       0.131  10.017  21.340  0.00  0.00    +0.000 A 
ATOM     23  C   UNL     1       0.075   9.259  22.494  0.00  0.00    +0.000 A 
ATOM     24  C   UNL     1      -0.736   9.957  23.418  0.00  0.00    +0.000 A 
ATOM     25  C   UNL     1      -1.132  11.120  22.793  0.00  0.00    +0.000 A 
ATOM     26  O   UNL     1      -0.584  11.174  21.539  0.00  0.00    +0.000 OA
BRANCH  25  27
ATOM     27  C   UNL     1      -1.993  12.201  23.231  0.00  0.00    +0.000 C 
ATOM     28  N   UNL     1      -3.232  11.956  23.532  0.00  0.00    +0.000 NA
ATOM     29  N   UNL     1      -1.595  13.499  23.347  0.00  0.00    +0.000 N 
ATOM     30  H   UNL     1      -3.399  10.949  23.412  0.00  0.00    +0.000 HD
ATOM     31  H   UNL     1      -0.895  13.817  22.691  0.00  0.00    +0.000 HD
ATOM     32  H   UNL     1      -2.391  14.121  23.431  0.00  0.00    +0.000 HD
ENDBRANCH  25  27
ENDBRANCH  20  22
ENDBRANCH   6  17
TORSDOF 4
ENDMDL
MODEL 3
REMARK VINA RESULT:      -8.5      2.828      9.443
REMARK  Name = 
REMARK  4 active torsions:
REMARK  status: ('A' for Active; 'I' for Inactive)
REMARK    1  A    between atoms: C_2  and  C_4
REMARK    2  A    between atoms: C_9  and  C_10
REMARK    3  A    between atoms: C_13  and  C_14
REMARK    4  A    between atoms: C_17  and  C_18
REMARK                            x       y       z     vdW  Elec       q    Type
REMARK                         _______ _______ _______ _____ _____    ______ ____
ROOT
ATOM      1  C   UNL     1       5.750   4.657  15.432  0.00  0.00    +0.000 A 
ATOM      2  C   UNL     1       5.266   3.456  15.960  0.00  0.00    +0.000 A 
ATOM      3  C   UNL     1       4.366   3.461  17.031  0.00  0.00    +0.000 A 
ATOM      4  C   UNL     1       3.938   4.690  17.566  0.00  0.00    +0.000 A 
ATOM      5  C   UNL     1       3.040   5.046  18.608  0.00  0.00    +0.000 A 
ATOM      6  C   UNL     1       2.988   6.423  18.682  0.00  0.00    +0.000 A 
ATOM      7  N   UNL     1       3.860   6.911  17.738  0.00  0.00    +0.000 N 
ATOM      8  C   UNL     1       4.440   5.876  17.033  0.00  0.00    +0.000 A 
ATOM      9  C   UNL     1       5.361   5.893  15.974  0.00  0.00    +0.000 A 
ATOM     10  H   UNL     1       4.035   7.894  17.576  0.00  0.00    +0.000 HD
ENDROOT
BRANCH   1  12
ATOM     11  N   UNL     1       7.658   5.477  14.211  0.00  0.00    +0.000 NA
ATOM     12  C   UNL     1       6.689   4.624  14.274  0.00  0.00    +0.000 C 
ATOM     13  N   UNL     1       6.512   3.708  13.274  0.00  0.00    +0.000 N 
ATOM     14  H   UNL     1       8.227   5.289  13.383  0.00  0.00    +0.000 HD
ATOM     15  H   UNL     1       6.947   3.939  12.389  0.00  0.00    +0.000 HD
ATOM     16  H   UNL     1       5.558   3.388  13.146  0.00  0.00    +0.000 HD
ENDBRANCH   1  12
BRANCH   6  17
ATOM     17  C   UNL     1       2.215   7.263  19.543  0.00  0.00    +0.000 A 
ATOM     18  C   UNL     1       1.754   6.986  20.818  0.00  0.00    +0.000 A 
ATOM     19  C   UNL     1       1.061   8.130  21.271  0.00  0.00    +0.000 A 
ATOM     20  C   UNL     1       1.128   9.070  20.260  0.00  0.00    +0.000 A 
ATOM     21  O   UNL     1       1.813   8.527  19.200  0.00  0.00    +0.000 OA
BRANCH  20  22
ATOM     22  C   UNL     1       0.623  10.412  20.265  0.00  0.00    +0.000 A 
ATOM     23  C   UNL     1       0.289  11.193  21.356  0.00  0.00    +0.000 A 
ATOM     24  C   UNL     1      -0.236  12.409  20.859  0.00  0.00    +0.000 A 
ATOM     25  C   UNL     1      -0.187  12.324  19.484  0.00  0.00    +0.000 A 
ATOM     26  O   UNL     1       0.360  11.123  19.118  0.00  0.00    +0.000 OA
BRANCH  25  27
ATOM     27  C   UNL     1      -0.617  13.244  18.449  0.00  0.00    +0.000 C 
ATOM     28  N   UNL     1      -0.556  14.525  18.658  0.00  0.00    +0.000 NA
ATOM     29  N   UNL     1      -1.104  12.860  17.236  0.00  0.00    +0.000 N 
ATOM     30  H   UNL     1      -0.166  14.678  19.597  0.00  0.00    +0.000 HD
ATOM     31  H   UNL     1      -1.627  11.995  17.213  0.00  0.00    +0.000 HD
ATOM     32  H   UNL     1      -1.563  13.631  16.764  0.00  0.00    +0.000 HD
ENDBRANCH  25  27
ENDBRANCH  20  22
ENDBRANCH   6  17
TORSDOF 4
ENDMDL
MODEL 4
REMARK VINA RESULT:      -8.3      6.391      7.114
REMARK  Name = 
REMARK  4 active torsions:
REMARK  status: ('A' for Active; 'I' for Inactive)
REMARK    1  A    between atoms: C_2  and  C_4
REMARK    2  A    between atoms: C_9  and  C_10
REMARK    3  A    between atoms: C_13  and  C_14
REMARK    4  A    between atoms: C_17  and  C_18
REMARK                            x       y       z     vdW  Elec       q    Type
REMARK                         _______ _______ _______ _____ _____    ______ ____
ROOT
ATOM      1  C   UNL     1       9.466  13.791  18.113  0.00  0.00    +0.000 A 
ATOM      2  C   UNL     1      10.159  13.506  19.294  0.00  0.00    +0.000 A 
ATOM      3  C   UNL     1      10.166  12.209  19.818  0.00  0.00    +0.000 A 
ATOM      4  C   UNL     1       9.481  11.186  19.138  0.00  0.00    +0.000 A 
ATOM      5  C   UNL     1       9.309   9.796  19.374  0.00  0.00    +0.000 A 
ATOM      6  C   UNL     1       8.545   9.274  18.350  0.00  0.00    +0.000 A 
ATOM      7  N   UNL     1       8.217  10.319  17.519  0.00  0.00    +0.000 N 
ATOM      8  C   UNL     1       8.788  11.493  17.968  0.00  0.00    +0.000 A 
ATOM      9  C   UNL     1       8.748  12.791  17.437  0.00  0.00    +0.000 A 
ATOM     10  H   UNL     1       7.649  10.231  16.688  0.00  0.00    +0.000 HD
ENDROOT
BRANCH   1  12
ATOM     11  N   UNL     1       8.439  15.917  17.636  0.00  0.00    +0.000 NA
ATOM     12  C   UNL     1       9.495  15.177  17.562  0.00  0.00    +0.000 C 
ATOM     13  N   UNL     1      10.628  15.652  16.963  0.00  0.00    +0.000 N 
ATOM     14  H   UNL     1       8.641  16.842  17.253  0.00  0.00    +0.000 HD
ATOM     15  H   UNL     1      10.494  16.434  16.332  0.00  0.00    +0.000 HD
ATOM     16  H   UNL     1      11.230  14.945  16.554  0.00  0.00    +0.000 HD
ENDBRANCH   1  12
BRANCH   6  17
ATOM     17  C   UNL     1       8.122   7.928  18.120  0.00  0.00    +0.000 A 
ATOM     18  C   UNL     1       8.162   6.858  18.997  0.00  0.00    +0.000 A 
ATOM     19  C   UNL     1       7.614   5.743  18.324  0.00  0.00    +0.000 A 
ATOM     20  C   UNL     1       7.254   6.172  17.061  0.00  0.00    +0.000 A 
ATOM     21  O   UNL     1       7.586   7.498  16.934  0.00  0.00    +0.000 OA
BRANCH  20  22
ATOM     22  C   UNL     1       6.604   5.422  16.025  0.00  0.00    +0.000 A 
ATOM     23  C   UNL     1       5.369   4.804  16.066  0.00  0.00    +0.000 A 
ATOM     24  C   UNL     1       5.195   4.125  14.838  0.00  0.00    +0.000 A 
ATOM     25  C   UNL     1       6.328   4.369  14.091  0.00  0.00    +0.000 A 
ATOM     26  O   UNL     1       7.176   5.179  14.798  0.00  0.00    +0.000 OA
BRANCH  25  27
ATOM     27  C   UNL     1       6.730   3.909  12.776  0.00  0.00    +0.000 C 
ATOM     28  N   UNL     1       6.345   2.742  12.355  0.00  0.00    +0.000 NA
ATOM     29  N   UNL     1       7.512   4.625  11.920  0.00  0.00    +0.000 N 
ATOM     30  H   UNL     1       5.760   2.315  13.085  0.00  0.00    +0.000 HD
ATOM     31  H   UNL     1       8.210   5.223  12.340  0.00  0.00    +0.000 HD
ATOM     32  H   UNL     1       7.867   4.040  11.172  0.00  0.00    +0.000 HD
ENDBRANCH  25  27
ENDBRANCH  20  22
ENDBRANCH   6  17
TORSDOF 4
ENDMDL
MODEL 5
REMARK VINA RESULT:      -8.3      3.040      9.631
REMARK  Name = 
REMARK  4 active torsions:
REMARK  status: ('A' for Active; 'I' for Inactive)
REMARK    1  A    between atoms: C_2  and  C_4
REMARK    2  A    between atoms: C_9  and  C_10
REMARK    3  A    between atoms: C_13  and  C_14
REMARK    4  A    between atoms: C_17  and  C_18
REMARK                            x       y       z     vdW  Elec       q    Type
REMARK                         _______ _______ _______ _____ _____    ______ ____
ROOT
ATOM      1  C   UNL     1       5.491   4.784  15.788  0.00  0.00    +0.000 A 
ATOM      2  C   UNL     1       4.875   3.666  16.358  0.00  0.00    +0.000 A 
ATOM      3  C   UNL     1       3.902   3.819  17.351  0.00  0.00    +0.000 A 
ATOM      4  C   UNL     1       3.535   5.113  17.764  0.00  0.00    +0.000 A 
ATOM      5  C   UNL     1       2.594   5.613  18.703  0.00  0.00    +0.000 A 
ATOM      6  C   UNL     1       2.648   6.991  18.676  0.00  0.00    +0.000 A 
ATOM      7  N   UNL     1       3.623   7.340  17.773  0.00  0.00    +0.000 N 
ATOM      8  C   UNL     1       4.169   6.215  17.190  0.00  0.00    +0.000 A 
ATOM      9  C   UNL     1       5.164   6.083  16.210  0.00  0.00    +0.000 A 
ATOM     10  H   UNL     1       3.888   8.292  17.557  0.00  0.00    +0.000 HD
ENDROOT
BRANCH   1  12
ATOM     11  N   UNL     1       6.377   3.622  13.873  0.00  0.00    +0.000 NA
ATOM     12  C   UNL     1       6.509   4.593  14.714  0.00  0.00    +0.000 C 
ATOM     13  N   UNL     1       7.586   5.432  14.634  0.00  0.00    +0.000 N 
ATOM     14  H   UNL     1       7.130   3.661  13.183  0.00  0.00    +0.000 HD
ATOM     15  H   UNL     1       8.384   5.070  14.126  0.00  0.00    +0.000 HD
ATOM     16  H   UNL     1       7.867   5.859  15.510  0.00  0.00    +0.000 HD
ENDBRANCH   1  12
BRANCH   6  17
ATOM     17  C   UNL     1       1.883   7.950  19.413  0.00  0.00    +0.000 A 
ATOM     18  C   UNL     1       1.601   7.959  20.767  0.00  0.00    +0.000 A 
ATOM     19  C   UNL     1       0.835   9.117  21.029  0.00  0.00    +0.000 A 
ATOM     20  C   UNL     1       0.679   9.778  19.825  0.00  0.00    +0.000 A 
ATOM     21  O   UNL     1       1.301   9.051  18.840  0.00  0.00    +0.000 OA
BRANCH  20  22
ATOM     22  C   UNL     1       0.027  11.032  19.583  0.00  0.00    +0.000 A 
ATOM     23  C   UNL     1      -1.328  11.278  19.462  0.00  0.00    +0.000 A 
ATOM     24  C   UNL     1      -1.482  12.648  19.148  0.00  0.00    +0.000 A 
ATOM     25  C   UNL     1      -0.212  13.185  19.103  0.00  0.00    +0.000 A 
ATOM     26  O   UNL     1       0.706  12.211  19.394  0.00  0.00    +0.000 OA
BRANCH  25  27
ATOM     27  C   UNL     1       0.255  14.523  18.797  0.00  0.00    +0.000 C 
ATOM     28  N   UNL     1       1.530  14.764  18.742  0.00  0.00    +0.000 NA
ATOM     29  N   UNL     1      -0.564  15.586  18.562  0.00  0.00    +0.000 N 
ATOM     30  H   UNL     1       2.031  13.885  18.927  0.00  0.00    +0.000 HD
ATOM     31  H   UNL     1      -1.442  15.598  19.063  0.00  0.00    +0.000 HD
ATOM     32  H   UNL     1      -0.053  16.460  18.607  0.00  0.00    +0.000 HD
ENDBRANCH  25  27
ENDBRANCH  20  22
ENDBRANCH   6  17
TORSDOF 4
ENDMDL
MODEL 6
REMARK VINA RESULT:      -8.3      2.232      3.179
REMARK  Name = 
REMARK  4 active torsions:
REMARK  status: ('A' for Active; 'I' for Inactive)
REMARK    1  A    between atoms: C_2  and  C_4
REMARK    2  A    between atoms: C_9  and  C_10
REMARK    3  A    between atoms: C_13  and  C_14
REMARK    4  A    between atoms: C_17  and  C_18
REMARK                            x       y       z     vdW  Elec       q    Type
REMARK                         _______ _______ _______ _____ _____    ______ ____
ROOT
ATOM      1  C   UNL     1      -0.586  11.703  19.816  0.00  0.00    +0.000 A 
ATOM      2  C   UNL     1      -0.791  11.404  21.166  0.00  0.00    +0.000 A 
ATOM      3  C   UNL     1      -0.263  10.236  21.725  0.00  0.00    +0.000 A 
ATOM      4  C   UNL     1       0.494   9.366  20.918  0.00  0.00    +0.000 A 
ATOM      5  C   UNL     1       1.173   8.144  21.163  0.00  0.00    +0.000 A 
ATOM      6  C   UNL     1       1.774   7.740  19.988  0.00  0.00    +0.000 A 
ATOM      7  N   UNL     1       1.445   8.666  19.027  0.00  0.00    +0.000 N 
ATOM      8  C   UNL     1       0.678   9.676  19.571  0.00  0.00    +0.000 A 
ATOM      9  C   UNL     1       0.137  10.831  18.985  0.00  0.00    +0.000 A 
ATOM     10  H   UNL     1       1.740   8.617  18.061  0.00  0.00    +0.000 HD
ENDROOT
BRANCH   1  12
ATOM     11  N   UNL     1      -0.507  13.576  18.303  0.00  0.00    +0.000 NA
ATOM     12  C   UNL     1      -1.140  12.968  19.251  0.00  0.00    +0.000 C 
ATOM     13  N   UNL     1      -2.300  13.490  19.751  0.00  0.00    +0.000 N 
ATOM     14  H   UNL     1      -1.041  14.395  18.006  0.00  0.00    +0.000 HD
ATOM     15  H   UNL     1      -2.445  14.477  19.578  0.00  0.00    +0.000 HD
ATOM     16  H   UNL     1      -2.503  13.249  20.715  0.00  0.00    +0.000 HD
ENDBRANCH   1  12
BRANCH   6  17
ATOM     17  C   UNL     1       2.591   6.595  19.726  0.00  0.00    +0.000 A 
ATOM     18  C   UNL     1       2.418   5.300  20.181  0.00  0.00    +0.000 A 
ATOM     19  C   UNL     1       3.463   4.521  19.637  0.00  0.00    +0.000 A 
ATOM     20  C   UNL     1       4.235   5.366  18.862  0.00  0.00    +0.000 A 
ATOM     21  O   UNL     1       3.711   6.634  18.938  0.00  0.00    +0.000 OA
BRANCH  20  22
ATOM     22  C   UNL     1       5.376   5.034  18.059  0.00  0.00    +0.000 A 
ATOM     23  C   UNL     1       6.678   4.827  18.473  0.00  0.00    +0.000 A 
ATOM     24  C   UNL     1       7.459   4.604  17.315  0.00  0.00    +0.000 A 
ATOM     25  C   UNL     1       6.597   4.673  16.242  0.00  0.00    +0.000 A 
ATOM     26  O   UNL     1       5.324   4.906  16.691  0.00  0.00    +0.000 OA
BRANCH  25  27
ATOM     27  C   UNL     1       6.828   4.561  14.814  0.00  0.00    +0.000 C 
ATOM     28  N   UNL     1       7.548   5.455  14.206  0.00  0.00    +0.000 NA
ATOM     29  N   UNL     1       6.327   3.565  14.032  0.00  0.00    +0.000 N 
ATOM     30  H   UNL     1       7.869   6.138  14.904  0.00  0.00    +0.000 HD
ATOM     31  H   UNL     1       5.425   3.192  14.299  0.00  0.00    +0.000 HD
ATOM     32  H   UNL     1       6.401   3.798  13.049  0.00  0.00    +0.000 HD
ENDBRANCH  25  27
ENDBRANCH  20  22
ENDBRANCH   6  17
TORSDOF 4
ENDMDL
MODEL 7
REMARK VINA RESULT:      -8.2      3.803      4.910
REMARK  Name = 
REMARK  4 active torsions:
REMARK  status: ('A' for Active; 'I' for Inactive)
REMARK    1  A    between atoms: C_2  and  C_4
REMARK    2  A    between atoms: C_9  and  C_10
REMARK    3  A    between atoms: C_13  and  C_14
REMARK    4  A    between atoms: C_17  and  C_18
REMARK                            x       y       z     vdW  Elec       q    Type
REMARK                         _______ _______ _______ _____ _____    ______ ____
ROOT
ATOM      1  C   UNL     1      -1.980  12.706  21.738  0.00  0.00    +0.000 A 
ATOM      2  C   UNL     1      -1.780  12.011  22.935  0.00  0.00    +0.000 A 
ATOM      3  C   UNL     1      -0.987  10.859  22.964  0.00  0.00    +0.000 A 
ATOM      4  C   UNL     1      -0.378  10.410  21.778  0.00  0.00    +0.000 A 
ATOM      5  C   UNL     1       0.483   9.324  21.468  0.00  0.00    +0.000 A 
ATOM      6  C   UNL     1       0.790   9.386  20.124  0.00  0.00    +0.000 A 
ATOM      7  N   UNL     1       0.109  10.460  19.603  0.00  0.00    +0.000 N 
ATOM      8  C   UNL     1      -0.598  11.111  20.593  0.00  0.00    +0.000 A 
ATOM      9  C   UNL     1      -1.408  12.255  20.537  0.00  0.00    +0.000 A 
ATOM     10  H   UNL     1       0.138  10.738  18.632  0.00  0.00    +0.000 HD
ENDROOT
BRANCH   1  12
ATOM     11  N   UNL     1      -3.113  14.512  22.860  0.00  0.00    +0.000 NA
ATOM     12  C   UNL     1      -2.810  13.945  21.739  0.00  0.00    +0.000 C 
ATOM     13  N   UNL     1      -3.264  14.466  20.559  0.00  0.00    +0.000 N 
ATOM     14  H   UNL     1      -3.645  15.365  22.680  0.00  0.00    +0.000 HD
ATOM     15  H   UNL     1      -4.067  15.079  20.633  0.00  0.00    +0.000 HD
ATOM     16  H   UNL     1      -3.379  13.795  19.806  0.00  0.00    +0.000 HD
ENDBRANCH   1  12
BRANCH   6  17
ATOM     17  C   UNL     1       1.636   8.539  19.341  0.00  0.00    +0.000 A 
ATOM     18  C   UNL     1       2.205   8.806  18.108  0.00  0.00    +0.000 A 
ATOM     19  C   UNL     1       2.976   7.677  17.749  0.00  0.00    +0.000 A 
ATOM     20  C   UNL     1       2.856   6.763  18.778  0.00  0.00    +0.000 A 
ATOM     21  O   UNL     1       2.020   7.284  19.735  0.00  0.00    +0.000 OA
BRANCH  20  22
ATOM     22  C   UNL     1       3.498   5.487  18.906  0.00  0.00    +0.000 A 
ATOM     23  C   UNL     1       4.820   5.224  19.210  0.00  0.00    +0.000 A 
ATOM     24  C   UNL     1       4.998   3.823  19.145  0.00  0.00    +0.000 A 
ATOM     25  C   UNL     1       3.771   3.286  18.816  0.00  0.00    +0.000 A 
ATOM     26  O   UNL     1       2.849   4.293  18.697  0.00  0.00    +0.000 OA
BRANCH  25  27
ATOM     27  C   UNL     1       3.353   1.919  18.577  0.00  0.00    +0.000 C 
ATOM     28  N   UNL     1       2.088   1.624  18.564  0.00  0.00    +0.000 NA
ATOM     29  N   UNL     1       4.210   0.881  18.366  0.00  0.00    +0.000 N 
ATOM     30  H   UNL     1       1.555   2.489  18.724  0.00  0.00    +0.000 HD
ATOM     31  H   UNL     1       5.099   0.925  18.845  0.00  0.00    +0.000 HD
ATOM     32  H   UNL     1       3.737  -0.010  18.459  0.00  0.00    +0.000 HD
ENDBRANCH  25  27
ENDBRANCH  20  22
ENDBRANCH   6  17
TORSDOF 4
ENDMDL
MODEL 8
REMARK VINA RESULT:      -8.2      1.758      2.447
REMARK  Name = 
REMARK  4 active torsions:
REMARK  status: ('A' for Active; 'I' for Inactive)
REMARK    1  A    between atoms: C_2  and  C_4
REMARK    2  A    between atoms: C_9  and  C_10
REMARK    3  A    between atoms: C_13  and  C_14
REMARK    4  A    between atoms: C_17  and  C_18
REMARK                            x       y       z     vdW  Elec       q    Type
REMARK                         _______ _______ _______ _____ _____    ______ ____
ROOT
ATOM      1  C   UNL     1      -0.304  11.191  19.076  0.00  0.00    +0.000 A 
ATOM      2  C   UNL     1      -0.320  10.854  20.433  0.00  0.00    +0.000 A 
ATOM      3  C   UNL     1       0.380   9.735  20.896  0.00  0.00    +0.000 A 
ATOM      4  C   UNL     1       1.116   8.956  19.984  0.00  0.00    +0.000 A 
ATOM      5  C   UNL     1       1.934   7.802  20.117  0.00  0.00    +0.000 A 
ATOM      6  C   UNL     1       2.429   7.477  18.871  0.00  0.00    +0.000 A 
ATOM      7  N   UNL     1       1.902   8.381  17.979  0.00  0.00    +0.000 N 
ATOM      8  C   UNL     1       1.111   9.302  18.633  0.00  0.00    +0.000 A 
ATOM      9  C   UNL     1       0.397  10.407  18.145  0.00  0.00    +0.000 A 
ATOM     10  H   UNL     1       2.085   8.375  16.985  0.00  0.00    +0.000 HD
ENDROOT
BRANCH   1  12
ATOM     11  N   UNL     1      -1.226  12.594  17.348  0.00  0.00    +0.000 NA
ATOM     12  C   UNL     1      -1.039  12.404  18.612  0.00  0.00    +0.000 C 
ATOM     13  N   UNL     1      -1.493  13.318  19.521  0.00  0.00    +0.000 N 
ATOM     14  H   UNL     1      -1.778  13.442  17.207  0.00  0.00    +0.000 HD
ATOM     15  H   UNL     1      -1.674  14.245  19.155  0.00  0.00    +0.000 HD
ATOM     16  H   UNL     1      -0.972  13.358  20.391  0.00  0.00    +0.000 HD
ENDBRANCH   1  12
BRANCH   6  17
ATOM     17  C   UNL     1       3.315   6.422  18.486  0.00  0.00    +0.000 A 
ATOM     18  C   UNL     1       3.607   5.258  19.175  0.00  0.00    +0.000 A 
ATOM     19  C   UNL     1       4.516   4.520  18.384  0.00  0.00    +0.000 A 
ATOM     20  C   UNL     1       4.744   5.256  17.237  0.00  0.00    +0.000 A 
ATOM     21  O   UNL     1       4.027   6.425  17.315  0.00  0.00    +0.000 OA
BRANCH  20  22
ATOM     22  C   UNL     1       5.548   4.902  16.104  0.00  0.00    +0.000 A 
ATOM     23  C   UNL     1       6.889   5.164  15.895  0.00  0.00    +0.000 A 
ATOM     24  C   UNL     1       7.214   4.691  14.602  0.00  0.00    +0.000 A 
ATOM     25  C   UNL     1       6.060   4.147  14.081  0.00  0.00    +0.000 A 
ATOM     26  O   UNL     1       5.050   4.249  15.001  0.00  0.00    +0.000 OA
BRANCH  25  27
ATOM     27  C   UNL     1       5.776   3.548  12.791  0.00  0.00    +0.000 C 
ATOM     28  N   UNL     1       6.733   2.981  12.119  0.00  0.00    +0.000 NA
ATOM     29  N   UNL     1       4.547   3.539  12.203  0.00  0.00    +0.000 N 
ATOM     30  H   UNL     1       7.597   3.048  12.673  0.00  0.00    +0.000 HD
ATOM     31  H   UNL     1       3.953   4.336  12.388  0.00  0.00    +0.000 HD
ATOM     32  H   UNL     1       4.612   3.293  11.222  0.00  0.00    +0.000 HD
ENDBRANCH  25  27
ENDBRANCH  20  22
ENDBRANCH   6  17
TORSDOF 4
ENDMDL
MODEL 9
REMARK VINA RESULT:      -8.2      2.757      9.656
REMARK  Name = 
REMARK  4 active torsions:
REMARK  status: ('A' for Active; 'I' for Inactive)
REMARK    1  A    between atoms: C_2  and  C_4
REMARK    2  A    between atoms: C_9  and  C_10
REMARK    3  A    between atoms: C_13  and  C_14
REMARK    4  A    between atoms: C_17  and  C_18
REMARK                            x       y       z     vdW  Elec       q    Type
REMARK                         _______ _______ _______ _____ _____    ______ ____
ROOT
ATOM      1  C   UNL     1       5.790   4.791  15.478  0.00  0.00    +0.000 A 
ATOM      2  C   UNL     1       5.396   3.594  16.084  0.00  0.00    +0.000 A 
ATOM      3  C   UNL     1       4.519   3.604  17.174  0.00  0.00    +0.000 A 
ATOM      4  C   UNL     1       4.022   4.832  17.648  0.00  0.00    +0.000 A 
ATOM      5  C   UNL     1       3.124   5.190  18.688  0.00  0.00    +0.000 A 
ATOM      6  C   UNL     1       2.983   6.563  18.685  0.00  0.00    +0.000 A 
ATOM      7  N   UNL     1       3.803   7.050  17.694  0.00  0.00    +0.000 N 
ATOM      8  C   UNL     1       4.435   6.015  17.036  0.00  0.00    +0.000 A 
ATOM      9  C   UNL     1       5.331   6.029  15.957  0.00  0.00    +0.000 A 
ATOM     10  H   UNL     1       3.910   8.030  17.473  0.00  0.00    +0.000 HD
ENDROOT
BRANCH   1  12
ATOM     11  N   UNL     1       7.760   5.498  14.285  0.00  0.00    +0.000 NA
ATOM     12  C   UNL     1       6.706   4.750  14.301  0.00  0.00    +0.000 C 
ATOM     13  N   UNL     1       6.420   3.941  13.238  0.00  0.00    +0.000 N 
ATOM     14  H   UNL     1       8.295   5.317  13.434  0.00  0.00    +0.000 HD
ATOM     15  H   UNL     1       6.867   4.193  12.364  0.00  0.00    +0.000 HD
ATOM     16  H   UNL     1       5.436   3.735  13.104  0.00  0.00    +0.000 HD
ENDBRANCH   1  12
BRANCH   6  17
ATOM     17  C   UNL     1       2.174   7.400  19.515  0.00  0.00    +0.000 A 
ATOM     18  C   UNL     1       1.763   7.173  20.816  0.00  0.00    +0.000 A 
ATOM     19  C   UNL     1       1.003   8.294  21.219  0.00  0.00    +0.000 A 
ATOM     20  C   UNL     1       0.981   9.171  20.151  0.00  0.00    +0.000 A 
ATOM     21  O   UNL     1       1.677   8.611  19.107  0.00  0.00    +0.000 OA
BRANCH  20  22
ATOM     22  C   UNL     1       0.385  10.473  20.089  0.00  0.00    +0.000 A 
ATOM     23  C   UNL     1       0.937  11.682  20.467  0.00  0.00    +0.000 A 
ATOM     24  C   UNL     1      -0.057  12.673  20.294  0.00  0.00    +0.000 A 
ATOM     25  C   UNL     1      -1.173  12.028  19.804  0.00  0.00    +0.000 A 
ATOM     26  O   UNL     1      -0.900  10.694  19.652  0.00  0.00    +0.000 OA
BRANCH  25  27
ATOM     27  C   UNL     1      -2.497  12.517  19.471  0.00  0.00    +0.000 C 
ATOM     28  N   UNL     1      -3.113  12.049  18.428  0.00  0.00    +0.000 NA
ATOM     29  N   UNL     1      -3.165  13.465  20.185  0.00  0.00    +0.000 N 
ATOM     30  H   UNL     1      -2.510  11.341  17.989  0.00  0.00    +0.000 HD
ATOM     31  H   UNL     1      -2.601  14.177  20.629  0.00  0.00    +0.000 HD
ATOM     32  H   UNL     1      -3.952  13.832  19.661  0.00  0.00    +0.000 HD
ENDBRANCH  25  27
ENDBRANCH  20  22
ENDBRANCH   6  17
TORSDOF 4
ENDMDL
