MODEL 1
REMARK VINA RESULT:      -7.3      0.000      0.000
REMARK  Name = 
REMARK  4 active torsions:
REMARK  status: ('A' for Active; 'I' for Inactive)
REMARK    1  A    between atoms: N_1  and  C_2
REMARK    2  A    between atoms: C_6  and  C_7
REMARK    3  A    between atoms: C_7  and  C_9
REMARK    4  A    between atoms: C_12  and  N_13
REMARK                            x       y       z     vdW  Elec       q    Type
REMARK                         _______ _______ _______ _____ _____    ______ ____
ROOT
ATOM      1  C   UNL     1       3.744   6.455  18.357  0.00  0.00    +0.000 A 
ATOM      2  S   UNL     1       2.240   6.639  19.159  0.00  0.00    +0.000 S 
ATOM      3  C   UNL     1       2.308   5.075  19.797  0.00  0.00    +0.000 A 
ATOM      4  C   UNL     1       3.469   4.412  19.453  0.00  0.00    +0.000 A 
ATOM      5  C   UNL     1       4.360   5.245  18.660  0.00  0.00    +0.000 A 
ATOM      6  C   UNL     1       3.725   3.004  19.923  0.00  0.00    +0.000 C 
ATOM      7  C   UNL     1       2.436   2.311  20.394  0.00  0.00    +0.000 C 
ATOM      8  C   UNL     1       1.611   3.218  21.313  0.00  0.00    +0.000 C 
ATOM      9  C   UNL     1       1.178   4.506  20.599  0.00  0.00    +0.000 C 
ENDROOT
BRANCH   1  10
ATOM     10  N   UNL     1       4.153   7.459  17.545  0.00  0.00    +0.000 N 
ATOM     11  H   UNL     1       4.728   7.193  16.748  0.00  0.00    +0.000 HD
ATOM     12  H   UNL     1       4.444   8.347  17.943  0.00  0.00    +0.000 HD
ENDBRANCH   1  10
BRANCH   5  13
ATOM     13  C   UNL     1       5.686   4.806  18.193  0.00  0.00    +0.000 C 
ATOM     14  O   UNL     1       6.616   4.614  18.977  0.00  0.00    +0.000 OA
BRANCH  13  15
ATOM     15  C   UNL     1       5.978   4.577  16.748  0.00  0.00    +0.000 A 
ATOM     16  C   UNL     1       5.032   3.862  15.993  0.00  0.00    +0.000 A 
ATOM     17  C   UNL     1       5.233   3.637  14.628  0.00  0.00    +0.000 A 
ATOM     18  C   UNL     1       6.391   4.126  14.013  0.00  0.00    +0.000 A 
ATOM     19  C   UNL     1       7.361   4.805  14.764  0.00  0.00    +0.000 A 
ATOM     20  C   UNL     1       7.160   5.011  16.133  0.00  0.00    +0.000 A 
BRANCH  18  21
ATOM     21  N   UNL     1       6.586   3.936  12.570  0.00  0.00    +0.000 N 
ATOM     22  O   UNL     1       5.861   3.112  11.995  0.00  0.00    +0.000 OA
ATOM     23  O   UNL     1       7.456   4.618  12.012  0.00  0.00    +0.000 OA
ENDBRANCH  18  21
ENDBRANCH  13  15
ENDBRANCH   5  13
TORSDOF 4
ENDMDL
MODEL 2
REMARK VINA RESULT:      -7.3      0.211      1.267
REMARK  Name = 
REMARK  4 active torsions:
REMARK  status: ('A' for Active; 'I' for Inactive)
REMARK    1  A    between atoms: N_1  and  C_2
REMARK    2  A    between atoms: C_6  and  C_7
REMARK    3  A    between atoms: C_7  and  C_9
REMARK    4  A    between atoms: C_12  and  N_13
REMARK                            x       y       z     vdW  Elec       q    Type
REMARK                         _______ _______ _______ _____ _____    ______ ____
ROOT
ATOM      1  C   UNL     1       3.761   6.408  18.351  0.00  0.00    +0.000 A 
ATOM      2  S   UNL     1       2.278   6.616  19.185  0.00  0.00    +0.000 S 
ATOM      3  C   UNL     1       2.293   5.024  19.754  0.00  0.00    +0.000 A 
ATOM      4  C   UNL     1       3.420   4.331  19.362  0.00  0.00    +0.000 A 
ATOM      5  C   UNL     1       4.332   5.162  18.590  0.00  0.00    +0.000 A 
ATOM      6  C   UNL     1       3.627   2.895  19.766  0.00  0.00    +0.000 C 
ATOM      7  C   UNL     1       2.318   2.233  20.228  0.00  0.00    +0.000 C 
ATOM      8  C   UNL     1       1.544   3.131  21.200  0.00  0.00    +0.000 C 
ATOM      9  C   UNL     1       1.153   4.465  20.550  0.00  0.00    +0.000 C 
ENDROOT
BRANCH   1  10
ATOM     10  N   UNL     1       4.197   7.430  17.576  0.00  0.00    +0.000 N 
ATOM     11  H   UNL     1       4.148   8.362  17.982  0.00  0.00    +0.000 HD
ATOM     12  H   UNL     1       3.989   7.438  16.582  0.00  0.00    +0.000 HD
ENDBRANCH   1  10
BRANCH   5  13
ATOM     13  C   UNL     1       5.632   4.692  18.082  0.00  0.00    +0.000 C 
ATOM     14  O   UNL     1       6.565   4.427  18.841  0.00  0.00    +0.000 OA
BRANCH  13  15
ATOM     15  C   UNL     1       5.893   4.517  16.623  0.00  0.00    +0.000 A 
ATOM     16  C   UNL     1       7.118   4.983  16.116  0.00  0.00    +0.000 A 
ATOM     17  C   UNL     1       7.436   4.826  14.764  0.00  0.00    +0.000 A 
ATOM     18  C   UNL     1       6.518   4.203  13.910  0.00  0.00    +0.000 A 
ATOM     19  C   UNL     1       5.276   3.772  14.395  0.00  0.00    +0.000 A 
ATOM     20  C   UNL     1       4.960   3.948  15.747  0.00  0.00    +0.000 A 
BRANCH  18  21
ATOM     21  N   UNL     1       6.864   3.991  12.498  0.00  0.00    +0.000 N 
ATOM     22  O   UNL     1       7.602   4.824  11.955  0.00  0.00    +0.000 OA
ATOM     23  O   UNL     1       6.406   2.985  11.938  0.00  0.00    +0.000 OA
ENDBRANCH  18  21
ENDBRANCH  13  15
ENDBRANCH   5  13
TORSDOF 4
ENDMDL
MODEL 3
REMARK VINA RESULT:      -6.9      1.959      2.724
REMARK  Name = 
REMARK  4 active torsions:
REMARK  status: ('A' for Active; 'I' for Inactive)
REMARK    1  A    between atoms: N_1  and  C_2
REMARK    2  A    between atoms: C_6  and  C_7
REMARK    3  A    between atoms: C_7  and  C_9
REMARK    4  A    between atoms: C_12  and  N_13
REMARK                            x       y       z     vdW  Elec       q    Type
REMARK                         _______ _______ _______ _____ _____    ______ ____
ROOT
ATOM      1  C   UNL     1       4.349   2.697  19.873  0.00  0.00    +0.000 A 
ATOM      2  S   UNL     1       2.738   2.408  20.381  0.00  0.00    +0.000 S 
ATOM      3  C   UNL     1       2.322   4.039  20.233  0.00  0.00    +0.000 A 
ATOM      4  C   UNL     1       3.366   4.813  19.768  0.00  0.00    +0.000 A 
ATOM      5  C   UNL     1       4.551   4.017  19.482  0.00  0.00    +0.000 A 
ATOM      6  C   UNL     1       3.202   6.296  19.565  0.00  0.00    +0.000 C 
ATOM      7  C   UNL     1       1.983   6.849  20.321  0.00  0.00    +0.000 C 
ATOM      8  C   UNL     1       0.744   5.970  20.113  0.00  0.00    +0.000 C 
ATOM      9  C   UNL     1       0.968   4.543  20.629  0.00  0.00    +0.000 C 
ENDROOT
BRANCH   1  10
ATOM     10  N   UNL     1       5.219   1.659  19.911  0.00  0.00    +0.000 N 
ATOM     11  H   UNL     1       5.443   1.222  19.019  0.00  0.00    +0.000 HD
ATOM     12  H   UNL     1       5.165   0.980  20.663  0.00  0.00    +0.000 HD
ENDBRANCH   1  10
BRANCH   5  13
ATOM     13  C   UNL     1       5.797   4.579  18.933  0.00  0.00    +0.000 C 
ATOM     14  O   UNL     1       6.667   5.057  19.661  0.00  0.00    +0.000 OA
BRANCH  13  15
ATOM     15  C   UNL     1       6.070   4.607  17.466  0.00  0.00    +0.000 A 
ATOM     16  C   UNL     1       7.120   5.423  17.009  0.00  0.00    +0.000 A 
ATOM     17  C   UNL     1       7.445   5.473  15.651  0.00  0.00    +0.000 A 
ATOM     18  C   UNL     1       6.710   4.705  14.739  0.00  0.00    +0.000 A 
ATOM     19  C   UNL     1       5.635   3.920  15.177  0.00  0.00    +0.000 A 
ATOM     20  C   UNL     1       5.306   3.888  16.537  0.00  0.00    +0.000 A 
BRANCH  18  21
ATOM     21  N   UNL     1       7.076   4.715  13.317  0.00  0.00    +0.000 N 
ATOM     22  O   UNL     1       6.498   3.916  12.568  0.00  0.00    +0.000 OA
ATOM     23  O   UNL     1       7.935   5.529  12.950  0.00  0.00    +0.000 OA
ENDBRANCH  18  21
ENDBRANCH  13  15
ENDBRANCH   5  13
TORSDOF 4
ENDMDL
MODEL 4
REMARK VINA RESULT:      -6.9      1.944      2.491
REMARK  Name = 
REMARK  4 active torsions:
REMARK  status: ('A' for Active; 'I' for Inactive)
REMARK    1  A    between atoms: N_1  and  C_2
REMARK    2  A    between atoms: C_6  and  C_7
REMARK    3  A    between atoms: C_7  and  C_9
REMARK    4  A    between atoms: C_12  and  N_13
REMARK                            x       y       z     vdW  Elec       q    Type
REMARK                         _______ _______ _______ _____ _____    ______ ____
ROOT
ATOM      1  C   UNL     1       4.337   2.657  19.915  0.00  0.00    +0.000 A 
ATOM      2  S   UNL     1       2.732   2.361  20.438  0.00  0.00    +0.000 S 
ATOM      3  C   UNL     1       2.307   3.991  20.292  0.00  0.00    +0.000 A 
ATOM      4  C   UNL     1       3.344   4.769  19.815  0.00  0.00    +0.000 A 
ATOM      5  C   UNL     1       4.529   3.978  19.520  0.00  0.00    +0.000 A 
ATOM      6  C   UNL     1       3.170   6.251  19.612  0.00  0.00    +0.000 C 
ATOM      7  C   UNL     1       1.956   6.799  20.379  0.00  0.00    +0.000 C 
ATOM      8  C   UNL     1       0.719   5.914  20.184  0.00  0.00    +0.000 C 
ATOM      9  C   UNL     1       0.955   4.488  20.700  0.00  0.00    +0.000 C 
ENDROOT
BRANCH   1  10
ATOM     10  N   UNL     1       5.212   1.624  19.945  0.00  0.00    +0.000 N 
ATOM     11  H   UNL     1       5.844   1.587  20.742  0.00  0.00    +0.000 HD
ATOM     12  H   UNL     1       5.662   1.315  19.089  0.00  0.00    +0.000 HD
ENDBRANCH   1  10
BRANCH   5  13
ATOM     13  C   UNL     1       5.767   4.544  18.958  0.00  0.00    +0.000 C 
ATOM     14  O   UNL     1       6.603   5.103  19.668  0.00  0.00    +0.000 OA
BRANCH  13  15
ATOM     15  C   UNL     1       6.073   4.479  17.499  0.00  0.00    +0.000 A 
ATOM     16  C   UNL     1       5.061   4.022  16.636  0.00  0.00    +0.000 A 
ATOM     17  C   UNL     1       5.274   3.963  15.256  0.00  0.00    +0.000 A 
ATOM     18  C   UNL     1       6.511   4.359  14.733  0.00  0.00    +0.000 A 
ATOM     19  C   UNL     1       7.542   4.776  15.587  0.00  0.00    +0.000 A 
ATOM     20  C   UNL     1       7.325   4.817  16.969  0.00  0.00    +0.000 A 
BRANCH  18  21
ATOM     21  N   UNL     1       6.726   4.345  13.281  0.00  0.00    +0.000 N 
ATOM     22  O   UNL     1       6.013   3.595  12.600  0.00  0.00    +0.000 OA
ATOM     23  O   UNL     1       7.601   5.093  12.821  0.00  0.00    +0.000 OA
ENDBRANCH  18  21
ENDBRANCH  13  15
ENDBRANCH   5  13
TORSDOF 4
ENDMDL
MODEL 5
REMARK VINA RESULT:      -6.8      3.948      6.534
REMARK  Name = 
REMARK  4 active torsions:
REMARK  status: ('A' for Active; 'I' for Inactive)
REMARK    1  A    between atoms: N_1  and  C_2
REMARK    2  A    between atoms: C_6  and  C_7
REMARK    3  A    between atoms: C_7  and  C_9
REMARK    4  A    between atoms: C_12  and  N_13
REMARK                            x       y       z     vdW  Elec       q    Type
REMARK                         _______ _______ _______ _____ _____    ______ ____
ROOT
ATOM      1  C   UNL     1       5.058   4.657  19.105  0.00  0.00    +0.000 A 
ATOM      2  S   UNL     1       4.883   3.030  19.611  0.00  0.00    +0.000 S 
ATOM      3  C   UNL     1       3.261   2.982  19.137  0.00  0.00    +0.000 A 
ATOM      4  C   UNL     1       2.841   4.164  18.561  0.00  0.00    +0.000 A 
ATOM      5  C   UNL     1       3.917   5.140  18.471  0.00  0.00    +0.000 A 
ATOM      6  C   UNL     1       1.427   4.327  18.069  0.00  0.00    +0.000 C 
ATOM      7  C   UNL     1       0.484   3.271  18.667  0.00  0.00    +0.000 C 
ATOM      8  C   UNL     1       1.093   1.866  18.597  0.00  0.00    +0.000 C 
ATOM      9  C   UNL     1       2.406   1.777  19.387  0.00  0.00    +0.000 C 
ENDROOT
BRANCH   1  10
ATOM     10  N   UNL     1       6.233   5.278  19.368  0.00  0.00    +0.000 N 
ATOM     11  H   UNL     1       6.908   5.315  18.608  0.00  0.00    +0.000 HD
ATOM     12  H   UNL     1       6.684   5.148  20.269  0.00  0.00    +0.000 HD
ENDBRANCH   1  10
BRANCH   5  13
ATOM     13  C   UNL     1       3.761   6.471  17.860  0.00  0.00    +0.000 C 
ATOM     14  O   UNL     1       4.415   6.811  16.873  0.00  0.00    +0.000 OA
BRANCH  13  15
ATOM     15  C   UNL     1       2.809   7.483  18.405  0.00  0.00    +0.000 A 
ATOM     16  C   UNL     1       2.378   7.328  19.735  0.00  0.00    +0.000 A 
ATOM     17  C   UNL     1       1.509   8.256  20.314  0.00  0.00    +0.000 A 
ATOM     18  C   UNL     1       1.061   9.346  19.558  0.00  0.00    +0.000 A 
ATOM     19  C   UNL     1       1.450   9.488  18.219  0.00  0.00    +0.000 A 
ATOM     20  C   UNL     1       2.309   8.545  17.641  0.00  0.00    +0.000 A 
BRANCH  18  21
ATOM     21  N   UNL     1       0.186  10.351  20.175  0.00  0.00    +0.000 N 
ATOM     22  O   UNL     1       0.647  11.018  21.111  0.00  0.00    +0.000 OA
ATOM     23  O   UNL     1      -0.957  10.478  19.716  0.00  0.00    +0.000 OA
ENDBRANCH  18  21
ENDBRANCH  13  15
ENDBRANCH   5  13
TORSDOF 4
ENDMDL
MODEL 6
REMARK VINA RESULT:      -6.7      4.084      6.657
REMARK  Name = 
REMARK  4 active torsions:
REMARK  status: ('A' for Active; 'I' for Inactive)
REMARK    1  A    between atoms: N_1  and  C_2
REMARK    2  A    between atoms: C_6  and  C_7
REMARK    3  A    between atoms: C_7  and  C_9
REMARK    4  A    between atoms: C_12  and  N_13
REMARK                            x       y       z     vdW  Elec       q    Type
REMARK                         _______ _______ _______ _____ _____    ______ ____
ROOT
ATOM      1  C   UNL     1       5.105   4.975  18.941  0.00  0.00    +0.000 A 
ATOM      2  S   UNL     1       5.075   3.322  19.393  0.00  0.00    +0.000 S 
ATOM      3  C   UNL     1       3.440   3.168  18.992  0.00  0.00    +0.000 A 
ATOM      4  C   UNL     1       2.907   4.334  18.482  0.00  0.00    +0.000 A 
ATOM      5  C   UNL     1       3.902   5.392  18.379  0.00  0.00    +0.000 A 
ATOM      6  C   UNL     1       1.462   4.407  18.062  0.00  0.00    +0.000 C 
ATOM      7  C   UNL     1       0.630   3.262  18.662  0.00  0.00    +0.000 C 
ATOM      8  C   UNL     1       1.337   1.911  18.511  0.00  0.00    +0.000 C 
ATOM      9  C   UNL     1       2.690   1.894  19.236  0.00  0.00    +0.000 C 
ENDROOT
BRANCH   1  10
ATOM     10  N   UNL     1       6.242   5.673  19.174  0.00  0.00    +0.000 N 
ATOM     11  H   UNL     1       6.869   5.798  18.382  0.00  0.00    +0.000 HD
ATOM     12  H   UNL     1       6.751   5.537  20.042  0.00  0.00    +0.000 HD
ENDBRANCH   1  10
BRANCH   5  13
ATOM     13  C   UNL     1       3.618   6.727  17.827  0.00  0.00    +0.000 C 
ATOM     14  O   UNL     1       4.178   7.139  16.811  0.00  0.00    +0.000 OA
BRANCH  13  15
ATOM     15  C   UNL     1       2.645   7.657  18.472  0.00  0.00    +0.000 A 
ATOM     16  C   UNL     1       2.124   8.704  17.693  0.00  0.00    +0.000 A 
ATOM     17  C   UNL     1       1.188   9.593  18.228  0.00  0.00    +0.000 A 
ATOM     18  C   UNL     1       0.773   9.438  19.556  0.00  0.00    +0.000 A 
ATOM     19  C   UNL     1       1.316   8.423  20.356  0.00  0.00    +0.000 A 
ATOM     20  C   UNL     1       2.265   7.547  19.816  0.00  0.00    +0.000 A 
BRANCH  18  21
ATOM     21  N   UNL     1      -0.246  10.338  20.112  0.00  0.00    +0.000 N 
ATOM     22  O   UNL     1      -0.949  10.974  19.314  0.00  0.00    +0.000 OA
ATOM     23  O   UNL     1      -0.349  10.401  21.344  0.00  0.00    +0.000 OA
ENDBRANCH  18  21
ENDBRANCH  13  15
ENDBRANCH   5  13
TORSDOF 4
ENDMDL
MODEL 7
REMARK VINA RESULT:      -6.7      5.615      7.828
REMARK  Name = 
REMARK  4 active torsions:
REMARK  status: ('A' for Active; 'I' for Inactive)
REMARK    1  A    between atoms: N_1  and  C_2
REMARK    2  A    between atoms: C_6  and  C_7
REMARK    3  A    between atoms: C_7  and  C_9
REMARK    4  A    between atoms: C_12  and  N_13
REMARK                            x       y       z     vdW  Elec       q    Type
REMARK                         _______ _______ _______ _____ _____    ______ ____
ROOT
ATOM      1  C   UNL     1       0.317  11.786  19.869  0.00  0.00    +0.000 A 
ATOM      2  S   UNL     1      -1.242  12.416  20.201  0.00  0.00    +0.000 S 
ATOM      3  C   UNL     1      -1.952  11.502  18.969  0.00  0.00    +0.000 A 
ATOM      4  C   UNL     1      -1.044  10.689  18.321  0.00  0.00    +0.000 A 
ATOM      5  C   UNL     1       0.290  10.795  18.892  0.00  0.00    +0.000 A 
ATOM      6  C   UNL     1      -1.476   9.792  17.190  0.00  0.00    +0.000 C 
ATOM      7  C   UNL     1      -2.833  10.217  16.606  0.00  0.00    +0.000 C 
ATOM      8  C   UNL     1      -3.860  10.499  17.709  0.00  0.00    +0.000 C 
ATOM      9  C   UNL     1      -3.404  11.640  18.629  0.00  0.00    +0.000 C 
ENDROOT
BRANCH   1  10
ATOM     10  N   UNL     1       1.365  12.301  20.555  0.00  0.00    +0.000 N 
ATOM     11  H   UNL     1       1.785  13.148  20.177  0.00  0.00    +0.000 HD
ATOM     12  H   UNL     1       2.061  11.681  20.957  0.00  0.00    +0.000 HD
ENDBRANCH   1  10
BRANCH   5  13
ATOM     13  C   UNL     1       1.442  10.007  18.424  0.00  0.00    +0.000 C 
ATOM     14  O   UNL     1       2.216  10.438  17.568  0.00  0.00    +0.000 OA
BRANCH  13  15
ATOM     15  C   UNL     1       1.731   8.641  18.952  0.00  0.00    +0.000 A 
ATOM     16  C   UNL     1       2.240   7.685  18.055  0.00  0.00    +0.000 A 
ATOM     17  C   UNL     1       2.557   6.396  18.492  0.00  0.00    +0.000 A 
ATOM     18  C   UNL     1       2.359   6.057  19.836  0.00  0.00    +0.000 A 
ATOM     19  C   UNL     1       1.813   6.988  20.730  0.00  0.00    +0.000 A 
ATOM     20  C   UNL     1       1.484   8.272  20.280  0.00  0.00    +0.000 A 
BRANCH  18  21
ATOM     21  N   UNL     1       2.735   4.720  20.313  0.00  0.00    +0.000 N 
ATOM     22  O   UNL     1       2.040   4.210  21.203  0.00  0.00    +0.000 OA
ATOM     23  O   UNL     1       3.718   4.178  19.790  0.00  0.00    +0.000 OA
ENDBRANCH  18  21
ENDBRANCH  13  15
ENDBRANCH   5  13
TORSDOF 4
ENDMDL
MODEL 8
REMARK VINA RESULT:      -6.7      4.146      7.030
REMARK  Name = 
REMARK  4 active torsions:
REMARK  status: ('A' for Active; 'I' for Inactive)
REMARK    1  A    between atoms: N_1  and  C_2
REMARK    2  A    between atoms: C_6  and  C_7
REMARK    3  A    between atoms: C_7  and  C_9
REMARK    4  A    between atoms: C_12  and  N_13
REMARK                            x       y       z     vdW  Elec       q    Type
REMARK                         _______ _______ _______ _____ _____    ______ ____
ROOT
ATOM      1  C   UNL     1       5.253   5.837  17.928  0.00  0.00    +0.000 A 
ATOM      2  S   UNL     1       5.673   4.180  18.049  0.00  0.00    +0.000 S 
ATOM      3  C   UNL     1       4.053   3.696  18.036  0.00  0.00    +0.000 A 
ATOM      4  C   UNL     1       3.182   4.758  17.902  0.00  0.00    +0.000 A 
ATOM      5  C   UNL     1       3.884   6.026  17.765  0.00  0.00    +0.000 A 
ATOM      6  C   UNL     1       1.692   4.540  17.867  0.00  0.00    +0.000 C 
ATOM      7  C   UNL     1       1.300   3.161  18.422  0.00  0.00    +0.000 C 
ATOM      8  C   UNL     1       2.185   2.049  17.848  0.00  0.00    +0.000 C 
ATOM      9  C   UNL     1       3.663   2.259  18.206  0.00  0.00    +0.000 C 
ENDROOT
BRANCH   1  10
ATOM     10  N   UNL     1       6.252   6.749  18.007  0.00  0.00    +0.000 N 
ATOM     11  H   UNL     1       6.163   7.460  18.730  0.00  0.00    +0.000 HD
ATOM     12  H   UNL     1       6.666   7.122  17.158  0.00  0.00    +0.000 HD
ENDBRANCH   1  10
BRANCH   5  13
ATOM     13  C   UNL     1       3.203   7.317  17.564  0.00  0.00    +0.000 C 
ATOM     14  O   UNL     1       3.300   7.941  16.507  0.00  0.00    +0.000 OA
BRANCH  13  15
ATOM     15  C   UNL     1       2.368   7.942  18.630  0.00  0.00    +0.000 A 
ATOM     16  C   UNL     1       2.287   7.286  19.870  0.00  0.00    +0.000 A 
ATOM     17  C   UNL     1       1.543   7.833  20.919  0.00  0.00    +0.000 A 
ATOM     18  C   UNL     1       0.868   9.045  20.725  0.00  0.00    +0.000 A 
ATOM     19  C   UNL     1       0.907   9.687  19.480  0.00  0.00    +0.000 A 
ATOM     20  C   UNL     1       1.641   9.124  18.431  0.00  0.00    +0.000 A 
BRANCH  18  21
ATOM     21  N   UNL     1       0.124   9.650  21.837  0.00  0.00    +0.000 N 
ATOM     22  O   UNL     1      -0.688   8.937  22.442  0.00  0.00    +0.000 OA
ATOM     23  O   UNL     1       0.361  10.835  22.110  0.00  0.00    +0.000 OA
ENDBRANCH  18  21
ENDBRANCH  13  15
ENDBRANCH   5  13
TORSDOF 4
ENDMDL
MODEL 9
REMARK VINA RESULT:      -6.6      5.559      7.776
REMARK  Name = 
REMARK  4 active torsions:
REMARK  status: ('A' for Active; 'I' for Inactive)
REMARK    1  A    between atoms: N_1  and  C_2
REMARK    2  A    between atoms: C_6  and  C_7
REMARK    3  A    between atoms: C_7  and  C_9
REMARK    4  A    between atoms: C_12  and  N_13
REMARK                            x       y       z     vdW  Elec       q    Type
REMARK                         _______ _______ _______ _____ _____    ______ ____
ROOT
ATOM      1  C   UNL     1       0.314  11.504  19.945  0.00  0.00    +0.000 A 
ATOM      2  S   UNL     1      -1.248  12.112  20.304  0.00  0.00    +0.000 S 
ATOM      3  C   UNL     1      -1.935  11.338  18.969  0.00  0.00    +0.000 A 
ATOM      4  C   UNL     1      -1.018  10.586  18.261  0.00  0.00    +0.000 A 
ATOM      5  C   UNL     1       0.303  10.618  18.872  0.00  0.00    +0.000 A 
ATOM      6  C   UNL     1      -1.430   9.815  17.034  0.00  0.00    +0.000 C 
ATOM      7  C   UNL     1      -2.769  10.311  16.465  0.00  0.00    +0.000 C 
ATOM      8  C   UNL     1      -3.819  10.489  17.567  0.00  0.00    +0.000 C 
ATOM      9  C   UNL     1      -3.377  11.525  18.610  0.00  0.00    +0.000 C 
ENDROOT
BRANCH   1  10
ATOM     10  N   UNL     1       1.349  11.934  20.705  0.00  0.00    +0.000 N 
ATOM     11  H   UNL     1       1.791  12.805  20.420  0.00  0.00    +0.000 HD
ATOM     12  H   UNL     1       2.024  11.267  21.066  0.00  0.00    +0.000 HD
ENDBRANCH   1  10
BRANCH   5  13
ATOM     13  C   UNL     1       1.459   9.870  18.351  0.00  0.00    +0.000 C 
ATOM     14  O   UNL     1       2.196  10.340  17.484  0.00  0.00    +0.000 OA
BRANCH  13  15
ATOM     15  C   UNL     1       1.798   8.501  18.839  0.00  0.00    +0.000 A 
ATOM     16  C   UNL     1       1.547   8.206  20.191  0.00  0.00    +0.000 A 
ATOM     17  C   UNL     1       1.817   6.935  20.704  0.00  0.00    +0.000 A 
ATOM     18  C   UNL     1       2.347   5.950  19.862  0.00  0.00    +0.000 A 
ATOM     19  C   UNL     1       2.640   6.245  18.523  0.00  0.00    +0.000 A 
ATOM     20  C   UNL     1       2.383   7.526  18.021  0.00  0.00    +0.000 A 
BRANCH  18  21
ATOM     21  N   UNL     1       2.587   4.598  20.382  0.00  0.00    +0.000 N 
ATOM     22  O   UNL     1       1.850   4.192  21.291  0.00  0.00    +0.000 OA
ATOM     23  O   UNL     1       3.506   3.941  19.873  0.00  0.00    +0.000 OA
ENDBRANCH  18  21
ENDBRANCH  13  15
ENDBRANCH   5  13
TORSDOF 4
ENDMDL
