MODEL 1
REMARK VINA RESULT:      -9.7      0.000      0.000
REMARK  Name = 
REMARK  5 active torsions:
REMARK  status: ('A' for Active; 'I' for Inactive)
REMARK    1  A    between atoms: N_4  and  N_5
REMARK    2  A    between atoms: C_6  and  C_7
REMARK    3  A    between atoms: C_12  and  O_13
REMARK    4  A    between atoms: O_13  and  C_14
REMARK    5  A    between atoms: C_14  and  C_16
REMARK                            x       y       z     vdW  Elec       q    Type
REMARK                         _______ _______ _______ _____ _____    ______ ____
ROOT
ATOM      1  C   UNL     1       2.109   4.737  19.774  0.00  0.00    +0.000 A 
ATOM      2  C   UNL     1       1.039   3.947  20.233  0.00  0.00    +0.000 A 
ATOM      3  C   UNL     1       0.666   2.786  19.556  0.00  0.00    +0.000 A 
ATOM      4  C   UNL     1       1.356   2.405  18.412  0.00  0.00    +0.000 A 
ATOM      5  C   UNL     1       2.418   3.179  17.946  0.00  0.00    +0.000 A 
ATOM      6  C   UNL     1       2.816   4.335  18.635  0.00  0.00    +0.000 A 
ENDROOT
BRANCH   1   8
ATOM      7  N   UNL     1       1.493   6.901  20.621  0.00  0.00    +0.000 NA
ATOM      8  C   UNL     1       2.408   5.987  20.512  0.00  0.00    +0.000 C 
BRANCH   7  12
ATOM      9  N   UNL     1      -0.386   8.401  21.704  0.00  0.00    +0.000 N 
ATOM     10  C   UNL     1       0.877   8.892  21.781  0.00  0.00    +0.000 C 
ATOM     11  O   UNL     1       1.132   9.986  22.268  0.00  0.00    +0.000 OA
ATOM     12  N   UNL     1       1.838   8.050  21.264  0.00  0.00    +0.000 N 
ATOM     13  H   UNL     1      -1.154   9.021  21.913  0.00  0.00    +0.000 HD
ATOM     14  H   UNL     1      -0.507   7.639  21.050  0.00  0.00    +0.000 HD
ATOM     15  H   UNL     1       2.799   8.378  21.279  0.00  0.00    +0.000 HD
ENDBRANCH   7  12
ENDBRANCH   1   8
BRANCH   6  16
ATOM     16  O   UNL     1       3.831   5.151  18.091  0.00  0.00    +0.000 OA
BRANCH  16  17
ATOM     17  C   UNL     1       5.134   4.674  18.173  0.00  0.00    +0.000 C 
ATOM     18  O   UNL     1       5.644   4.186  19.174  0.00  0.00    +0.000 OA
BRANCH  17  19
ATOM     19  C   UNL     1       5.861   4.813  16.884  0.00  0.00    +0.000 A 
ATOM     20  C   UNL     1       5.419   4.055  15.864  0.00  0.00    +0.000 A 
ATOM     21  C   UNL     1       6.018   4.163  14.542  0.00  0.00    +0.000 A 
ATOM     22  C   UNL     1       5.515   3.480  13.433  0.00  0.00    +0.000 A 
ATOM     23  C   UNL     1       6.134   3.620  12.185  0.00  0.00    +0.000 A 
ATOM     24  C   UNL     1       7.267   4.427  12.046  0.00  0.00    +0.000 A 
ATOM     25  C   UNL     1       7.772   5.111  13.149  0.00  0.00    +0.000 A 
ATOM     26  C   UNL     1       7.131   4.980  14.379  0.00  0.00    +0.000 A 
ATOM     27  O   UNL     1       7.623   5.738  15.457  0.00  0.00    +0.000 OA
ATOM     28  C   UNL     1       6.950   5.792  16.676  0.00  0.00    +0.000 A 
ATOM     29  O   UNL     1       7.263   6.626  17.518  0.00  0.00    +0.000 OA
ENDBRANCH  17  19
ENDBRANCH  16  17
ENDBRANCH   6  16
TORSDOF 5
ENDMDL
MODEL 2
REMARK VINA RESULT:      -9.0      1.690      1.819
REMARK  Name = 
REMARK  5 active torsions:
REMARK  status: ('A' for Active; 'I' for Inactive)
REMARK    1  A    between atoms: N_4  and  N_5
REMARK    2  A    between atoms: C_6  and  C_7
REMARK    3  A    between atoms: C_12  and  O_13
REMARK    4  A    between atoms: O_13  and  C_14
REMARK    5  A    between atoms: C_14  and  C_16
REMARK                            x       y       z     vdW  Elec       q    Type
REMARK                         _______ _______ _______ _____ _____    ______ ____
ROOT
ATOM      1  C   UNL     1       2.477   4.755  19.072  0.00  0.00    +0.000 A 
ATOM      2  C   UNL     1       1.473   4.799  20.056  0.00  0.00    +0.000 A 
ATOM      3  C   UNL     1       1.148   3.665  20.799  0.00  0.00    +0.000 A 
ATOM      4  C   UNL     1       1.823   2.473  20.564  0.00  0.00    +0.000 A 
ATOM      5  C   UNL     1       2.820   2.415  19.592  0.00  0.00    +0.000 A 
ATOM      6  C   UNL     1       3.171   3.558  18.857  0.00  0.00    +0.000 A 
ENDROOT
BRANCH   1   8
ATOM      7  N   UNL     1       2.361   7.135  18.760  0.00  0.00    +0.000 NA
ATOM      8  C   UNL     1       2.724   5.985  18.283  0.00  0.00    +0.000 C 
BRANCH   7  12
ATOM      9  N   UNL     1       1.142   9.403  19.333  0.00  0.00    +0.000 N 
ATOM     10  C   UNL     1       1.891   9.406  18.200  0.00  0.00    +0.000 C 
ATOM     11  O   UNL     1       1.958  10.376  17.456  0.00  0.00    +0.000 OA
ATOM     12  N   UNL     1       2.565   8.226  17.971  0.00  0.00    +0.000 N 
ATOM     13  H   UNL     1       0.500  10.166  19.483  0.00  0.00    +0.000 HD
ATOM     14  H   UNL     1       0.945   8.485  19.709  0.00  0.00    +0.000 HD
ATOM     15  H   UNL     1       3.125   8.168  17.126  0.00  0.00    +0.000 HD
ENDBRANCH   7  12
ENDBRANCH   1   8
BRANCH   6  16
ATOM     16  O   UNL     1       4.117   3.449  17.816  0.00  0.00    +0.000 OA
BRANCH  16  17
ATOM     17  C   UNL     1       5.370   4.005  18.043  0.00  0.00    +0.000 C 
ATOM     18  O   UNL     1       5.880   4.168  19.145  0.00  0.00    +0.000 OA
BRANCH  17  19
ATOM     19  C   UNL     1       6.050   4.384  16.777  0.00  0.00    +0.000 A 
ATOM     20  C   UNL     1       5.719   3.673  15.684  0.00  0.00    +0.000 A 
ATOM     21  C   UNL     1       6.277   4.005  14.382  0.00  0.00    +0.000 A 
ATOM     22  C   UNL     1       5.873   3.366  13.208  0.00  0.00    +0.000 A 
ATOM     23  C   UNL     1       6.446   3.724  11.983  0.00  0.00    +0.000 A 
ATOM     24  C   UNL     1       7.437   4.708  11.929  0.00  0.00    +0.000 A 
ATOM     25  C   UNL     1       7.844   5.349  13.097  0.00  0.00    +0.000 A 
ATOM     26  C   UNL     1       7.247   4.998  14.306  0.00  0.00    +0.000 A 
ATOM     27  O   UNL     1       7.628   5.712  15.455  0.00  0.00    +0.000 OA
ATOM     28  C   UNL     1       6.970   5.537  16.672  0.00  0.00    +0.000 A 
ATOM     29  O   UNL     1       7.160   6.322  17.595  0.00  0.00    +0.000 OA
ENDBRANCH  17  19
ENDBRANCH  16  17
ENDBRANCH   6  16
TORSDOF 5
ENDMDL
MODEL 3
REMARK VINA RESULT:      -8.9      3.060      7.772
REMARK  Name = 
REMARK  5 active torsions:
REMARK  status: ('A' for Active; 'I' for Inactive)
REMARK    1  A    between atoms: N_4  and  N_5
REMARK    2  A    between atoms: C_6  and  C_7
REMARK    3  A    between atoms: C_12  and  O_13
REMARK    4  A    between atoms: O_13  and  C_14
REMARK    5  A    between atoms: C_14  and  C_16
REMARK                            x       y       z     vdW  Elec       q    Type
REMARK                         _______ _______ _______ _____ _____    ______ ____
ROOT
ATOM      1  C   UNL     1       3.280   3.634  18.623  0.00  0.00    +0.000 A 
ATOM      2  C   UNL     1       2.695   2.372  18.419  0.00  0.00    +0.000 A 
ATOM      3  C   UNL     1       1.415   2.092  18.892  0.00  0.00    +0.000 A 
ATOM      4  C   UNL     1       0.706   3.070  19.579  0.00  0.00    +0.000 A 
ATOM      5  C   UNL     1       1.274   4.326  19.789  0.00  0.00    +0.000 A 
ATOM      6  C   UNL     1       2.553   4.624  19.294  0.00  0.00    +0.000 A 
ENDROOT
BRANCH   1   8
ATOM      7  N   UNL     1       4.884   4.043  16.880  0.00  0.00    +0.000 NA
ATOM      8  C   UNL     1       4.668   3.837  18.143  0.00  0.00    +0.000 C 
BRANCH   7  12
ATOM      9  N   UNL     1       5.593   6.096  15.384  0.00  0.00    +0.000 N 
ATOM     10  C   UNL     1       6.572   5.193  15.647  0.00  0.00    +0.000 C 
ATOM     11  O   UNL     1       7.700   5.286  15.179  0.00  0.00    +0.000 OA
ATOM     12  N   UNL     1       6.182   4.172  16.486  0.00  0.00    +0.000 N 
ATOM     13  H   UNL     1       5.754   6.777  14.657  0.00  0.00    +0.000 HD
ATOM     14  H   UNL     1       4.655   5.778  15.589  0.00  0.00    +0.000 HD
ATOM     15  H   UNL     1       6.871   3.458  16.701  0.00  0.00    +0.000 HD
ENDBRANCH   7  12
ENDBRANCH   1   8
BRANCH   6  16
ATOM     16  O   UNL     1       3.142   5.870  19.601  0.00  0.00    +0.000 OA
BRANCH  16  17
ATOM     17  C   UNL     1       2.961   6.896  18.682  0.00  0.00    +0.000 C 
ATOM     18  O   UNL     1       3.467   6.941  17.567  0.00  0.00    +0.000 OA
BRANCH  17  19
ATOM     19  C   UNL     1       2.059   7.957  19.201  0.00  0.00    +0.000 A 
ATOM     20  C   UNL     1       1.695   7.854  20.492  0.00  0.00    +0.000 A 
ATOM     21  C   UNL     1       0.868   8.875  21.117  0.00  0.00    +0.000 A 
ATOM     22  C   UNL     1       0.565   8.864  22.480  0.00  0.00    +0.000 A 
ATOM     23  C   UNL     1      -0.238   9.871  23.027  0.00  0.00    +0.000 A 
ATOM     24  C   UNL     1      -0.754  10.882  22.211  0.00  0.00    +0.000 A 
ATOM     25  C   UNL     1      -0.454  10.899  20.851  0.00  0.00    +0.000 A 
ATOM     26  C   UNL     1       0.366   9.902  20.326  0.00  0.00    +0.000 A 
ATOM     27  O   UNL     1       0.708   9.986  18.965  0.00  0.00    +0.000 OA
ATOM     28  C   UNL     1       1.647   9.127  18.396  0.00  0.00    +0.000 A 
ATOM     29  O   UNL     1       2.098   9.357  17.280  0.00  0.00    +0.000 OA
ENDBRANCH  17  19
ENDBRANCH  16  17
ENDBRANCH   6  16
TORSDOF 5
ENDMDL
MODEL 4
REMARK VINA RESULT:      -8.9      3.162      7.827
REMARK  Name = 
REMARK  5 active torsions:
REMARK  status: ('A' for Active; 'I' for Inactive)
REMARK    1  A    between atoms: N_4  and  N_5
REMARK    2  A    between atoms: C_6  and  C_7
REMARK    3  A    between atoms: C_12  and  O_13
REMARK    4  A    between atoms: O_13  and  C_14
REMARK    5  A    between atoms: C_14  and  C_16
REMARK                            x       y       z     vdW  Elec       q    Type
REMARK                         _______ _______ _______ _____ _____    ______ ____
ROOT
ATOM      1  C   UNL     1       2.679   3.374  18.095  0.00  0.00    +0.000 A 
ATOM      2  C   UNL     1       2.527   2.080  18.626  0.00  0.00    +0.000 A 
ATOM      3  C   UNL     1       1.665   1.843  19.696  0.00  0.00    +0.000 A 
ATOM      4  C   UNL     1       0.949   2.898  20.250  0.00  0.00    +0.000 A 
ATOM      5  C   UNL     1       1.091   4.185  19.734  0.00  0.00    +0.000 A 
ATOM      6  C   UNL     1       1.937   4.428  18.640  0.00  0.00    +0.000 A 
ENDROOT
BRANCH   1   8
ATOM      7  N   UNL     1       4.838   4.024  17.263  0.00  0.00    +0.000 NA
ATOM      8  C   UNL     1       3.657   3.558  16.997  0.00  0.00    +0.000 C 
BRANCH   7  12
ATOM      9  N   UNL     1       7.428   4.282  17.695  0.00  0.00    +0.000 N 
ATOM     10  C   UNL     1       7.027   4.429  16.405  0.00  0.00    +0.000 C 
ATOM     11  O   UNL     1       7.802   4.719  15.503  0.00  0.00    +0.000 OA
ATOM     12  N   UNL     1       5.679   4.221  16.210  0.00  0.00    +0.000 N 
ATOM     13  H   UNL     1       8.361   4.573  17.942  0.00  0.00    +0.000 HD
ATOM     14  H   UNL     1       6.682   4.318  18.378  0.00  0.00    +0.000 HD
ATOM     15  H   UNL     1       5.323   4.338  15.266  0.00  0.00    +0.000 HD
ENDBRANCH   7  12
ENDBRANCH   1   8
BRANCH   6  16
ATOM     16  O   UNL     1       2.134   5.754  18.198  0.00  0.00    +0.000 OA
BRANCH  16  17
ATOM     17  C   UNL     1       2.794   6.615  19.066  0.00  0.00    +0.000 C 
ATOM     18  O   UNL     1       3.935   6.456  19.486  0.00  0.00    +0.000 OA
BRANCH  17  19
ATOM     19  C   UNL     1       1.956   7.786  19.436  0.00  0.00    +0.000 A 
ATOM     20  C   UNL     1       1.505   7.821  20.703  0.00  0.00    +0.000 A 
ATOM     21  C   UNL     1       0.732   8.955  21.187  0.00  0.00    +0.000 A 
ATOM     22  C   UNL     1       0.345   9.083  22.522  0.00  0.00    +0.000 A 
ATOM     23  C   UNL     1      -0.401  10.194  22.932  0.00  0.00    +0.000 A 
ATOM     24  C   UNL     1      -0.777  11.171  22.005  0.00  0.00    +0.000 A 
ATOM     25  C   UNL     1      -0.392  11.049  20.672  0.00  0.00    +0.000 A 
ATOM     26  C   UNL     1       0.369   9.948  20.285  0.00  0.00    +0.000 A 
ATOM     27  O   UNL     1       0.801   9.890  18.948  0.00  0.00    +0.000 OA
ATOM     28  C   UNL     1       1.696   8.913  18.515  0.00  0.00    +0.000 A 
ATOM     29  O   UNL     1       2.234   9.011  17.417  0.00  0.00    +0.000 OA
ENDBRANCH  17  19
ENDBRANCH  16  17
ENDBRANCH   6  16
TORSDOF 5
ENDMDL
MODEL 5
REMARK VINA RESULT:      -8.7      3.233      8.136
REMARK  Name = 
REMARK  5 active torsions:
REMARK  status: ('A' for Active; 'I' for Inactive)
REMARK    1  A    between atoms: N_4  and  N_5
REMARK    2  A    between atoms: C_6  and  C_7
REMARK    3  A    between atoms: C_12  and  O_13
REMARK    4  A    between atoms: O_13  and  C_14
REMARK    5  A    between atoms: C_14  and  C_16
REMARK                            x       y       z     vdW  Elec       q    Type
REMARK                         _______ _______ _______ _____ _____    ______ ____
ROOT
ATOM      1  C   UNL     1       3.444   3.987  17.458  0.00  0.00    +0.000 A 
ATOM      2  C   UNL     1       3.645   2.597  17.530  0.00  0.00    +0.000 A 
ATOM      3  C   UNL     1       2.735   1.776  18.195  0.00  0.00    +0.000 A 
ATOM      4  C   UNL     1       1.615   2.337  18.798  0.00  0.00    +0.000 A 
ATOM      5  C   UNL     1       1.404   3.714  18.734  0.00  0.00    +0.000 A 
ATOM      6  C   UNL     1       2.302   4.544  18.045  0.00  0.00    +0.000 A 
ENDROOT
BRANCH   1   8
ATOM      7  N   UNL     1       5.516   4.213  16.262  0.00  0.00    +0.000 NA
ATOM      8  C   UNL     1       4.485   4.800  16.786  0.00  0.00    +0.000 C 
BRANCH   7  12
ATOM      9  N   UNL     1       6.353   3.720  13.810  0.00  0.00    +0.000 N 
ATOM     10  C   UNL     1       6.977   4.742  14.451  0.00  0.00    +0.000 C 
ATOM     11  O   UNL     1       7.907   5.363  13.954  0.00  0.00    +0.000 OA
ATOM     12  N   UNL     1       6.467   5.012  15.703  0.00  0.00    +0.000 N 
ATOM     13  H   UNL     1       6.769   3.361  12.965  0.00  0.00    +0.000 HD
ATOM     14  H   UNL     1       5.804   3.116  14.407  0.00  0.00    +0.000 HD
ATOM     15  H   UNL     1       6.911   5.755  16.234  0.00  0.00    +0.000 HD
ENDBRANCH   7  12
ENDBRANCH   1   8
BRANCH   6  16
ATOM     16  O   UNL     1       2.115   5.943  18.076  0.00  0.00    +0.000 OA
BRANCH  16  17
ATOM     17  C   UNL     1       2.649   6.626  19.161  0.00  0.00    +0.000 C 
ATOM     18  O   UNL     1       3.668   6.306  19.764  0.00  0.00    +0.000 OA
BRANCH  17  19
ATOM     19  C   UNL     1       1.843   7.821  19.521  0.00  0.00    +0.000 A 
ATOM     20  C   UNL     1       1.357   7.859  20.776  0.00  0.00    +0.000 A 
ATOM     21  C   UNL     1       0.611   9.014  21.250  0.00  0.00    +0.000 A 
ATOM     22  C   UNL     1       0.190   9.141  22.576  0.00  0.00    +0.000 A 
ATOM     23  C   UNL     1      -0.528  10.274  22.977  0.00  0.00    +0.000 A 
ATOM     24  C   UNL     1      -0.843  11.273  22.052  0.00  0.00    +0.000 A 
ATOM     25  C   UNL     1      -0.425  11.151  20.729  0.00  0.00    +0.000 A 
ATOM     26  C   UNL     1       0.309  10.029  20.350  0.00  0.00    +0.000 A 
ATOM     27  O   UNL     1       0.776   9.969  19.025  0.00  0.00    +0.000 OA
ATOM     28  C   UNL     1       1.649   8.967  18.606  0.00  0.00    +0.000 A 
ATOM     29  O   UNL     1       2.221   9.057  17.526  0.00  0.00    +0.000 OA
ENDBRANCH  17  19
ENDBRANCH  16  17
ENDBRANCH   6  16
TORSDOF 5
ENDMDL
MODEL 6
REMARK VINA RESULT:      -8.6      3.296      4.744
REMARK  Name = 
REMARK  5 active torsions:
REMARK  status: ('A' for Active; 'I' for Inactive)
REMARK    1  A    between atoms: N_4  and  N_5
REMARK    2  A    between atoms: C_6  and  C_7
REMARK    3  A    between atoms: C_12  and  O_13
REMARK    4  A    between atoms: O_13  and  C_14
REMARK    5  A    between atoms: C_14  and  C_16
REMARK                            x       y       z     vdW  Elec       q    Type
REMARK                         _______ _______ _______ _____ _____    ______ ____
ROOT
ATOM      1  C   UNL     1       3.259   2.882  19.960  0.00  0.00    +0.000 A 
ATOM      2  C   UNL     1       2.465   3.059  21.107  0.00  0.00    +0.000 A 
ATOM      3  C   UNL     1       1.847   4.281  21.367  0.00  0.00    +0.000 A 
ATOM      4  C   UNL     1       2.020   5.341  20.485  0.00  0.00    +0.000 A 
ATOM      5  C   UNL     1       2.805   5.180  19.345  0.00  0.00    +0.000 A 
ATOM      6  C   UNL     1       3.410   3.945  19.062  0.00  0.00    +0.000 A 
ENDROOT
BRANCH   1   8
ATOM      7  N   UNL     1       5.022   1.319  20.438  0.00  0.00    +0.000 NA
ATOM      8  C   UNL     1       3.931   1.573  19.783  0.00  0.00    +0.000 C 
BRANCH   7  12
ATOM      9  N   UNL     1       6.264   0.071  22.402  0.00  0.00    +0.000 N 
ATOM     10  C   UNL     1       6.342  -0.523  21.183  0.00  0.00    +0.000 C 
ATOM     11  O   UNL     1       6.991  -1.542  20.986  0.00  0.00    +0.000 OA
ATOM     12  N   UNL     1       5.625   0.122  20.199  0.00  0.00    +0.000 N 
ATOM     13  H   UNL     1       6.885  -0.248  23.130  0.00  0.00    +0.000 HD
ATOM     14  H   UNL     1       5.942   1.030  22.387  0.00  0.00    +0.000 HD
ATOM     15  H   UNL     1       5.665  -0.270  19.263  0.00  0.00    +0.000 HD
ENDBRANCH   7  12
ENDBRANCH   1   8
BRANCH   6  16
ATOM     16  O   UNL     1       4.275   3.835  17.953  0.00  0.00    +0.000 OA
BRANCH  16  17
ATOM     17  C   UNL     1       5.549   4.373  18.091  0.00  0.00    +0.000 C 
ATOM     18  O   UNL     1       6.108   4.595  19.159  0.00  0.00    +0.000 OA
BRANCH  17  19
ATOM     19  C   UNL     1       6.184   4.651  16.777  0.00  0.00    +0.000 A 
ATOM     20  C   UNL     1       5.808   3.863  15.753  0.00  0.00    +0.000 A 
ATOM     21  C   UNL     1       6.319   4.092  14.410  0.00  0.00    +0.000 A 
ATOM     22  C   UNL     1       5.867   3.371  13.302  0.00  0.00    +0.000 A 
ATOM     23  C   UNL     1       6.396   3.632  12.034  0.00  0.00    +0.000 A 
ATOM     24  C   UNL     1       7.391   4.601  11.870  0.00  0.00    +0.000 A 
ATOM     25  C   UNL     1       7.844   5.324  12.971  0.00  0.00    +0.000 A 
ATOM     26  C   UNL     1       7.291   5.068  14.224  0.00  0.00    +0.000 A 
ATOM     27  O   UNL     1       7.719   5.863  15.303  0.00  0.00    +0.000 OA
ATOM     28  C   UNL     1       7.106   5.785  16.552  0.00  0.00    +0.000 A 
ATOM     29  O   UNL     1       7.335   6.634  17.406  0.00  0.00    +0.000 OA
ENDBRANCH  17  19
ENDBRANCH  16  17
ENDBRANCH   6  16
TORSDOF 5
ENDMDL
MODEL 7
REMARK VINA RESULT:      -8.6      1.423      1.480
REMARK  Name = 
REMARK  5 active torsions:
REMARK  status: ('A' for Active; 'I' for Inactive)
REMARK    1  A    between atoms: N_4  and  N_5
REMARK    2  A    between atoms: C_6  and  C_7
REMARK    3  A    between atoms: C_12  and  O_13
REMARK    4  A    between atoms: O_13  and  C_14
REMARK    5  A    between atoms: C_14  and  C_16
REMARK                            x       y       z     vdW  Elec       q    Type
REMARK                         _______ _______ _______ _____ _____    ______ ____
ROOT
ATOM      1  C   UNL     1       2.147   5.459  19.688  0.00  0.00    +0.000 A 
ATOM      2  C   UNL     1       1.258   4.733  20.501  0.00  0.00    +0.000 A 
ATOM      3  C   UNL     1       1.036   3.374  20.283  0.00  0.00    +0.000 A 
ATOM      4  C   UNL     1       1.699   2.726  19.247  0.00  0.00    +0.000 A 
ATOM      5  C   UNL     1       2.583   3.433  18.433  0.00  0.00    +0.000 A 
ATOM      6  C   UNL     1       2.831   4.796  18.662  0.00  0.00    +0.000 A 
ENDROOT
BRANCH   1   8
ATOM      7  N   UNL     1       1.333   7.718  19.586  0.00  0.00    +0.000 NA
ATOM      8  C   UNL     1       2.285   6.912  19.943  0.00  0.00    +0.000 C 
BRANCH   7  12
ATOM      9  N   UNL     1       0.912   9.428  17.623  0.00  0.00    +0.000 N 
ATOM     10  C   UNL     1       1.392   9.961  18.776  0.00  0.00    +0.000 C 
ATOM     11  O   UNL     1       1.668  11.149  18.890  0.00  0.00    +0.000 OA
ATOM     12  N   UNL     1       1.535   9.048  19.799  0.00  0.00    +0.000 N 
ATOM     13  H   UNL     1       0.931   9.996  16.790  0.00  0.00    +0.000 HD
ATOM     14  H   UNL     1       0.983   8.422  17.559  0.00  0.00    +0.000 HD
ATOM     15  H   UNL     1       1.909   9.391  20.678  0.00  0.00    +0.000 HD
ENDBRANCH   7  12
ENDBRANCH   1   8
BRANCH   6  16
ATOM     16  O   UNL     1       3.657   5.509  17.766  0.00  0.00    +0.000 OA
BRANCH  16  17
ATOM     17  C   UNL     1       5.029   5.396  17.950  0.00  0.00    +0.000 C 
ATOM     18  O   UNL     1       5.598   5.394  19.035  0.00  0.00    +0.000 OA
BRANCH  17  19
ATOM     19  C   UNL     1       5.756   5.266  16.660  0.00  0.00    +0.000 A 
ATOM     20  C   UNL     1       5.218   4.429  15.753  0.00  0.00    +0.000 A 
ATOM     21  C   UNL     1       5.814   4.279  14.434  0.00  0.00    +0.000 A 
ATOM     22  C   UNL     1       5.223   3.510  13.428  0.00  0.00    +0.000 A 
ATOM     23  C   UNL     1       5.842   3.399  12.178  0.00  0.00    +0.000 A 
ATOM     24  C   UNL     1       7.060   4.040  11.934  0.00  0.00    +0.000 A 
ATOM     25  C   UNL     1       7.653   4.808  12.934  0.00  0.00    +0.000 A 
ATOM     26  C   UNL     1       7.013   4.928  14.165  0.00  0.00    +0.000 A 
ATOM     27  O   UNL     1       7.601   5.767  15.129  0.00  0.00    +0.000 OA
ATOM     28  C   UNL     1       6.950   6.071  16.323  0.00  0.00    +0.000 A 
ATOM     29  O   UNL     1       7.366   6.972  17.042  0.00  0.00    +0.000 OA
ENDBRANCH  17  19
ENDBRANCH  16  17
ENDBRANCH   6  16
TORSDOF 5
ENDMDL
MODEL 8
REMARK VINA RESULT:      -8.5      1.780      2.073
REMARK  Name = 
REMARK  5 active torsions:
REMARK  status: ('A' for Active; 'I' for Inactive)
REMARK    1  A    between atoms: N_4  and  N_5
REMARK    2  A    between atoms: C_6  and  C_7
REMARK    3  A    between atoms: C_12  and  O_13
REMARK    4  A    between atoms: O_13  and  C_14
REMARK    5  A    between atoms: C_14  and  C_16
REMARK                            x       y       z     vdW  Elec       q    Type
REMARK                         _______ _______ _______ _____ _____    ______ ____
ROOT
ATOM      1  C   UNL     1       2.465   4.727  19.873  0.00  0.00    +0.000 A 
ATOM      2  C   UNL     1       1.778   4.351  21.042  0.00  0.00    +0.000 A 
ATOM      3  C   UNL     1       2.083   3.160  21.698  0.00  0.00    +0.000 A 
ATOM      4  C   UNL     1       3.076   2.329  21.192  0.00  0.00    +0.000 A 
ATOM      5  C   UNL     1       3.764   2.690  20.034  0.00  0.00    +0.000 A 
ATOM      6  C   UNL     1       3.480   3.900  19.381  0.00  0.00    +0.000 A 
ENDROOT
BRANCH   1   8
ATOM      7  N   UNL     1       2.310   7.122  19.749  0.00  0.00    +0.000 NA
ATOM      8  C   UNL     1       2.043   5.978  19.199  0.00  0.00    +0.000 C 
BRANCH   7  12
ATOM      9  N   UNL     1       3.371   7.827  17.439  0.00  0.00    +0.000 N 
ATOM     10  C   UNL     1       2.434   8.673  17.940  0.00  0.00    +0.000 C 
ATOM     11  O   UNL     1       2.135   9.726  17.391  0.00  0.00    +0.000 OA
ATOM     12  N   UNL     1       1.855   8.237  19.112  0.00  0.00    +0.000 N 
ATOM     13  H   UNL     1       3.948   8.150  16.678  0.00  0.00    +0.000 HD
ATOM     14  H   UNL     1       3.727   7.149  18.100  0.00  0.00    +0.000 HD
ATOM     15  H   UNL     1       1.161   8.842  19.540  0.00  0.00    +0.000 HD
ENDBRANCH   7  12
ENDBRANCH   1   8
BRANCH   6  16
ATOM     16  O   UNL     1       4.125   4.196  18.161  0.00  0.00    +0.000 OA
BRANCH  16  17
ATOM     17  C   UNL     1       5.373   4.802  18.238  0.00  0.00    +0.000 C 
ATOM     18  O   UNL     1       5.897   5.206  19.270  0.00  0.00    +0.000 OA
BRANCH  17  19
ATOM     19  C   UNL     1       6.027   4.904  16.908  0.00  0.00    +0.000 A 
ATOM     20  C   UNL     1       5.545   4.102  15.941  0.00  0.00    +0.000 A 
ATOM     21  C   UNL     1       6.070   4.170  14.586  0.00  0.00    +0.000 A 
ATOM     22  C   UNL     1       5.521   3.438  13.531  0.00  0.00    +0.000 A 
ATOM     23  C   UNL     1       6.069   3.541  12.248  0.00  0.00    +0.000 A 
ATOM     24  C   UNL     1       7.178   4.361  12.018  0.00  0.00    +0.000 A 
ATOM     25  C   UNL     1       7.729   5.094  13.066  0.00  0.00    +0.000 A 
ATOM     26  C   UNL     1       7.158   4.998  14.334  0.00  0.00    +0.000 A 
ATOM     27  O   UNL     1       7.693   5.804  15.354  0.00  0.00    +0.000 OA
ATOM     28  C   UNL     1       7.085   5.892  16.605  0.00  0.00    +0.000 A 
ATOM     29  O   UNL     1       7.428   6.762  17.399  0.00  0.00    +0.000 OA
ENDBRANCH  17  19
ENDBRANCH  16  17
ENDBRANCH   6  16
TORSDOF 5
ENDMDL
MODEL 9
REMARK VINA RESULT:      -8.5      2.288      3.386
REMARK  Name = 
REMARK  5 active torsions:
REMARK  status: ('A' for Active; 'I' for Inactive)
REMARK    1  A    between atoms: N_4  and  N_5
REMARK    2  A    between atoms: C_6  and  C_7
REMARK    3  A    between atoms: C_12  and  O_13
REMARK    4  A    between atoms: O_13  and  C_14
REMARK    5  A    between atoms: C_14  and  C_16
REMARK                            x       y       z     vdW  Elec       q    Type
REMARK                         _______ _______ _______ _____ _____    ______ ____
ROOT
ATOM      1  C   UNL     1       2.463   6.354  19.320  0.00  0.00    +0.000 A 
ATOM      2  C   UNL     1       1.976   7.666  19.456  0.00  0.00    +0.000 A 
ATOM      3  C   UNL     1       2.315   8.654  18.531  0.00  0.00    +0.000 A 
ATOM      4  C   UNL     1       3.147   8.340  17.463  0.00  0.00    +0.000 A 
ATOM      5  C   UNL     1       3.636   7.043  17.317  0.00  0.00    +0.000 A 
ATOM      6  C   UNL     1       3.280   6.037  18.229  0.00  0.00    +0.000 A 
ENDROOT
BRANCH   1   8
ATOM      7  N   UNL     1       1.303   4.396  20.094  0.00  0.00    +0.000 NA
ATOM      8  C   UNL     1       2.107   5.375  20.374  0.00  0.00    +0.000 C 
BRANCH   7  12
ATOM      9  N   UNL     1       3.089   2.682  21.006  0.00  0.00    +0.000 N 
ATOM     10  C   UNL     1       1.855   2.601  21.567  0.00  0.00    +0.000 C 
ATOM     11  O   UNL     1       1.563   1.754  22.401  0.00  0.00    +0.000 OA
ATOM     12  N   UNL     1       0.970   3.556  21.114  0.00  0.00    +0.000 N 
ATOM     13  H   UNL     1       3.737   1.926  21.166  0.00  0.00    +0.000 HD
ATOM     14  H   UNL     1       3.133   3.222  20.152  0.00  0.00    +0.000 HD
ATOM     15  H   UNL     1       0.027   3.528  21.487  0.00  0.00    +0.000 HD
ENDBRANCH   7  12
ENDBRANCH   1   8
BRANCH   6  16
ATOM     16  O   UNL     1       3.863   4.757  18.112  0.00  0.00    +0.000 OA
BRANCH  16  17
ATOM     17  C   UNL     1       5.245   4.681  18.237  0.00  0.00    +0.000 C 
ATOM     18  O   UNL     1       5.851   4.528  19.291  0.00  0.00    +0.000 OA
BRANCH  17  19
ATOM     19  C   UNL     1       5.932   4.801  16.924  0.00  0.00    +0.000 A 
ATOM     20  C   UNL     1       5.460   4.026  15.930  0.00  0.00    +0.000 A 
ATOM     21  C   UNL     1       6.018   4.114  14.589  0.00  0.00    +0.000 A 
ATOM     22  C   UNL     1       5.482   3.413  13.507  0.00  0.00    +0.000 A 
ATOM     23  C   UNL     1       6.061   3.533  12.238  0.00  0.00    +0.000 A 
ATOM     24  C   UNL     1       7.187   4.340  12.051  0.00  0.00    +0.000 A 
ATOM     25  C   UNL     1       7.725   5.042  13.127  0.00  0.00    +0.000 A 
ATOM     26  C   UNL     1       7.123   4.930  14.379  0.00  0.00    +0.000 A 
ATOM     27  O   UNL     1       7.647   5.706  15.428  0.00  0.00    +0.000 OA
ATOM     28  C   UNL     1       7.011   5.778  16.666  0.00  0.00    +0.000 A 
ATOM     29  O   UNL     1       7.349   6.626  17.485  0.00  0.00    +0.000 OA
ENDBRANCH  17  19
ENDBRANCH  16  17
ENDBRANCH   6  16
TORSDOF 5
ENDMDL
