MODEL 1
REMARK VINA RESULT:      -7.6      0.000      0.000
REMARK  Name = 
REMARK  3 active torsions:
REMARK  status: ('A' for Active; 'I' for Inactive)
REMARK    1  A    between atoms: C_2  and  C_5
REMARK    2  A    between atoms: C_8  and  N_9
REMARK    3  A    between atoms: N_9  and  C_10
REMARK                            x       y       z     vdW  Elec       q    Type
REMARK                         _______ _______ _______ _____ _____    ______ ____
ROOT
ATOM      1  C   UNL     1       6.656   6.659  17.594  0.00  0.00    +0.000 A 
ATOM      2  C   UNL     1       6.990   5.335  17.353  0.00  0.00    +0.000 A 
ATOM      3  N   UNL     1       6.087   4.326  17.236  0.00  0.00    +0.000 NA
ATOM      4  C   UNL     1       4.768   4.620  17.362  0.00  0.00    +0.000 A 
ATOM      5  C   UNL     1       4.353   5.942  17.606  0.00  0.00    +0.000 A 
ATOM      6 CL   UNL     1       2.688   6.335  17.841  0.00  0.00    +0.000 Cl
ATOM      7  C   UNL     1       5.300   6.959  17.729  0.00  0.00    +0.000 A 
ENDROOT
BRANCH   1   9
ATOM      8  F   UNL     1       8.577   7.549  18.712  0.00  0.00    +0.000 F 
ATOM      9  C   UNL     1       7.709   7.719  17.677  0.00  0.00    +0.000 C 
ATOM     10  F   UNL     1       7.180   8.965  17.836  0.00  0.00    +0.000 F 
ATOM     11  F   UNL     1       8.474   7.780  16.553  0.00  0.00    +0.000 F 
ENDBRANCH   1   9
BRANCH   4  12
ATOM     12  N   UNL     1       3.817   3.617  17.124  0.00  0.00    +0.000 N 
ATOM     13  H   UNL     1       2.941   4.052  16.844  0.00  0.00    +0.000 HD
BRANCH  12  14
ATOM     14  C   UNL     1       3.618   2.593  18.170  0.00  0.00    +0.000 C 
ATOM     15  C   UNL     1       4.307   3.084  19.455  0.00  0.00    +0.000 C 
ATOM     16  C   UNL     1       4.000   2.395  20.781  0.00  0.00    +0.000 C 
ATOM     17  C   UNL     1       2.578   2.468  21.332  0.00  0.00    +0.000 C 
ATOM     18  C   UNL     1       1.830   3.771  21.061  0.00  0.00    +0.000 C 
ATOM     19  C   UNL     1       0.731   3.636  20.010  0.00  0.00    +0.000 C 
ATOM     20  C   UNL     1       1.143   3.405  18.555  0.00  0.00    +0.000 C 
ATOM     21  C   UNL     1       2.113   2.262  18.243  0.00  0.00    +0.000 C 
ENDBRANCH  12  14
ENDBRANCH   4  12
TORSDOF 3
ENDMDL
MODEL 2
REMARK VINA RESULT:      -7.6      0.900      1.439
REMARK  Name = 
REMARK  3 active torsions:
REMARK  status: ('A' for Active; 'I' for Inactive)
REMARK    1  A    between atoms: C_2  and  C_5
REMARK    2  A    between atoms: C_8  and  N_9
REMARK    3  A    between atoms: N_9  and  C_10
REMARK                            x       y       z     vdW  Elec       q    Type
REMARK                         _______ _______ _______ _____ _____    ______ ____
ROOT
ATOM      1  C   UNL     1       7.023   6.780  17.928  0.00  0.00    +0.000 A 
ATOM      2  C   UNL     1       7.553   5.556  18.307  0.00  0.00    +0.000 A 
ATOM      3  N   UNL     1       6.836   4.405  18.398  0.00  0.00    +0.000 NA
ATOM      4  C   UNL     1       5.512   4.443  18.101  0.00  0.00    +0.000 A 
ATOM      5  C   UNL     1       4.904   5.649  17.707  0.00  0.00    +0.000 A 
ATOM      6 CL   UNL     1       3.209   5.743  17.391  0.00  0.00    +0.000 Cl
ATOM      7  C   UNL     1       5.661   6.819  17.628  0.00  0.00    +0.000 A 
ENDROOT
BRANCH   1   9
ATOM      8  F   UNL     1       8.635   8.038  16.683  0.00  0.00    +0.000 F 
ATOM      9  C   UNL     1       7.887   7.997  17.820  0.00  0.00    +0.000 C 
ATOM     10  F   UNL     1       8.772   8.100  18.850  0.00  0.00    +0.000 F 
ATOM     11  F   UNL     1       7.164   9.150  17.834  0.00  0.00    +0.000 F 
ENDBRANCH   1   9
BRANCH   4  12
ATOM     12  N   UNL     1       4.783   3.245  18.072  0.00  0.00    +0.000 N 
ATOM     13  H   UNL     1       4.085   3.301  17.333  0.00  0.00    +0.000 HD
BRANCH  12  14
ATOM     14  C   UNL     1       4.208   2.755  19.341  0.00  0.00    +0.000 C 
ATOM     15  C   UNL     1       3.728   3.974  20.148  0.00  0.00    +0.000 C 
ATOM     16  C   UNL     1       2.809   3.765  21.348  0.00  0.00    +0.000 C 
ATOM     17  C   UNL     1       1.418   3.181  21.111  0.00  0.00    +0.000 C 
ATOM     18  C   UNL     1       0.740   3.594  19.806  0.00  0.00    +0.000 C 
ATOM     19  C   UNL     1       0.686   2.477  18.767  0.00  0.00    +0.000 C 
ATOM     20  C   UNL     1       1.995   2.033  18.111  0.00  0.00    +0.000 C 
ATOM     21  C   UNL     1       3.174   1.658  19.013  0.00  0.00    +0.000 C 
ENDBRANCH  12  14
ENDBRANCH   4  12
TORSDOF 3
ENDMDL
MODEL 3
REMARK VINA RESULT:      -7.3      2.937      3.746
REMARK  Name = 
REMARK  3 active torsions:
REMARK  status: ('A' for Active; 'I' for Inactive)
REMARK    1  A    between atoms: C_2  and  C_5
REMARK    2  A    between atoms: C_8  and  N_9
REMARK    3  A    between atoms: N_9  and  C_10
REMARK                            x       y       z     vdW  Elec       q    Type
REMARK                         _______ _______ _______ _____ _____    ______ ____
ROOT
ATOM      1  C   UNL     1       6.999   4.827  14.183  0.00  0.00    +0.000 A 
ATOM      2  C   UNL     1       5.725   4.280  14.202  0.00  0.00    +0.000 A 
ATOM      3  N   UNL     1       5.016   4.028  15.334  0.00  0.00    +0.000 NA
ATOM      4  C   UNL     1       5.581   4.327  16.532  0.00  0.00    +0.000 A 
ATOM      5  C   UNL     1       6.871   4.886  16.591  0.00  0.00    +0.000 A 
ATOM      6 CL   UNL     1       7.642   5.212  18.102  0.00  0.00    +0.000 Cl
ATOM      7  C   UNL     1       7.581   5.129  15.415  0.00  0.00    +0.000 A 
ENDROOT
BRANCH   1   9
ATOM      8  F   UNL     1       7.333   6.277  12.309  0.00  0.00    +0.000 F 
ATOM      9  C   UNL     1       7.703   5.105  12.892  0.00  0.00    +0.000 C 
ATOM     10  F   UNL     1       7.478   4.138  11.960  0.00  0.00    +0.000 F 
ATOM     11  F   UNL     1       9.054   5.171  13.042  0.00  0.00    +0.000 F 
ENDBRANCH   1   9
BRANCH   4  12
ATOM     12  N   UNL     1       4.819   4.189  17.701  0.00  0.00    +0.000 N 
ATOM     13  H   UNL     1       5.266   3.503  18.307  0.00  0.00    +0.000 HD
BRANCH  12  14
ATOM     14  C   UNL     1       3.370   3.939  17.556  0.00  0.00    +0.000 C 
ATOM     15  C   UNL     1       3.043   2.612  18.261  0.00  0.00    +0.000 C 
ATOM     16  C   UNL     1       1.588   2.257  18.553  0.00  0.00    +0.000 C 
ATOM     17  C   UNL     1       0.797   3.141  19.515  0.00  0.00    +0.000 C 
ATOM     18  C   UNL     1       1.593   3.731  20.677  0.00  0.00    +0.000 C 
ATOM     19  C   UNL     1       1.861   5.226  20.535  0.00  0.00    +0.000 C 
ATOM     20  C   UNL     1       2.834   5.689  19.449  0.00  0.00    +0.000 C 
ATOM     21  C   UNL     1       2.613   5.203  18.014  0.00  0.00    +0.000 C 
ENDBRANCH  12  14
ENDBRANCH   4  12
TORSDOF 3
ENDMDL
MODEL 4
REMARK VINA RESULT:      -7.3      1.383      1.801
REMARK  Name = 
REMARK  3 active torsions:
REMARK  status: ('A' for Active; 'I' for Inactive)
REMARK    1  A    between atoms: C_2  and  C_5
REMARK    2  A    between atoms: C_8  and  N_9
REMARK    3  A    between atoms: N_9  and  C_10
REMARK                            x       y       z     vdW  Elec       q    Type
REMARK                         _______ _______ _______ _____ _____    ______ ____
ROOT
ATOM      1  C   UNL     1       6.565   6.703  17.353  0.00  0.00    +0.000 A 
ATOM      2  C   UNL     1       5.335   6.737  17.993  0.00  0.00    +0.000 A 
ATOM      3  N   UNL     1       4.339   5.836  17.787  0.00  0.00    +0.000 NA
ATOM      4  C   UNL     1       4.548   4.831  16.897  0.00  0.00    +0.000 A 
ATOM      5  C   UNL     1       5.772   4.732  16.211  0.00  0.00    +0.000 A 
ATOM      6 CL   UNL     1       6.041   3.507  15.023  0.00  0.00    +0.000 Cl
ATOM      7  C   UNL     1       6.777   5.673  16.435  0.00  0.00    +0.000 A 
ENDROOT
BRANCH   1   9
ATOM      8  F   UNL     1       7.136   8.959  17.915  0.00  0.00    +0.000 F 
ATOM      9  C   UNL     1       7.624   7.714  17.660  0.00  0.00    +0.000 C 
ATOM     10  F   UNL     1       8.510   7.865  16.636  0.00  0.00    +0.000 F 
ATOM     11  F   UNL     1       8.367   7.373  18.748  0.00  0.00    +0.000 F 
ENDBRANCH   1   9
BRANCH   4  12
ATOM     12  N   UNL     1       3.581   3.825  16.761  0.00  0.00    +0.000 N 
ATOM     13  H   UNL     1       2.672   4.259  16.613  0.00  0.00    +0.000 HD
BRANCH  12  14
ATOM     14  C   UNL     1       3.530   2.772  17.796  0.00  0.00    +0.000 C 
ATOM     15  C   UNL     1       4.398   3.227  18.982  0.00  0.00    +0.000 C 
ATOM     16  C   UNL     1       4.282   2.501  20.319  0.00  0.00    +0.000 C 
ATOM     17  C   UNL     1       2.953   2.558  21.070  0.00  0.00    +0.000 C 
ATOM     18  C   UNL     1       2.179   3.868  20.946  0.00  0.00    +0.000 C 
ATOM     19  C   UNL     1       0.940   3.762  20.060  0.00  0.00    +0.000 C 
ATOM     20  C   UNL     1       1.139   3.572  18.555  0.00  0.00    +0.000 C 
ATOM     21  C   UNL     1       2.050   2.439  18.075  0.00  0.00    +0.000 C 
ENDBRANCH  12  14
ENDBRANCH   4  12
TORSDOF 3
ENDMDL
MODEL 5
REMARK VINA RESULT:      -7.2      5.784      7.092
REMARK  Name = 
REMARK  3 active torsions:
REMARK  status: ('A' for Active; 'I' for Inactive)
REMARK    1  A    between atoms: C_2  and  C_5
REMARK    2  A    between atoms: C_8  and  N_9
REMARK    3  A    between atoms: N_9  and  C_10
REMARK                            x       y       z     vdW  Elec       q    Type
REMARK                         _______ _______ _______ _____ _____    ______ ____
ROOT
ATOM      1  C   UNL     1       1.925   4.236  19.019  0.00  0.00    +0.000 A 
ATOM      2  C   UNL     1       1.519   4.474  20.323  0.00  0.00    +0.000 A 
ATOM      3  N   UNL     1       1.523   5.697  20.917  0.00  0.00    +0.000 NA
ATOM      4  C   UNL     1       1.949   6.765  20.195  0.00  0.00    +0.000 A 
ATOM      5  C   UNL     1       2.376   6.601  18.865  0.00  0.00    +0.000 A 
ATOM      6 CL   UNL     1       2.989   7.928  17.946  0.00  0.00    +0.000 Cl
ATOM      7  C   UNL     1       2.369   5.334  18.280  0.00  0.00    +0.000 A 
ENDROOT
BRANCH   1   9
ATOM      8  F   UNL     1       2.270   2.808  17.129  0.00  0.00    +0.000 F 
ATOM      9  C   UNL     1       1.861   2.864  18.427  0.00  0.00    +0.000 C 
ATOM     10  F   UNL     1       0.599   2.350  18.441  0.00  0.00    +0.000 F 
ATOM     11  F   UNL     1       2.634   1.971  19.102  0.00  0.00    +0.000 F 
ENDBRANCH   1   9
BRANCH   4  12
ATOM     12  N   UNL     1       1.846   8.049  20.748  0.00  0.00    +0.000 N 
ATOM     13  H   UNL     1       2.564   8.161  21.461  0.00  0.00    +0.000 HD
BRANCH  12  14
ATOM     14  C   UNL     1       0.519   8.491  21.224  0.00  0.00    +0.000 C 
ATOM     15  C   UNL     1       0.713   9.228  22.560  0.00  0.00    +0.000 C 
ATOM     16  C   UNL     1      -0.428  10.069  23.126  0.00  0.00    +0.000 C 
ATOM     17  C   UNL     1      -0.892  11.294  22.342  0.00  0.00    +0.000 C 
ATOM     18  C   UNL     1       0.201  12.056  21.596  0.00  0.00    +0.000 C 
ATOM     19  C   UNL     1       0.153  11.864  20.082  0.00  0.00    +0.000 C 
ATOM     20  C   UNL     1       0.523  10.493  19.513  0.00  0.00    +0.000 C 
ATOM     21  C   UNL     1      -0.177   9.254  20.077  0.00  0.00    +0.000 C 
ENDBRANCH  12  14
ENDBRANCH   4  12
TORSDOF 3
ENDMDL
MODEL 6
REMARK VINA RESULT:      -7.2      3.643      4.949
REMARK  Name = 
REMARK  3 active torsions:
REMARK  status: ('A' for Active; 'I' for Inactive)
REMARK    1  A    between atoms: C_2  and  C_5
REMARK    2  A    between atoms: C_8  and  N_9
REMARK    3  A    between atoms: N_9  and  C_10
REMARK                            x       y       z     vdW  Elec       q    Type
REMARK                         _______ _______ _______ _____ _____    ______ ____
ROOT
ATOM      1  C   UNL     1       6.537   4.098  13.473  0.00  0.00    +0.000 A 
ATOM      2  C   UNL     1       7.403   5.001  14.071  0.00  0.00    +0.000 A 
ATOM      3  N   UNL     1       7.398   5.305  15.396  0.00  0.00    +0.000 NA
ATOM      4  C   UNL     1       6.491   4.690  16.198  0.00  0.00    +0.000 A 
ATOM      5  C   UNL     1       5.581   3.761  15.662  0.00  0.00    +0.000 A 
ATOM      6 CL   UNL     1       4.371   3.016  16.644  0.00  0.00    +0.000 Cl
ATOM      7  C   UNL     1       5.602   3.471  14.297  0.00  0.00    +0.000 A 
ENDROOT
BRANCH   1   9
ATOM      8  F   UNL     1       7.240   2.608  11.736  0.00  0.00    +0.000 F 
ATOM      9  C   UNL     1       6.627   3.792  12.011  0.00  0.00    +0.000 C 
ATOM     10  F   UNL     1       7.324   4.740  11.324  0.00  0.00    +0.000 F 
ATOM     11  F   UNL     1       5.404   3.727  11.418  0.00  0.00    +0.000 F 
ENDBRANCH   1   9
BRANCH   4  12
ATOM     12  N   UNL     1       6.551   4.899  17.583  0.00  0.00    +0.000 N 
ATOM     13  H   UNL     1       6.347   4.022  18.058  0.00  0.00    +0.000 HD
BRANCH  12  14
ATOM     14  C   UNL     1       5.778   6.026  18.145  0.00  0.00    +0.000 C 
ATOM     15  C   UNL     1       4.824   6.540  17.054  0.00  0.00    +0.000 C 
ATOM     16  C   UNL     1       3.684   7.480  17.437  0.00  0.00    +0.000 C 
ATOM     17  C   UNL     1       2.589   6.961  18.366  0.00  0.00    +0.000 C 
ATOM     18  C   UNL     1       2.221   5.489  18.199  0.00  0.00    +0.000 C 
ATOM     19  C   UNL     1       2.718   4.603  19.338  0.00  0.00    +0.000 C 
ATOM     20  C   UNL     1       4.223   4.359  19.463  0.00  0.00    +0.000 C 
ATOM     21  C   UNL     1       5.161   5.569  19.483  0.00  0.00    +0.000 C 
ENDBRANCH  12  14
ENDBRANCH   4  12
TORSDOF 3
ENDMDL
MODEL 7
REMARK VINA RESULT:      -7.1      1.523      1.922
REMARK  Name = 
REMARK  3 active torsions:
REMARK  status: ('A' for Active; 'I' for Inactive)
REMARK    1  A    between atoms: C_2  and  C_5
REMARK    2  A    between atoms: C_8  and  N_9
REMARK    3  A    between atoms: N_9  and  C_10
REMARK                            x       y       z     vdW  Elec       q    Type
REMARK                         _______ _______ _______ _____ _____    ______ ____
ROOT
ATOM      1  C   UNL     1       7.141   6.768  17.925  0.00  0.00    +0.000 A 
ATOM      2  C   UNL     1       6.928   6.102  19.122  0.00  0.00    +0.000 A 
ATOM      3  N   UNL     1       6.178   4.975  19.250  0.00  0.00    +0.000 NA
ATOM      4  C   UNL     1       5.595   4.456  18.139  0.00  0.00    +0.000 A 
ATOM      5  C   UNL     1       5.768   5.077  16.888  0.00  0.00    +0.000 A 
ATOM      6 CL   UNL     1       4.981   4.481  15.470  0.00  0.00    +0.000 Cl
ATOM      7  C   UNL     1       6.536   6.237  16.785  0.00  0.00    +0.000 A 
ENDROOT
BRANCH   1   9
ATOM      8  F   UNL     1       8.908   8.071  18.878  0.00  0.00    +0.000 F 
ATOM      9  C   UNL     1       8.007   7.986  17.861  0.00  0.00    +0.000 C 
ATOM     10  F   UNL     1       7.285   9.140  17.907  0.00  0.00    +0.000 F 
ATOM     11  F   UNL     1       8.733   8.046  16.712  0.00  0.00    +0.000 F 
ENDBRANCH   1   9
BRANCH   4  12
ATOM     12  N   UNL     1       4.921   3.230  18.229  0.00  0.00    +0.000 N 
ATOM     13  H   UNL     1       5.413   2.540  17.665  0.00  0.00    +0.000 HD
BRANCH  12  14
ATOM     14  C   UNL     1       3.466   3.221  17.970  0.00  0.00    +0.000 C 
ATOM     15  C   UNL     1       2.885   1.927  18.563  0.00  0.00    +0.000 C 
ATOM     16  C   UNL     1       1.374   1.791  18.732  0.00  0.00    +0.000 C 
ATOM     17  C   UNL     1       0.658   2.736  19.695  0.00  0.00    +0.000 C 
ATOM     18  C   UNL     1       1.443   3.129  20.944  0.00  0.00    +0.000 C 
ATOM     19  C   UNL     1       1.949   4.568  20.919  0.00  0.00    +0.000 C 
ATOM     20  C   UNL     1       3.063   4.929  19.933  0.00  0.00    +0.000 C 
ATOM     21  C   UNL     1       2.880   4.562  18.458  0.00  0.00    +0.000 C 
ENDBRANCH  12  14
ENDBRANCH   4  12
TORSDOF 3
ENDMDL
MODEL 8
REMARK VINA RESULT:      -7.1      2.375      3.267
REMARK  Name = 
REMARK  3 active torsions:
REMARK  status: ('A' for Active; 'I' for Inactive)
REMARK    1  A    between atoms: C_2  and  C_5
REMARK    2  A    between atoms: C_8  and  N_9
REMARK    3  A    between atoms: N_9  and  C_10
REMARK                            x       y       z     vdW  Elec       q    Type
REMARK                         _______ _______ _______ _____ _____    ______ ____
ROOT
ATOM      1  C   UNL     1       5.886   5.117  16.289  0.00  0.00    +0.000 A 
ATOM      2  C   UNL     1       5.891   4.374  17.460  0.00  0.00    +0.000 A 
ATOM      3  N   UNL     1       5.155   4.675  18.562  0.00  0.00    +0.000 NA
ATOM      4  C   UNL     1       4.357   5.773  18.527  0.00  0.00    +0.000 A 
ATOM      5  C   UNL     1       4.299   6.575  17.372  0.00  0.00    +0.000 A 
ATOM      6 CL   UNL     1       3.348   8.016  17.323  0.00  0.00    +0.000 Cl
ATOM      7  C   UNL     1       5.070   6.248  16.256  0.00  0.00    +0.000 A 
ENDROOT
BRANCH   1   9
ATOM      8  F   UNL     1       6.551   5.513  14.024  0.00  0.00    +0.000 F 
ATOM      9  C   UNL     1       6.701   4.700  15.105  0.00  0.00    +0.000 C 
ATOM     10  F   UNL     1       6.389   3.446  14.675  0.00  0.00    +0.000 F 
ATOM     11  F   UNL     1       8.035   4.680  15.375  0.00  0.00    +0.000 F 
ENDBRANCH   1   9
BRANCH   4  12
ATOM     12  N   UNL     1       3.500   6.031  19.607  0.00  0.00    +0.000 N 
ATOM     13  H   UNL     1       3.957   5.737  20.468  0.00  0.00    +0.000 HD
BRANCH  12  14
ATOM     14  C   UNL     1       2.111   5.536  19.519  0.00  0.00    +0.000 C 
ATOM     15  C   UNL     1       2.042   4.512  18.374  0.00  0.00    +0.000 C 
ATOM     16  C   UNL     1       0.823   3.602  18.254  0.00  0.00    +0.000 C 
ATOM     17  C   UNL     1       0.544   2.600  19.373  0.00  0.00    +0.000 C 
ATOM     18  C   UNL     1       1.777   1.991  20.038  0.00  0.00    +0.000 C 
ATOM     19  C   UNL     1       2.033   2.521  21.446  0.00  0.00    +0.000 C 
ATOM     20  C   UNL     1       2.491   3.972  21.604  0.00  0.00    +0.000 C 
ATOM     21  C   UNL     1       1.673   5.074  20.924  0.00  0.00    +0.000 C 
ENDBRANCH  12  14
ENDBRANCH   4  12
TORSDOF 3
ENDMDL
MODEL 9
REMARK VINA RESULT:      -7.0      5.063      6.109
REMARK  Name = 
REMARK  3 active torsions:
REMARK  status: ('A' for Active; 'I' for Inactive)
REMARK    1  A    between atoms: C_2  and  C_5
REMARK    2  A    between atoms: C_8  and  N_9
REMARK    3  A    between atoms: N_9  and  C_10
REMARK                            x       y       z     vdW  Elec       q    Type
REMARK                         _______ _______ _______ _____ _____    ______ ____
ROOT
ATOM      1  C   UNL     1       0.225   9.983  20.313  0.00  0.00    +0.000 A 
ATOM      2  C   UNL     1       0.318   9.017  21.304  0.00  0.00    +0.000 A 
ATOM      3  N   UNL     1       1.082   7.897  21.214  0.00  0.00    +0.000 NA
ATOM      4  C   UNL     1       1.808   7.697  20.084  0.00  0.00    +0.000 A 
ATOM      5  C   UNL     1       1.765   8.635  19.036  0.00  0.00    +0.000 A 
ATOM      6 CL   UNL     1       2.622   8.375  17.559  0.00  0.00    +0.000 Cl
ATOM      7  C   UNL     1       0.967   9.774  19.150  0.00  0.00    +0.000 A 
ENDROOT
BRANCH   1   9
ATOM      8  F   UNL     1       0.076  12.371  20.359  0.00  0.00    +0.000 F 
ATOM      9  C   UNL     1      -0.614  11.207  20.502  0.00  0.00    +0.000 C 
ATOM     10  F   UNL     1      -1.183  11.261  21.738  0.00  0.00    +0.000 F 
ATOM     11  F   UNL     1      -1.644  11.271  19.614  0.00  0.00    +0.000 F 
ENDBRANCH   1   9
BRANCH   4  12
ATOM     12  N   UNL     1       2.694   6.612  20.022  0.00  0.00    +0.000 N 
ATOM     13  H   UNL     1       3.618   6.954  19.768  0.00  0.00    +0.000 HD
BRANCH  12  14
ATOM     14  C   UNL     1       2.295   5.441  19.215  0.00  0.00    +0.000 C 
ATOM     15  C   UNL     1       3.559   4.870  18.549  0.00  0.00    +0.000 C 
ATOM     16  C   UNL     1       3.512   3.481  17.918  0.00  0.00    +0.000 C 
ATOM     17  C   UNL     1       3.256   2.276  18.821  0.00  0.00    +0.000 C 
ATOM     18  C   UNL     1       3.856   2.360  20.223  0.00  0.00    +0.000 C 
ATOM     19  C   UNL     1       2.818   2.592  21.317  0.00  0.00    +0.000 C 
ATOM     20  C   UNL     1       2.122   3.953  21.380  0.00  0.00    +0.000 C 
ATOM     21  C   UNL     1       1.465   4.497  20.109  0.00  0.00    +0.000 C 
ENDBRANCH  12  14
ENDBRANCH   4  12
TORSDOF 3
ENDMDL
