MODEL 1
REMARK VINA RESULT:      -8.3      0.000      0.000
REMARK  Name = 
REMARK  5 active torsions:
REMARK  status: ('A' for Active; 'I' for Inactive)
REMARK    1  A    between atoms: C_1  and  C_2
REMARK    2  A    between atoms: N_4  and  C_5
REMARK    3  A    between atoms: C_16  and  C_17
REMARK    4  A    between atoms: N_19  and  C_20
REMARK    5  A    between atoms: N_19  and  C_21
REMARK                            x       y       z     vdW  Elec       q    Type
REMARK                         _______ _______ _______ _____ _____    ______ ____
ROOT
ATOM      1  C   UNL     1      -2.390  12.407  19.836  0.00  0.00    +0.000 A 
ATOM      2  C   UNL     1      -2.218  11.763  18.608  0.00  0.00    +0.000 A 
ATOM      3  C   UNL     1      -1.183  10.833  18.417  0.00  0.00    +0.000 A 
ATOM      4  C   UNL     1      -0.312  10.514  19.462  0.00  0.00    +0.000 A 
ATOM      5  C   UNL     1      -0.481  11.185  20.693  0.00  0.00    +0.000 A 
ATOM      6  C   UNL     1      -1.478  12.153  20.862  0.00  0.00    +0.000 A 
ATOM      7  O   UNL     1       0.382  11.016  21.745  0.00  0.00    +0.000 OA
ATOM      8  C   UNL     1       0.324   9.753  22.431  0.00  0.00    +0.000 C 
ATOM      9  C   UNL     1       0.096   8.486  21.600  0.00  0.00    +0.000 C 
ATOM     10  C   UNL     1       0.908   8.493  20.345  0.00  0.00    +0.000 A 
ATOM     11  C   UNL     1       2.009   7.640  20.029  0.00  0.00    +0.000 A 
ATOM     12  C   UNL     1       2.500   7.835  18.749  0.00  0.00    +0.000 A 
ATOM     13  S   UNL     1       1.680   9.172  18.006  0.00  0.00    +0.000 S 
ATOM     14  C   UNL     1       0.674   9.426  19.353  0.00  0.00    +0.000 A 
ENDROOT
BRANCH   1  18
ATOM     15  C   UNL     1      -5.676  14.177  20.404  0.00  0.00    +0.000 C 
ATOM     16  C   UNL     1      -4.802  12.993  20.074  0.00  0.00    +0.000 C 
ATOM     17  O   UNL     1      -5.301  11.900  19.827  0.00  0.00    +0.000 OA
ATOM     18  N   UNL     1      -3.452  13.300  20.106  0.00  0.00    +0.000 N 
ATOM     19  H   UNL     1      -3.196  14.208  20.477  0.00  0.00    +0.000 HD
ENDBRANCH   1  18
BRANCH  12  20
ATOM     20  C   UNL     1       3.589   7.191  17.994  0.00  0.00    +0.000 C 
ATOM     21  O   UNL     1       4.321   7.871  17.265  0.00  0.00    +0.000 OA
ATOM     22  N   UNL     1       3.776   5.785  18.054  0.00  0.00    +0.000 N 
ATOM     23  C   UNL     1       2.842   4.797  18.597  0.00  0.00    +0.000 C 
BRANCH  22  24
ATOM     24  C   UNL     1       4.856   5.214  17.287  0.00  0.00    +0.000 A 
ATOM     25  C   UNL     1       4.586   4.715  15.999  0.00  0.00    +0.000 A 
ATOM     26  C   UNL     1       5.589   4.127  15.226  0.00  0.00    +0.000 A 
ATOM     27  C   UNL     1       6.880   4.023  15.735  0.00  0.00    +0.000 A 
ATOM     28  C   UNL     1       7.167   4.502  17.011  0.00  0.00    +0.000 A 
ATOM     29  C   UNL     1       6.165   5.093  17.791  0.00  0.00    +0.000 A 
ATOM     30 CL   UNL     1       6.571   5.511  19.422  0.00  0.00    +0.000 Cl
ENDBRANCH  22  24
ENDBRANCH  12  20
TORSDOF 3
ENDMDL
MODEL 2
REMARK VINA RESULT:      -8.3      1.492      1.746
REMARK  Name = 
REMARK  5 active torsions:
REMARK  status: ('A' for Active; 'I' for Inactive)
REMARK    1  A    between atoms: C_1  and  C_2
REMARK    2  A    between atoms: N_4  and  C_5
REMARK    3  A    between atoms: C_16  and  C_17
REMARK    4  A    between atoms: N_19  and  C_20
REMARK    5  A    between atoms: N_19  and  C_21
REMARK                            x       y       z     vdW  Elec       q    Type
REMARK                         _______ _______ _______ _____ _____    ______ ____
ROOT
ATOM      1  C   UNL     1      -2.554  12.826  21.068  0.00  0.00    +0.000 A 
ATOM      2  C   UNL     1      -2.456  12.301  19.776  0.00  0.00    +0.000 A 
ATOM      3  C   UNL     1      -1.511  11.309  19.469  0.00  0.00    +0.000 A 
ATOM      4  C   UNL     1      -0.660  10.807  20.455  0.00  0.00    +0.000 A 
ATOM      5  C   UNL     1      -0.752  11.357  21.752  0.00  0.00    +0.000 A 
ATOM      6  C   UNL     1      -1.656  12.386  22.042  0.00  0.00    +0.000 A 
ATOM      7  O   UNL     1       0.104  11.003  22.763  0.00  0.00    +0.000 OA
ATOM      8  C   UNL     1      -0.059   9.686  23.316  0.00  0.00    +0.000 C 
ATOM      9  C   UNL     1      -0.410   8.538  22.363  0.00  0.00    +0.000 C 
ATOM     10  C   UNL     1       0.385   8.604  21.098  0.00  0.00    +0.000 A 
ATOM     11  C   UNL     1       1.401   7.696  20.672  0.00  0.00    +0.000 A 
ATOM     12  C   UNL     1       1.892   7.980  19.409  0.00  0.00    +0.000 A 
ATOM     13  S   UNL     1       1.186   9.455  18.827  0.00  0.00    +0.000 S 
ATOM     14  C   UNL     1       0.224   9.653  20.214  0.00  0.00    +0.000 A 
ENDROOT
BRANCH   1  18
ATOM     15  C   UNL     1      -5.563  14.737  22.311  0.00  0.00    +0.000 C 
ATOM     16  C   UNL     1      -4.754  13.495  22.031  0.00  0.00    +0.000 C 
ATOM     17  O   UNL     1      -5.192  12.388  22.327  0.00  0.00    +0.000 OA
ATOM     18  N   UNL     1      -3.529  13.775  21.452  0.00  0.00    +0.000 N 
ATOM     19  H   UNL     1      -3.251  14.749  21.412  0.00  0.00    +0.000 HD
ENDBRANCH   1  18
BRANCH  12  20
ATOM     20  C   UNL     1       2.910   7.325  18.569  0.00  0.00    +0.000 C 
ATOM     21  O   UNL     1       3.226   7.824  17.483  0.00  0.00    +0.000 OA
ATOM     22  N   UNL     1       3.495   6.096  18.970  0.00  0.00    +0.000 N 
ATOM     23  C   UNL     1       3.034   5.211  20.041  0.00  0.00    +0.000 C 
BRANCH  22  24
ATOM     24  C   UNL     1       4.480   5.502  18.100  0.00  0.00    +0.000 A 
ATOM     25  C   UNL     1       5.781   6.040  18.077  0.00  0.00    +0.000 A 
ATOM     26  C   UNL     1       6.764   5.521  17.233  0.00  0.00    +0.000 A 
ATOM     27  C   UNL     1       6.458   4.455  16.392  0.00  0.00    +0.000 A 
ATOM     28  C   UNL     1       5.174   3.913  16.391  0.00  0.00    +0.000 A 
ATOM     29  C   UNL     1       4.184   4.431  17.236  0.00  0.00    +0.000 A 
ATOM     30 CL   UNL     1       2.579   3.806  17.052  0.00  0.00    +0.000 Cl
ENDBRANCH  22  24
ENDBRANCH  12  20
TORSDOF 3
ENDMDL
MODEL 3
REMARK VINA RESULT:      -7.9      1.053      1.053
REMARK  Name = 
REMARK  5 active torsions:
REMARK  status: ('A' for Active; 'I' for Inactive)
REMARK    1  A    between atoms: C_1  and  C_2
REMARK    2  A    between atoms: N_4  and  C_5
REMARK    3  A    between atoms: C_16  and  C_17
REMARK    4  A    between atoms: N_19  and  C_20
REMARK    5  A    between atoms: N_19  and  C_21
REMARK                            x       y       z     vdW  Elec       q    Type
REMARK                         _______ _______ _______ _____ _____    ______ ____
ROOT
ATOM      1  C   UNL     1      -2.327  12.349  20.272  0.00  0.00    +0.000 A 
ATOM      2  C   UNL     1      -2.179  11.775  19.006  0.00  0.00    +0.000 A 
ATOM      3  C   UNL     1      -1.162  10.841  18.750  0.00  0.00    +0.000 A 
ATOM      4  C   UNL     1      -0.285  10.449  19.763  0.00  0.00    +0.000 A 
ATOM      5  C   UNL     1      -0.428  11.049  21.033  0.00  0.00    +0.000 A 
ATOM      6  C   UNL     1      -1.407  12.022  21.270  0.00  0.00    +0.000 A 
ATOM      7  O   UNL     1       0.444  10.806  22.063  0.00  0.00    +0.000 OA
ATOM      8  C   UNL     1       0.373   9.507  22.675  0.00  0.00    +0.000 C 
ATOM      9  C   UNL     1       0.114   8.294  21.775  0.00  0.00    +0.000 C 
ATOM     10  C   UNL     1       0.912   8.361  20.513  0.00  0.00    +0.000 A 
ATOM     11  C   UNL     1       1.996   7.511  20.134  0.00  0.00    +0.000 A 
ATOM     12  C   UNL     1       2.475   7.772  18.862  0.00  0.00    +0.000 A 
ATOM     13  S   UNL     1       1.668   9.162  18.208  0.00  0.00    +0.000 S 
ATOM     14  C   UNL     1       0.682   9.353  19.580  0.00  0.00    +0.000 A 
ENDROOT
BRANCH   1  18
ATOM     15  C   UNL     1      -4.550  15.264  21.172  0.00  0.00    +0.000 C 
ATOM     16  C   UNL     1      -3.241  14.602  20.825  0.00  0.00    +0.000 C 
ATOM     17  O   UNL     1      -2.210  15.264  20.747  0.00  0.00    +0.000 OA
ATOM     18  N   UNL     1      -3.371  13.241  20.606  0.00  0.00    +0.000 N 
ATOM     19  H   UNL     1      -4.314  12.872  20.559  0.00  0.00    +0.000 HD
ENDBRANCH   1  18
BRANCH  12  20
ATOM     20  C   UNL     1       3.545   7.155  18.058  0.00  0.00    +0.000 C 
ATOM     21  O   UNL     1       4.204   7.848  17.274  0.00  0.00    +0.000 OA
ATOM     22  N   UNL     1       3.793   5.760  18.135  0.00  0.00    +0.000 N 
ATOM     23  C   UNL     1       2.935   4.747  18.751  0.00  0.00    +0.000 C 
BRANCH  22  24
ATOM     24  C   UNL     1       4.850   5.216  17.318  0.00  0.00    +0.000 A 
ATOM     25  C   UNL     1       4.533   4.711  16.043  0.00  0.00    +0.000 A 
ATOM     26  C   UNL     1       5.513   4.147  15.224  0.00  0.00    +0.000 A 
ATOM     27  C   UNL     1       6.829   4.076  15.672  0.00  0.00    +0.000 A 
ATOM     28  C   UNL     1       7.163   4.562  16.934  0.00  0.00    +0.000 A 
ATOM     29  C   UNL     1       6.184   5.128  17.761  0.00  0.00    +0.000 A 
ATOM     30 CL   UNL     1       6.655   5.556  19.370  0.00  0.00    +0.000 Cl
ENDBRANCH  22  24
ENDBRANCH  12  20
TORSDOF 3
ENDMDL
MODEL 4
REMARK VINA RESULT:      -7.9      1.149      1.152
REMARK  Name = 
REMARK  5 active torsions:
REMARK  status: ('A' for Active; 'I' for Inactive)
REMARK    1  A    between atoms: C_1  and  C_2
REMARK    2  A    between atoms: N_4  and  C_5
REMARK    3  A    between atoms: C_16  and  C_17
REMARK    4  A    between atoms: N_19  and  C_20
REMARK    5  A    between atoms: N_19  and  C_21
REMARK                            x       y       z     vdW  Elec       q    Type
REMARK                         _______ _______ _______ _____ _____    ______ ____
ROOT
ATOM      1  C   UNL     1      -2.051  12.374  20.621  0.00  0.00    +0.000 A 
ATOM      2  C   UNL     1      -2.027  11.863  19.320  0.00  0.00    +0.000 A 
ATOM      3  C   UNL     1      -1.051  10.934  18.927  0.00  0.00    +0.000 A 
ATOM      4  C   UNL     1      -0.091  10.481  19.835  0.00  0.00    +0.000 A 
ATOM      5  C   UNL     1      -0.110  11.018  21.141  0.00  0.00    +0.000 A 
ATOM      6  C   UNL     1      -1.049  11.987  21.514  0.00  0.00    +0.000 A 
ATOM      7  O   UNL     1       0.848  10.714  22.074  0.00  0.00    +0.000 OA
ATOM      8  C   UNL     1       0.813   9.387  22.625  0.00  0.00    +0.000 C 
ATOM      9  C   UNL     1       0.456   8.224  21.694  0.00  0.00    +0.000 C 
ATOM     10  C   UNL     1       1.138   8.346  20.368  0.00  0.00    +0.000 A 
ATOM     11  C   UNL     1       2.170   7.505  19.851  0.00  0.00    +0.000 A 
ATOM     12  C   UNL     1       2.536   7.825  18.555  0.00  0.00    +0.000 A 
ATOM     13  S   UNL     1       1.694   9.255  18.047  0.00  0.00    +0.000 S 
ATOM     14  C   UNL     1       0.839   9.387  19.510  0.00  0.00    +0.000 A 
ENDROOT
BRANCH   1  18
ATOM     15  C   UNL     1      -4.791  14.216  22.452  0.00  0.00    +0.000 C 
ATOM     16  C   UNL     1      -3.809  13.092  22.236  0.00  0.00    +0.000 C 
ATOM     17  O   UNL     1      -3.738  12.166  23.039  0.00  0.00    +0.000 OA
ATOM     18  N   UNL     1      -3.047  13.259  21.093  0.00  0.00    +0.000 N 
ATOM     19  H   UNL     1      -3.120  14.152  20.619  0.00  0.00    +0.000 HD
ENDBRANCH   1  18
BRANCH  12  20
ATOM     20  C   UNL     1       3.519   7.239  17.628  0.00  0.00    +0.000 C 
ATOM     21  O   UNL     1       3.765   7.801  16.553  0.00  0.00    +0.000 OA
ATOM     22  N   UNL     1       4.152   6.005  17.930  0.00  0.00    +0.000 N 
ATOM     23  C   UNL     1       3.769   5.055  18.976  0.00  0.00    +0.000 C 
BRANCH  22  24
ATOM     24  C   UNL     1       5.100   5.481  16.978  0.00  0.00    +0.000 A 
ATOM     25  C   UNL     1       4.669   4.515  16.050  0.00  0.00    +0.000 A 
ATOM     26  C   UNL     1       5.552   3.954  15.127  0.00  0.00    +0.000 A 
ATOM     27  C   UNL     1       6.887   4.349  15.121  0.00  0.00    +0.000 A 
ATOM     28  C   UNL     1       7.337   5.297  16.037  0.00  0.00    +0.000 A 
ATOM     29  C   UNL     1       6.455   5.863  16.967  0.00  0.00    +0.000 A 
ATOM     30 CL   UNL     1       7.132   6.908  18.169  0.00  0.00    +0.000 Cl
ENDBRANCH  22  24
ENDBRANCH  12  20
TORSDOF 3
ENDMDL
MODEL 5
REMARK VINA RESULT:      -7.8      1.598      1.801
REMARK  Name = 
REMARK  5 active torsions:
REMARK  status: ('A' for Active; 'I' for Inactive)
REMARK    1  A    between atoms: C_1  and  C_2
REMARK    2  A    between atoms: N_4  and  C_5
REMARK    3  A    between atoms: C_16  and  C_17
REMARK    4  A    between atoms: N_19  and  C_20
REMARK    5  A    between atoms: N_19  and  C_21
REMARK                            x       y       z     vdW  Elec       q    Type
REMARK                         _______ _______ _______ _____ _____    ______ ____
ROOT
ATOM      1  C   UNL     1      -2.559  12.690  20.650  0.00  0.00    +0.000 A 
ATOM      2  C   UNL     1      -2.447  12.107  19.384  0.00  0.00    +0.000 A 
ATOM      3  C   UNL     1      -1.467  11.137  19.120  0.00  0.00    +0.000 A 
ATOM      4  C   UNL     1      -0.592  10.716  20.124  0.00  0.00    +0.000 A 
ATOM      5  C   UNL     1      -0.700  11.326  21.394  0.00  0.00    +0.000 A 
ATOM      6  C   UNL     1      -1.641  12.333  21.639  0.00  0.00    +0.000 A 
ATOM      7  O   UNL     1       0.175  11.054  22.415  0.00  0.00    +0.000 OA
ATOM      8  C   UNL     1       0.064   9.761  23.032  0.00  0.00    +0.000 C 
ATOM      9  C   UNL     1      -0.248   8.555  22.139  0.00  0.00    +0.000 C 
ATOM     10  C   UNL     1       0.538   8.589  20.868  0.00  0.00    +0.000 A 
ATOM     11  C   UNL     1       1.586   7.700  20.480  0.00  0.00    +0.000 A 
ATOM     12  C   UNL     1       2.060   7.939  19.201  0.00  0.00    +0.000 A 
ATOM     13  S   UNL     1       1.296   9.356  18.552  0.00  0.00    +0.000 S 
ATOM     14  C   UNL     1       0.333   9.587  19.934  0.00  0.00    +0.000 A 
ENDROOT
BRANCH   1  18
ATOM     15  C   UNL     1      -4.692  15.701  21.449  0.00  0.00    +0.000 C 
ATOM     16  C   UNL     1      -3.424  14.996  21.037  0.00  0.00    +0.000 C 
ATOM     17  O   UNL     1      -2.414  15.639  20.768  0.00  0.00    +0.000 OA
ATOM     18  N   UNL     1      -3.567  13.620  20.993  0.00  0.00    +0.000 N 
ATOM     19  H   UNL     1      -4.506  13.252  21.094  0.00  0.00    +0.000 HD
ENDBRANCH   1  18
BRANCH  12  20
ATOM     20  C   UNL     1       3.097   7.283  18.388  0.00  0.00    +0.000 C 
ATOM     21  O   UNL     1       3.407   7.753  17.287  0.00  0.00    +0.000 OA
ATOM     22  N   UNL     1       3.711   6.082  18.831  0.00  0.00    +0.000 N 
ATOM     23  C   UNL     1       3.266   5.222  19.929  0.00  0.00    +0.000 C 
BRANCH  22  24
ATOM     24  C   UNL     1       4.715   5.484  17.986  0.00  0.00    +0.000 A 
ATOM     25  C   UNL     1       6.007   6.042  17.966  0.00  0.00    +0.000 A 
ATOM     26  C   UNL     1       7.008   5.520  17.144  0.00  0.00    +0.000 A 
ATOM     27  C   UNL     1       6.727   4.431  16.323  0.00  0.00    +0.000 A 
ATOM     28  C   UNL     1       5.452   3.870  16.320  0.00  0.00    +0.000 A 
ATOM     29  C   UNL     1       4.444   4.390  17.142  0.00  0.00    +0.000 A 
ATOM     30 CL   UNL     1       2.852   3.738  16.954  0.00  0.00    +0.000 Cl
ENDBRANCH  22  24
ENDBRANCH  12  20
TORSDOF 3
ENDMDL
MODEL 6
REMARK VINA RESULT:      -7.5      2.577      3.572
REMARK  Name = 
REMARK  5 active torsions:
REMARK  status: ('A' for Active; 'I' for Inactive)
REMARK    1  A    between atoms: C_1  and  C_2
REMARK    2  A    between atoms: N_4  and  C_5
REMARK    3  A    between atoms: C_16  and  C_17
REMARK    4  A    between atoms: N_19  and  C_20
REMARK    5  A    between atoms: N_19  and  C_21
REMARK                            x       y       z     vdW  Elec       q    Type
REMARK                         _______ _______ _______ _____ _____    ______ ____
ROOT
ATOM      1  C   UNL     1      -2.670  13.569  22.424  0.00  0.00    +0.000 A 
ATOM      2  C   UNL     1      -1.774  12.837  23.209  0.00  0.00    +0.000 A 
ATOM      3  C   UNL     1      -0.983  11.822  22.648  0.00  0.00    +0.000 A 
ATOM      4  C   UNL     1      -1.059  11.532  21.284  0.00  0.00    +0.000 A 
ATOM      5  C   UNL     1      -1.982  12.262  20.503  0.00  0.00    +0.000 A 
ATOM      6  C   UNL     1      -2.809  13.235  21.076  0.00  0.00    +0.000 A 
ATOM      7  O   UNL     1      -2.202  11.985  19.178  0.00  0.00    +0.000 OA
ATOM      8  C   UNL     1      -1.153  12.340  18.261  0.00  0.00    +0.000 C 
ATOM      9  C   UNL     1       0.299  12.141  18.708  0.00  0.00    +0.000 C 
ATOM     10  C   UNL     1       0.487  10.838  19.418  0.00  0.00    +0.000 A 
ATOM     11  C   UNL     1       1.225   9.706  18.957  0.00  0.00    +0.000 A 
ATOM     12  C   UNL     1       1.284   8.679  19.883  0.00  0.00    +0.000 A 
ATOM     13  S   UNL     1       0.303   9.076  21.258  0.00  0.00    +0.000 S 
ATOM     14  C   UNL     1      -0.130  10.596  20.630  0.00  0.00    +0.000 A 
ENDROOT
BRANCH   1  18
ATOM     15  C   UNL     1      -5.180  15.882  24.035  0.00  0.00    +0.000 C 
ATOM     16  C   UNL     1      -4.595  14.540  23.676  0.00  0.00    +0.000 C 
ATOM     17  O   UNL     1      -5.130  13.505  24.060  0.00  0.00    +0.000 OA
ATOM     18  N   UNL     1      -3.441  14.645  22.919  0.00  0.00    +0.000 N 
ATOM     19  H   UNL     1      -3.043  15.572  22.814  0.00  0.00    +0.000 HD
ENDBRANCH   1  18
BRANCH  12  20
ATOM     20  C   UNL     1       1.933   7.356  19.859  0.00  0.00    +0.000 C 
ATOM     21  O   UNL     1       1.819   6.596  20.828  0.00  0.00    +0.000 OA
ATOM     22  N   UNL     1       2.733   6.964  18.755  0.00  0.00    +0.000 N 
ATOM     23  C   UNL     1       3.233   7.826  17.682  0.00  0.00    +0.000 C 
BRANCH  22  24
ATOM     24  C   UNL     1       3.346   5.659  18.795  0.00  0.00    +0.000 A 
ATOM     25  C   UNL     1       4.660   5.539  19.286  0.00  0.00    +0.000 A 
ATOM     26  C   UNL     1       5.310   4.305  19.319  0.00  0.00    +0.000 A 
ATOM     27  C   UNL     1       4.655   3.168  18.855  0.00  0.00    +0.000 A 
ATOM     28  C   UNL     1       3.358   3.265  18.356  0.00  0.00    +0.000 A 
ATOM     29  C   UNL     1       2.701   4.502  18.320  0.00  0.00    +0.000 A 
ATOM     30 CL   UNL     1       1.158   4.558  17.536  0.00  0.00    +0.000 Cl
ENDBRANCH  22  24
ENDBRANCH  12  20
TORSDOF 3
ENDMDL
MODEL 7
REMARK VINA RESULT:      -7.4      3.213      9.947
REMARK  Name = 
REMARK  5 active torsions:
REMARK  status: ('A' for Active; 'I' for Inactive)
REMARK    1  A    between atoms: C_1  and  C_2
REMARK    2  A    between atoms: N_4  and  C_5
REMARK    3  A    between atoms: C_16  and  C_17
REMARK    4  A    between atoms: N_19  and  C_20
REMARK    5  A    between atoms: N_19  and  C_21
REMARK                            x       y       z     vdW  Elec       q    Type
REMARK                         _______ _______ _______ _____ _____    ______ ____
ROOT
ATOM      1  C   UNL     1       5.777   4.353  14.697  0.00  0.00    +0.000 A 
ATOM      2  C   UNL     1       5.744   5.744  14.830  0.00  0.00    +0.000 A 
ATOM      3  C   UNL     1       4.986   6.356  15.842  0.00  0.00    +0.000 A 
ATOM      4  C   UNL     1       4.261   5.584  16.753  0.00  0.00    +0.000 A 
ATOM      5  C   UNL     1       4.284   4.181  16.598  0.00  0.00    +0.000 A 
ATOM      6  C   UNL     1       4.995   3.577  15.554  0.00  0.00    +0.000 A 
ATOM      7  O   UNL     1       3.528   3.344  17.378  0.00  0.00    +0.000 OA
ATOM      8  C   UNL     1       3.937   3.194  18.748  0.00  0.00    +0.000 C 
ATOM      9  C   UNL     1       4.466   4.428  19.486  0.00  0.00    +0.000 C 
ATOM     10  C   UNL     1       3.644   5.642  19.196  0.00  0.00    +0.000 A 
ATOM     11  C   UNL     1       2.797   6.345  20.107  0.00  0.00    +0.000 A 
ATOM     12  C   UNL     1       2.234   7.485  19.559  0.00  0.00    +0.000 A 
ATOM     13  S   UNL     1       2.651   7.592  17.878  0.00  0.00    +0.000 S 
ATOM     14  C   UNL     1       3.594   6.178  17.924  0.00  0.00    +0.000 A 
ENDROOT
BRANCH   1  18
ATOM     15  C   UNL     1       7.265   2.591  11.709  0.00  0.00    +0.000 C 
ATOM     16  C   UNL     1       6.175   3.299  12.473  0.00  0.00    +0.000 C 
ATOM     17  O   UNL     1       5.080   3.495  11.956  0.00  0.00    +0.000 OA
ATOM     18  N   UNL     1       6.574   3.680  13.743  0.00  0.00    +0.000 N 
ATOM     19  H   UNL     1       7.558   3.581  13.965  0.00  0.00    +0.000 HD
ENDBRANCH   1  18
BRANCH  12  20
ATOM     20  C   UNL     1       1.332   8.510  20.111  0.00  0.00    +0.000 C 
ATOM     21  O   UNL     1       0.637   8.252  21.101  0.00  0.00    +0.000 OA
ATOM     22  N   UNL     1       1.211   9.778  19.486  0.00  0.00    +0.000 N 
ATOM     23  C   UNL     1       1.700  10.154  18.158  0.00  0.00    +0.000 C 
BRANCH  22  24
ATOM     24  C   UNL     1       0.305  10.736  20.071  0.00  0.00    +0.000 A 
ATOM     25  C   UNL     1       0.715  11.452  21.212  0.00  0.00    +0.000 A 
ATOM     26  C   UNL     1      -0.133  12.369  21.834  0.00  0.00    +0.000 A 
ATOM     27  C   UNL     1      -1.412  12.581  21.325  0.00  0.00    +0.000 A 
ATOM     28  C   UNL     1      -1.841  11.877  20.203  0.00  0.00    +0.000 A 
ATOM     29  C   UNL     1      -0.994  10.954  19.575  0.00  0.00    +0.000 A 
ATOM     30 CL   UNL     1      -1.666  10.008  18.290  0.00  0.00    +0.000 Cl
ENDBRANCH  22  24
ENDBRANCH  12  20
TORSDOF 3
ENDMDL
MODEL 8
REMARK VINA RESULT:      -7.3      1.399      1.672
REMARK  Name = 
REMARK  5 active torsions:
REMARK  status: ('A' for Active; 'I' for Inactive)
REMARK    1  A    between atoms: C_1  and  C_2
REMARK    2  A    between atoms: N_4  and  C_5
REMARK    3  A    between atoms: C_16  and  C_17
REMARK    4  A    between atoms: N_19  and  C_20
REMARK    5  A    between atoms: N_19  and  C_21
REMARK                            x       y       z     vdW  Elec       q    Type
REMARK                         _______ _______ _______ _____ _____    ______ ____
ROOT
ATOM      1  C   UNL     1      -3.328  11.999  18.943  0.00  0.00    +0.000 A 
ATOM      2  C   UNL     1      -3.103  11.047  17.945  0.00  0.00    +0.000 A 
ATOM      3  C   UNL     1      -1.942  10.257  17.947  0.00  0.00    +0.000 A 
ATOM      4  C   UNL     1      -0.992  10.391  18.962  0.00  0.00    +0.000 A 
ATOM      5  C   UNL     1      -1.218  11.370  19.955  0.00  0.00    +0.000 A 
ATOM      6  C   UNL     1      -2.348  12.195  19.919  0.00  0.00    +0.000 A 
ATOM      7  O   UNL     1      -0.299  11.646  20.935  0.00  0.00    +0.000 OA
ATOM      8  C   UNL     1      -0.130  10.653  21.960  0.00  0.00    +0.000 C 
ATOM      9  C   UNL     1      -0.186   9.176  21.556  0.00  0.00    +0.000 C 
ATOM     10  C   UNL     1       0.566   8.919  20.289  0.00  0.00    +0.000 A 
ATOM     11  C   UNL     1       1.776   8.174  20.144  0.00  0.00    +0.000 A 
ATOM     12  C   UNL     1       2.180   8.043  18.826  0.00  0.00    +0.000 A 
ATOM     13  S   UNL     1       1.130   8.967  17.798  0.00  0.00    +0.000 S 
ATOM     14  C   UNL     1       0.149   9.470  19.092  0.00  0.00    +0.000 A 
ENDROOT
BRANCH   1  18
ATOM     15  C   UNL     1      -6.778  13.515  18.720  0.00  0.00    +0.000 C 
ATOM     16  C   UNL     1      -5.722  12.476  18.438  0.00  0.00    +0.000 C 
ATOM     17  O   UNL     1      -5.987  11.489  17.760  0.00  0.00    +0.000 OA
ATOM     18  N   UNL     1      -4.507  12.774  19.030  0.00  0.00    +0.000 N 
ATOM     19  H   UNL     1      -4.492  13.548  19.685  0.00  0.00    +0.000 HD
ENDBRANCH   1  18
BRANCH  12  20
ATOM     20  C   UNL     1       3.328   7.361  18.203  0.00  0.00    +0.000 C 
ATOM     21  O   UNL     1       3.785   7.777  17.132  0.00  0.00    +0.000 OA
ATOM     22  N   UNL     1       3.883   6.196  18.793  0.00  0.00    +0.000 N 
ATOM     23  C   UNL     1       3.296   5.388  19.864  0.00  0.00    +0.000 C 
BRANCH  22  24
ATOM     24  C   UNL     1       5.002   5.571  18.131  0.00  0.00    +0.000 A 
ATOM     25  C   UNL     1       6.295   6.080  18.353  0.00  0.00    +0.000 A 
ATOM     26  C   UNL     1       7.408   5.530  17.715  0.00  0.00    +0.000 A 
ATOM     27  C   UNL     1       7.242   4.462  16.837  0.00  0.00    +0.000 A 
ATOM     28  C   UNL     1       5.970   3.949  16.595  0.00  0.00    +0.000 A 
ATOM     29  C   UNL     1       4.849   4.497  17.233  0.00  0.00    +0.000 A 
ATOM     30 CL   UNL     1       3.295   3.907  16.751  0.00  0.00    +0.000 Cl
ENDBRANCH  22  24
ENDBRANCH  12  20
TORSDOF 3
ENDMDL
MODEL 9
REMARK VINA RESULT:      -7.3      3.487      9.949
REMARK  Name = 
REMARK  5 active torsions:
REMARK  status: ('A' for Active; 'I' for Inactive)
REMARK    1  A    between atoms: C_1  and  C_2
REMARK    2  A    between atoms: N_4  and  C_5
REMARK    3  A    between atoms: C_16  and  C_17
REMARK    4  A    between atoms: N_19  and  C_20
REMARK    5  A    between atoms: N_19  and  C_21
REMARK                            x       y       z     vdW  Elec       q    Type
REMARK                         _______ _______ _______ _____ _____    ______ ____
ROOT
ATOM      1  C   UNL     1       4.322   2.565  19.875  0.00  0.00    +0.000 A 
ATOM      2  C   UNL     1       3.032   2.873  20.316  0.00  0.00    +0.000 A 
ATOM      3  C   UNL     1       2.524   4.178  20.211  0.00  0.00    +0.000 A 
ATOM      4  C   UNL     1       3.292   5.197  19.644  0.00  0.00    +0.000 A 
ATOM      5  C   UNL     1       4.602   4.882  19.221  0.00  0.00    +0.000 A 
ATOM      6  C   UNL     1       5.126   3.593  19.378  0.00  0.00    +0.000 A 
ATOM      7  O   UNL     1       5.468   5.832  18.745  0.00  0.00    +0.000 OA
ATOM      8  C   UNL     1       5.183   6.370  17.442  0.00  0.00    +0.000 C 
ATOM      9  C   UNL     1       3.719   6.613  17.063  0.00  0.00    +0.000 C 
ATOM     10  C   UNL     1       2.949   7.227  18.189  0.00  0.00    +0.000 A 
ATOM     11  C   UNL     1       2.408   8.547  18.242  0.00  0.00    +0.000 A 
ATOM     12  C   UNL     1       1.670   8.789  19.388  0.00  0.00    +0.000 A 
ATOM     13  S   UNL     1       1.776   7.420  20.450  0.00  0.00    +0.000 S 
ATOM     14  C   UNL     1       2.737   6.532  19.364  0.00  0.00    +0.000 A 
ENDROOT
BRANCH   1  18
ATOM     15  C   UNL     1       5.993  -0.733  20.638  0.00  0.00    +0.000 C 
ATOM     16  C   UNL     1       5.540   0.672  20.947  0.00  0.00    +0.000 C 
ATOM     17  O   UNL     1       5.772   1.174  22.042  0.00  0.00    +0.000 OA
ATOM     18  N   UNL     1       4.861   1.259  19.893  0.00  0.00    +0.000 N 
ATOM     19  H   UNL     1       4.619   0.659  19.112  0.00  0.00    +0.000 HD
ENDBRANCH   1  18
BRANCH  12  20
ATOM     20  C   UNL     1       0.928   9.971  19.860  0.00  0.00    +0.000 C 
ATOM     21  O   UNL     1       1.123  10.406  21.002  0.00  0.00    +0.000 OA
ATOM     22  N   UNL     1      -0.050  10.586  19.037  0.00  0.00    +0.000 N 
ATOM     23  C   UNL     1      -0.634  10.042  17.810  0.00  0.00    +0.000 C 
BRANCH  22  24
ATOM     24  C   UNL     1      -0.747  11.736  19.560  0.00  0.00    +0.000 A 
ATOM     25  C   UNL     1      -1.971  11.544  20.228  0.00  0.00    +0.000 A 
ATOM     26  C   UNL     1      -2.700  12.624  20.727  0.00  0.00    +0.000 A 
ATOM     27  C   UNL     1      -2.215  13.919  20.561  0.00  0.00    +0.000 A 
ATOM     28  C   UNL     1      -1.010  14.132  19.895  0.00  0.00    +0.000 A 
ATOM     29  C   UNL     1      -0.275  13.051  19.391  0.00  0.00    +0.000 A 
ATOM     30 CL   UNL     1       1.123  13.419  18.438  0.00  0.00    +0.000 Cl
ENDBRANCH  22  24
ENDBRANCH  12  20
TORSDOF 3
ENDMDL
