MODEL 1
REMARK VINA RESULT:      -7.6      0.000      0.000
REMARK  Name = 
REMARK  6 active torsions:
REMARK  status: ('A' for Active; 'I' for Inactive)
REMARK    1  A    between atoms: C_1  and  O_2
REMARK    2  A    between atoms: O_2  and  C_3
REMARK    3  A    between atoms: C_3  and  C_4
REMARK    4  A    between atoms: C_4  and  N_5
REMARK    5  A    between atoms: C_6  and  C_8
REMARK    6  A    between atoms: N_10  and  C_11
REMARK                            x       y       z     vdW  Elec       q    Type
REMARK                         _______ _______ _______ _____ _____    ______ ____
ROOT
ATOM      1  C   UNL     1       1.805   7.004  20.278  0.00  0.00    +0.000 A 
ATOM      2  C   UNL     1       1.577   5.629  20.383  0.00  0.00    +0.000 A 
ATOM      3  C   UNL     1       2.132   4.729  19.473  0.00  0.00    +0.000 A 
ATOM      4  C   UNL     1       2.991   5.218  18.486  0.00  0.00    +0.000 A 
ATOM      5  C   UNL     1       3.111   6.600  18.280  0.00  0.00    +0.000 A 
ATOM      6  C   UNL     1       2.489   7.497  19.164  0.00  0.00    +0.000 A 
ATOM      7  C   UNL     1       3.899   7.062  17.089  0.00  0.00    +0.000 C 
ATOM      8  C   UNL     1       5.178   6.252  17.003  0.00  0.00    +0.000 C 
ATOM      9  C   UNL     1       4.920   4.758  17.035  0.00  0.00    +0.000 C 
ATOM     10  O   UNL     1       5.748   3.981  16.555  0.00  0.00    +0.000 OA
ATOM     11  N   UNL     1       3.785   4.325  17.713  0.00  0.00    +0.000 N 
ATOM     12  C   UNL     1       3.608   2.888  17.904  0.00  0.00    +0.000 C 
ATOM     13  C   UNL     1       2.202   2.520  18.350  0.00  0.00    +0.000 C 
ATOM     14  C   UNL     1       1.876   3.260  19.638  0.00  0.00    +0.000 C 
ENDROOT
BRANCH   1  17
ATOM     15  C   UNL     1       0.648   9.038  21.071  0.00  0.00    +0.000 C 
ATOM     16  O   UNL     1       0.237   9.486  20.004  0.00  0.00    +0.000 OA
ATOM     17  N   UNL     1       1.394   7.892  21.293  0.00  0.00    +0.000 N 
ATOM     18  H   UNL     1       1.480   7.606  22.268  0.00  0.00    +0.000 HD
BRANCH  15  20
ATOM     19  N   UNL     1      -0.838  10.616  22.157  0.00  0.00    +0.000 N 
ATOM     20  C   UNL     1       0.243   9.788  22.348  0.00  0.00    +0.000 C 
ATOM     21  O   UNL     1       0.849   9.606  23.394  0.00  0.00    +0.000 OA
ATOM     22  H   UNL     1      -1.155  10.734  21.197  0.00  0.00    +0.000 HD
BRANCH  19  23
ATOM     23  C   UNL     1      -1.400  11.454  23.192  0.00  0.00    +0.000 C 
BRANCH  23  24
ATOM     24  C   UNL     1      -2.542  12.337  22.686  0.00  0.00    +0.000 C 
BRANCH  24  26
ATOM     25  C   UNL     1      -3.965  12.862  24.494  0.00  0.00    +0.000 C 
ATOM     26  O   UNL     1      -3.751  12.006  23.378  0.00  0.00    +0.000 OA
ENDBRANCH  24  26
ENDBRANCH  23  24
ENDBRANCH  19  23
ENDBRANCH  15  20
ENDBRANCH   1  17
TORSDOF 5
ENDMDL
MODEL 2
REMARK VINA RESULT:      -7.6      1.158      1.289
REMARK  Name = 
REMARK  6 active torsions:
REMARK  status: ('A' for Active; 'I' for Inactive)
REMARK    1  A    between atoms: C_1  and  O_2
REMARK    2  A    between atoms: O_2  and  C_3
REMARK    3  A    between atoms: C_3  and  C_4
REMARK    4  A    between atoms: C_4  and  N_5
REMARK    5  A    between atoms: C_6  and  C_8
REMARK    6  A    between atoms: N_10  and  C_11
REMARK                            x       y       z     vdW  Elec       q    Type
REMARK                         _______ _______ _______ _____ _____    ______ ____
ROOT
ATOM      1  C   UNL     1       2.207   6.748  19.922  0.00  0.00    +0.000 A 
ATOM      2  C   UNL     1       1.908   5.384  19.974  0.00  0.00    +0.000 A 
ATOM      3  C   UNL     1       2.425   4.490  19.036  0.00  0.00    +0.000 A 
ATOM      4  C   UNL     1       3.318   4.970  18.074  0.00  0.00    +0.000 A 
ATOM      5  C   UNL     1       3.510   6.350  17.920  0.00  0.00    +0.000 A 
ATOM      6  C   UNL     1       2.926   7.245  18.832  0.00  0.00    +0.000 A 
ATOM      7  C   UNL     1       4.331   6.814  16.753  0.00  0.00    +0.000 C 
ATOM      8  C   UNL     1       5.568   5.943  16.648  0.00  0.00    +0.000 C 
ATOM      9  C   UNL     1       5.234   4.464  16.622  0.00  0.00    +0.000 C 
ATOM     10  O   UNL     1       6.026   3.663  16.121  0.00  0.00    +0.000 OA
ATOM     11  N   UNL     1       4.071   4.066  17.276  0.00  0.00    +0.000 N 
ATOM     12  C   UNL     1       3.819   2.634  17.412  0.00  0.00    +0.000 C 
ATOM     13  C   UNL     1       2.392   2.323  17.833  0.00  0.00    +0.000 C 
ATOM     14  C   UNL     1       2.092   3.031  19.145  0.00  0.00    +0.000 C 
ENDROOT
BRANCH   1  17
ATOM     15  C   UNL     1       1.078   8.767  20.790  0.00  0.00    +0.000 C 
ATOM     16  O   UNL     1       0.628   9.232  19.747  0.00  0.00    +0.000 OA
ATOM     17  N   UNL     1       1.833   7.618  20.966  0.00  0.00    +0.000 N 
ATOM     18  H   UNL     1       1.955   7.316  21.932  0.00  0.00    +0.000 HD
BRANCH  15  20
ATOM     19  N   UNL     1      -0.563   9.992  22.088  0.00  0.00    +0.000 N 
ATOM     20  C   UNL     1       0.719   9.495  22.093  0.00  0.00    +0.000 C 
ATOM     21  O   UNL     1       1.529   9.571  23.005  0.00  0.00    +0.000 OA
ATOM     22  H   UNL     1      -1.067   9.937  21.206  0.00  0.00    +0.000 HD
BRANCH  19  23
ATOM     23  C   UNL     1      -1.138  10.742  23.181  0.00  0.00    +0.000 C 
BRANCH  23  24
ATOM     24  C   UNL     1      -1.436  12.197  22.812  0.00  0.00    +0.000 C 
BRANCH  24  26
ATOM     25  C   UNL     1      -0.510  14.366  22.724  0.00  0.00    +0.000 C 
ATOM     26  O   UNL     1      -0.256  12.990  22.982  0.00  0.00    +0.000 OA
ENDBRANCH  24  26
ENDBRANCH  23  24
ENDBRANCH  19  23
ENDBRANCH  15  20
ENDBRANCH   1  17
TORSDOF 5
ENDMDL
MODEL 3
REMARK VINA RESULT:      -7.5      3.055      4.253
REMARK  Name = 
REMARK  6 active torsions:
REMARK  status: ('A' for Active; 'I' for Inactive)
REMARK    1  A    between atoms: C_1  and  O_2
REMARK    2  A    between atoms: O_2  and  C_3
REMARK    3  A    between atoms: C_3  and  C_4
REMARK    4  A    between atoms: C_4  and  N_5
REMARK    5  A    between atoms: C_6  and  C_8
REMARK    6  A    between atoms: N_10  and  C_11
REMARK                            x       y       z     vdW  Elec       q    Type
REMARK                         _______ _______ _______ _____ _____    ______ ____
ROOT
ATOM      1  C   UNL     1       2.198   7.506  19.252  0.00  0.00    +0.000 A 
ATOM      2  C   UNL     1       3.078   7.301  18.185  0.00  0.00    +0.000 A 
ATOM      3  C   UNL     1       3.683   6.063  17.971  0.00  0.00    +0.000 A 
ATOM      4  C   UNL     1       3.338   4.995  18.803  0.00  0.00    +0.000 A 
ATOM      5  C   UNL     1       2.576   5.222  19.959  0.00  0.00    +0.000 A 
ATOM      6  C   UNL     1       2.029   6.493  20.199  0.00  0.00    +0.000 A 
ATOM      7  C   UNL     1       2.395   4.076  20.911  0.00  0.00    +0.000 C 
ATOM      8  C   UNL     1       2.065   2.827  20.118  0.00  0.00    +0.000 C 
ATOM      9  C   UNL     1       3.068   2.561  19.012  0.00  0.00    +0.000 C 
ATOM     10  O   UNL     1       3.211   1.419  18.571  0.00  0.00    +0.000 OA
ATOM     11  N   UNL     1       3.716   3.666  18.465  0.00  0.00    +0.000 N 
ATOM     12  C   UNL     1       4.554   3.455  17.288  0.00  0.00    +0.000 C 
ATOM     13  C   UNL     1       5.457   4.640  16.986  0.00  0.00    +0.000 C 
ATOM     14  C   UNL     1       4.604   5.884  16.800  0.00  0.00    +0.000 C 
ENDROOT
BRANCH   1  17
ATOM     15  C   UNL     1       1.475   9.722  18.433  0.00  0.00    +0.000 C 
ATOM     16  O   UNL     1       2.125   9.795  17.394  0.00  0.00    +0.000 OA
ATOM     17  N   UNL     1       1.452   8.697  19.365  0.00  0.00    +0.000 N 
ATOM     18  H   UNL     1       0.713   8.756  20.065  0.00  0.00    +0.000 HD
BRANCH  15  20
ATOM     19  N   UNL     1      -0.642  10.810  17.973  0.00  0.00    +0.000 N 
ATOM     20  C   UNL     1       0.503  10.872  18.732  0.00  0.00    +0.000 C 
ATOM     21  O   UNL     1       0.773  11.709  19.581  0.00  0.00    +0.000 OA
ATOM     22  H   UNL     1      -0.659  10.111  17.234  0.00  0.00    +0.000 HD
BRANCH  19  23
ATOM     23  C   UNL     1      -1.704  11.788  18.040  0.00  0.00    +0.000 C 
BRANCH  23  24
ATOM     24  C   UNL     1      -2.929  11.393  17.213  0.00  0.00    +0.000 C 
BRANCH  24  26
ATOM     25  C   UNL     1      -3.069  10.481  15.041  0.00  0.00    +0.000 C 
ATOM     26  O   UNL     1      -2.605  10.281  16.371  0.00  0.00    +0.000 OA
ENDBRANCH  24  26
ENDBRANCH  23  24
ENDBRANCH  19  23
ENDBRANCH  15  20
ENDBRANCH   1  17
TORSDOF 5
ENDMDL
MODEL 4
REMARK VINA RESULT:      -7.5      4.515      9.898
REMARK  Name = 
REMARK  6 active torsions:
REMARK  status: ('A' for Active; 'I' for Inactive)
REMARK    1  A    between atoms: C_1  and  O_2
REMARK    2  A    between atoms: O_2  and  C_3
REMARK    3  A    between atoms: C_3  and  C_4
REMARK    4  A    between atoms: C_4  and  N_5
REMARK    5  A    between atoms: C_6  and  C_8
REMARK    6  A    between atoms: N_10  and  C_11
REMARK                            x       y       z     vdW  Elec       q    Type
REMARK                         _______ _______ _______ _____ _____    ______ ____
ROOT
ATOM      1  C   UNL     1       3.824   4.590  16.683  0.00  0.00    +0.000 A 
ATOM      2  C   UNL     1       3.649   5.736  17.464  0.00  0.00    +0.000 A 
ATOM      3  C   UNL     1       2.932   5.697  18.661  0.00  0.00    +0.000 A 
ATOM      4  C   UNL     1       2.448   4.466  19.112  0.00  0.00    +0.000 A 
ATOM      5  C   UNL     1       2.488   3.344  18.272  0.00  0.00    +0.000 A 
ATOM      6  C   UNL     1       3.154   3.417  17.037  0.00  0.00    +0.000 A 
ATOM      7  C   UNL     1       1.786   2.101  18.734  0.00  0.00    +0.000 C 
ATOM      8  C   UNL     1       2.120   1.865  20.194  0.00  0.00    +0.000 C 
ATOM      9  C   UNL     1       1.852   3.084  21.054  0.00  0.00    +0.000 C 
ATOM     10  O   UNL     1       1.651   2.953  22.264  0.00  0.00    +0.000 OA
ATOM     11  N   UNL     1       1.953   4.329  20.438  0.00  0.00    +0.000 N 
ATOM     12  C   UNL     1       1.869   5.518  21.281  0.00  0.00    +0.000 C 
ATOM     13  C   UNL     1       1.658   6.795  20.481  0.00  0.00    +0.000 C 
ATOM     14  C   UNL     1       2.790   6.948  19.477  0.00  0.00    +0.000 C 
ENDROOT
BRANCH   1  17
ATOM     15  C   UNL     1       6.074   4.562  15.664  0.00  0.00    +0.000 C 
ATOM     16  O   UNL     1       6.772   4.551  16.674  0.00  0.00    +0.000 OA
ATOM     17  N   UNL     1       4.692   4.589  15.572  0.00  0.00    +0.000 N 
ATOM     18  H   UNL     1       4.310   4.416  14.643  0.00  0.00    +0.000 HD
BRANCH  15  20
ATOM     19  N   UNL     1       6.231   3.541  13.470  0.00  0.00    +0.000 N 
ATOM     20  C   UNL     1       6.797   4.469  14.313  0.00  0.00    +0.000 C 
ATOM     21  O   UNL     1       7.757   5.186  14.071  0.00  0.00    +0.000 OA
ATOM     22  H   UNL     1       5.505   2.950  13.869  0.00  0.00    +0.000 HD
BRANCH  19  23
ATOM     23  C   UNL     1       6.738   3.239  12.151  0.00  0.00    +0.000 C 
BRANCH  23  24
ATOM     24  C   UNL     1       5.869   2.230  11.397  0.00  0.00    +0.000 C 
BRANCH  24  26
ATOM     25  C   UNL     1       6.142  -0.110  11.261  0.00  0.00    +0.000 C 
ATOM     26  O   UNL     1       6.685   1.158  10.913  0.00  0.00    +0.000 OA
ENDBRANCH  24  26
ENDBRANCH  23  24
ENDBRANCH  19  23
ENDBRANCH  15  20
ENDBRANCH   1  17
TORSDOF 5
ENDMDL
MODEL 5
REMARK VINA RESULT:      -7.5      1.895      3.392
REMARK  Name = 
REMARK  6 active torsions:
REMARK  status: ('A' for Active; 'I' for Inactive)
REMARK    1  A    between atoms: C_1  and  O_2
REMARK    2  A    between atoms: O_2  and  C_3
REMARK    3  A    between atoms: C_3  and  C_4
REMARK    4  A    between atoms: C_4  and  N_5
REMARK    5  A    between atoms: C_6  and  C_8
REMARK    6  A    between atoms: N_10  and  C_11
REMARK                            x       y       z     vdW  Elec       q    Type
REMARK                         _______ _______ _______ _____ _____    ______ ____
ROOT
ATOM      1  C   UNL     1       1.413   7.641  20.387  0.00  0.00    +0.000 A 
ATOM      2  C   UNL     1       2.263   7.792  19.288  0.00  0.00    +0.000 A 
ATOM      3  C   UNL     1       2.935   6.702  18.735  0.00  0.00    +0.000 A 
ATOM      4  C   UNL     1       2.687   5.428  19.252  0.00  0.00    +0.000 A 
ATOM      5  C   UNL     1       1.956   5.282  20.440  0.00  0.00    +0.000 A 
ATOM      6  C   UNL     1       1.342   6.401  21.027  0.00  0.00    +0.000 A 
ATOM      7  C   UNL     1       1.882   3.913  21.050  0.00  0.00    +0.000 C 
ATOM      8  C   UNL     1       1.599   2.904  19.954  0.00  0.00    +0.000 C 
ATOM      9  C   UNL     1       2.575   3.016  18.798  0.00  0.00    +0.000 C 
ATOM     10  O   UNL     1       2.771   2.047  18.062  0.00  0.00    +0.000 OA
ATOM     11  N   UNL     1       3.133   4.268  18.559  0.00  0.00    +0.000 N 
ATOM     12  C   UNL     1       3.938   4.441  17.353  0.00  0.00    +0.000 C 
ATOM     13  C   UNL     1       4.755   5.722  17.367  0.00  0.00    +0.000 C 
ATOM     14  C   UNL     1       3.821   6.909  17.541  0.00  0.00    +0.000 C 
ENDROOT
BRANCH   1  17
ATOM     15  C   UNL     1       0.886   9.492  21.936  0.00  0.00    +0.000 C 
ATOM     16  O   UNL     1       1.839   9.414  22.705  0.00  0.00    +0.000 OA
ATOM     17  N   UNL     1       0.601   8.703  20.833  0.00  0.00    +0.000 N 
ATOM     18  H   UNL     1      -0.144   9.046  20.228  0.00  0.00    +0.000 HD
BRANCH  15  20
ATOM     19  N   UNL     1      -0.508  11.235  20.987  0.00  0.00    +0.000 N 
ATOM     20  C   UNL     1      -0.102  10.647  22.161  0.00  0.00    +0.000 C 
ATOM     21  O   UNL     1      -0.460  10.945  23.291  0.00  0.00    +0.000 OA
ATOM     22  H   UNL     1      -0.027  10.937  20.140  0.00  0.00    +0.000 HD
BRANCH  19  23
ATOM     23  C   UNL     1      -1.412  12.361  20.923  0.00  0.00    +0.000 C 
BRANCH  23  24
ATOM     24  C   UNL     1      -2.233  12.391  19.633  0.00  0.00    +0.000 C 
BRANCH  24  26
ATOM     25  C   UNL     1      -2.186  11.460  17.465  0.00  0.00    +0.000 C 
ATOM     26  O   UNL     1      -1.411  12.001  18.527  0.00  0.00    +0.000 OA
ENDBRANCH  24  26
ENDBRANCH  23  24
ENDBRANCH  19  23
ENDBRANCH  15  20
ENDBRANCH   1  17
TORSDOF 5
ENDMDL
MODEL 6
REMARK VINA RESULT:      -7.4      2.010      3.341
REMARK  Name = 
REMARK  6 active torsions:
REMARK  status: ('A' for Active; 'I' for Inactive)
REMARK    1  A    between atoms: C_1  and  O_2
REMARK    2  A    between atoms: O_2  and  C_3
REMARK    3  A    between atoms: C_3  and  C_4
REMARK    4  A    between atoms: C_4  and  N_5
REMARK    5  A    between atoms: C_6  and  C_8
REMARK    6  A    between atoms: N_10  and  C_11
REMARK                            x       y       z     vdW  Elec       q    Type
REMARK                         _______ _______ _______ _____ _____    ______ ____
ROOT
ATOM      1  C   UNL     1       2.076   7.593  19.615  0.00  0.00    +0.000 A 
ATOM      2  C   UNL     1       2.950   7.331  18.556  0.00  0.00    +0.000 A 
ATOM      3  C   UNL     1       3.381   6.035  18.274  0.00  0.00    +0.000 A 
ATOM      4  C   UNL     1       2.864   4.977  19.027  0.00  0.00    +0.000 A 
ATOM      5  C   UNL     1       2.107   5.238  20.178  0.00  0.00    +0.000 A 
ATOM      6  C   UNL     1       1.737   6.557  20.489  0.00  0.00    +0.000 A 
ATOM      7  C   UNL     1       1.738   4.073  21.049  0.00  0.00    +0.000 C 
ATOM      8  C   UNL     1       1.259   2.935  20.168  0.00  0.00    +0.000 C 
ATOM      9  C   UNL     1       2.248   2.599  19.069  0.00  0.00    +0.000 C 
ATOM     10  O   UNL     1       2.242   1.477  18.557  0.00  0.00    +0.000 OA
ATOM     11  N   UNL     1       3.061   3.631  18.610  0.00  0.00    +0.000 N 
ATOM     12  C   UNL     1       3.897   3.377  17.440  0.00  0.00    +0.000 C 
ATOM     13  C   UNL     1       4.967   4.437  17.236  0.00  0.00    +0.000 C 
ATOM     14  C   UNL     1       4.303   5.800  17.114  0.00  0.00    +0.000 C 
ENDROOT
BRANCH   1  17
ATOM     15  C   UNL     1       0.907   9.600  18.776  0.00  0.00    +0.000 C 
ATOM     16  O   UNL     1       0.784   9.304  17.591  0.00  0.00    +0.000 OA
ATOM     17  N   UNL     1       1.502   8.868  19.790  0.00  0.00    +0.000 N 
ATOM     18  H   UNL     1       1.341   9.215  20.735  0.00  0.00    +0.000 HD
BRANCH  15  20
ATOM     19  N   UNL     1       0.993  11.543  20.225  0.00  0.00    +0.000 N 
ATOM     20  C   UNL     1       0.268  10.919  19.237  0.00  0.00    +0.000 C 
ATOM     21  O   UNL     1      -0.765  11.321  18.723  0.00  0.00    +0.000 OA
ATOM     22  H   UNL     1       1.771  11.018  20.617  0.00  0.00    +0.000 HD
BRANCH  19  23
ATOM     23  C   UNL     1       0.595  12.783  20.851  0.00  0.00    +0.000 C 
BRANCH  23  24
ATOM     24  C   UNL     1      -0.437  12.583  21.964  0.00  0.00    +0.000 C 
BRANCH  24  26
ATOM     25  C   UNL     1      -1.177  10.664  23.122  0.00  0.00    +0.000 C 
ATOM     26  O   UNL     1      -0.056  11.471  22.781  0.00  0.00    +0.000 OA
ENDBRANCH  24  26
ENDBRANCH  23  24
ENDBRANCH  19  23
ENDBRANCH  15  20
ENDBRANCH   1  17
TORSDOF 5
ENDMDL
MODEL 7
REMARK VINA RESULT:      -7.4      1.688      2.986
REMARK  Name = 
REMARK  6 active torsions:
REMARK  status: ('A' for Active; 'I' for Inactive)
REMARK    1  A    between atoms: C_1  and  O_2
REMARK    2  A    between atoms: O_2  and  C_3
REMARK    3  A    between atoms: C_3  and  C_4
REMARK    4  A    between atoms: C_4  and  N_5
REMARK    5  A    between atoms: C_6  and  C_8
REMARK    6  A    between atoms: N_10  and  C_11
REMARK                            x       y       z     vdW  Elec       q    Type
REMARK                         _______ _______ _______ _____ _____    ______ ____
ROOT
ATOM      1  C   UNL     1       1.503   7.582  20.339  0.00  0.00    +0.000 A 
ATOM      2  C   UNL     1       2.353   7.687  19.234  0.00  0.00    +0.000 A 
ATOM      3  C   UNL     1       3.018   6.574  18.721  0.00  0.00    +0.000 A 
ATOM      4  C   UNL     1       2.764   5.321  19.287  0.00  0.00    +0.000 A 
ATOM      5  C   UNL     1       2.034   5.224  20.480  0.00  0.00    +0.000 A 
ATOM      6  C   UNL     1       1.425   6.367  21.024  0.00  0.00    +0.000 A 
ATOM      7  C   UNL     1       1.952   3.879  21.140  0.00  0.00    +0.000 C 
ATOM      8  C   UNL     1       1.664   2.831  20.083  0.00  0.00    +0.000 C 
ATOM      9  C   UNL     1       2.638   2.895  18.923  0.00  0.00    +0.000 C 
ATOM     10  O   UNL     1       2.829   1.898  18.223  0.00  0.00    +0.000 OA
ATOM     11  N   UNL     1       3.203   4.135  18.637  0.00  0.00    +0.000 N 
ATOM     12  C   UNL     1       4.007   4.257  17.425  0.00  0.00    +0.000 C 
ATOM     13  C   UNL     1       4.832   5.534  17.389  0.00  0.00    +0.000 C 
ATOM     14  C   UNL     1       3.904   6.732  17.520  0.00  0.00    +0.000 C 
ENDROOT
BRANCH   1  17
ATOM     15  C   UNL     1       0.948   9.448  21.860  0.00  0.00    +0.000 C 
ATOM     16  O   UNL     1       1.861   9.347  22.674  0.00  0.00    +0.000 OA
ATOM     17  N   UNL     1       0.696   8.665  20.745  0.00  0.00    +0.000 N 
ATOM     18  H   UNL     1      -0.010   9.025  20.105  0.00  0.00    +0.000 HD
BRANCH  15  20
ATOM     19  N   UNL     1      -0.421  11.170  20.840  0.00  0.00    +0.000 N 
ATOM     20  C   UNL     1      -0.021  10.627  22.038  0.00  0.00    +0.000 C 
ATOM     21  O   UNL     1      -0.371  10.979  23.154  0.00  0.00    +0.000 OA
ATOM     22  H   UNL     1       0.052  10.829  20.006  0.00  0.00    +0.000 HD
BRANCH  19  23
ATOM     23  C   UNL     1      -1.307  12.307  20.730  0.00  0.00    +0.000 C 
BRANCH  23  24
ATOM     24  C   UNL     1      -2.339  12.150  19.611  0.00  0.00    +0.000 C 
BRANCH  24  26
ATOM     25  C   UNL     1      -3.599  12.887  21.466  0.00  0.00    +0.000 C 
ATOM     26  O   UNL     1      -3.626  12.571  20.079  0.00  0.00    +0.000 OA
ENDBRANCH  24  26
ENDBRANCH  23  24
ENDBRANCH  19  23
ENDBRANCH  15  20
ENDBRANCH   1  17
TORSDOF 5
ENDMDL
MODEL 8
REMARK VINA RESULT:      -7.3      2.208      3.631
REMARK  Name = 
REMARK  6 active torsions:
REMARK  status: ('A' for Active; 'I' for Inactive)
REMARK    1  A    between atoms: C_1  and  O_2
REMARK    2  A    between atoms: O_2  and  C_3
REMARK    3  A    between atoms: C_3  and  C_4
REMARK    4  A    between atoms: C_4  and  N_5
REMARK    5  A    between atoms: C_6  and  C_8
REMARK    6  A    between atoms: N_10  and  C_11
REMARK                            x       y       z     vdW  Elec       q    Type
REMARK                         _______ _______ _______ _____ _____    ______ ____
ROOT
ATOM      1  C   UNL     1       1.985   7.608  19.680  0.00  0.00    +0.000 A 
ATOM      2  C   UNL     1       2.868   7.425  18.612  0.00  0.00    +0.000 A 
ATOM      3  C   UNL     1       3.428   6.178  18.338  0.00  0.00    +0.000 A 
ATOM      4  C   UNL     1       3.033   5.081  19.109  0.00  0.00    +0.000 A 
ATOM      5  C   UNL     1       2.268   5.276  20.268  0.00  0.00    +0.000 A 
ATOM      6  C   UNL     1       1.767   6.553  20.570  0.00  0.00    +0.000 A 
ATOM      7  C   UNL     1       2.033   4.090  21.156  0.00  0.00    +0.000 C 
ATOM      8  C   UNL     1       1.664   2.898  20.295  0.00  0.00    +0.000 C 
ATOM      9  C   UNL     1       2.669   2.653  19.186  0.00  0.00    +0.000 C 
ATOM     10  O   UNL     1       2.773   1.530  18.686  0.00  0.00    +0.000 OA
ATOM     11  N   UNL     1       3.364   3.759  18.704  0.00  0.00    +0.000 N 
ATOM     12  C   UNL     1       4.206   3.578  17.525  0.00  0.00    +0.000 C 
ATOM     13  C   UNL     1       5.158   4.741  17.295  0.00  0.00    +0.000 C 
ATOM     14  C   UNL     1       4.354   6.026  17.167  0.00  0.00    +0.000 C 
ENDROOT
BRANCH   1  17
ATOM     15  C   UNL     1       1.124   9.464  21.065  0.00  0.00    +0.000 C 
ATOM     16  O   UNL     1       1.526   9.117  22.172  0.00  0.00    +0.000 OA
ATOM     17  N   UNL     1       1.284   8.819  19.849  0.00  0.00    +0.000 N 
ATOM     18  H   UNL     1       1.027   9.363  19.027  0.00  0.00    +0.000 HD
BRANCH  15  20
ATOM     19  N   UNL     1      -0.759  10.753  20.246  0.00  0.00    +0.000 N 
ATOM     20  C   UNL     1       0.405  10.817  20.975  0.00  0.00    +0.000 C 
ATOM     21  O   UNL     1       0.864  11.803  21.533  0.00  0.00    +0.000 OA
ATOM     22  H   UNL     1      -0.940   9.879  19.756  0.00  0.00    +0.000 HD
BRANCH  19  23
ATOM     23  C   UNL     1      -1.609  11.893  19.987  0.00  0.00    +0.000 C 
BRANCH  23  24
ATOM     24  C   UNL     1      -2.190  11.891  18.571  0.00  0.00    +0.000 C 
BRANCH  24  26
ATOM     25  C   UNL     1      -2.418  10.539  16.651  0.00  0.00    +0.000 C 
ATOM     26  O   UNL     1      -1.670  10.777  17.837  0.00  0.00    +0.000 OA
ENDBRANCH  24  26
ENDBRANCH  23  24
ENDBRANCH  19  23
ENDBRANCH  15  20
ENDBRANCH   1  17
TORSDOF 5
ENDMDL
MODEL 9
REMARK VINA RESULT:      -7.2      2.353      3.499
REMARK  Name = 
REMARK  6 active torsions:
REMARK  status: ('A' for Active; 'I' for Inactive)
REMARK    1  A    between atoms: C_1  and  O_2
REMARK    2  A    between atoms: O_2  and  C_3
REMARK    3  A    between atoms: C_3  and  C_4
REMARK    4  A    between atoms: C_4  and  N_5
REMARK    5  A    between atoms: C_6  and  C_8
REMARK    6  A    between atoms: N_10  and  C_11
REMARK                            x       y       z     vdW  Elec       q    Type
REMARK                         _______ _______ _______ _____ _____    ______ ____
ROOT
ATOM      1  C   UNL     1       2.138   7.566  19.433  0.00  0.00    +0.000 A 
ATOM      2  C   UNL     1       3.008   7.252  18.385  0.00  0.00    +0.000 A 
ATOM      3  C   UNL     1       3.472   5.951  18.190  0.00  0.00    +0.000 A 
ATOM      4  C   UNL     1       2.992   4.937  19.023  0.00  0.00    +0.000 A 
ATOM      5  C   UNL     1       2.240   5.259  20.162  0.00  0.00    +0.000 A 
ATOM      6  C   UNL     1       1.837   6.586  20.383  0.00  0.00    +0.000 A 
ATOM      7  C   UNL     1       1.912   4.150  21.118  0.00  0.00    +0.000 C 
ATOM      8  C   UNL     1       1.456   2.940  20.327  0.00  0.00    +0.000 C 
ATOM      9  C   UNL     1       2.442   2.552  19.242  0.00  0.00    +0.000 C 
ATOM     10  O   UNL     1       2.462   1.397  18.812  0.00  0.00    +0.000 OA
ATOM     11  N   UNL     1       3.222   3.570  18.701  0.00  0.00    +0.000 N 
ATOM     12  C   UNL     1       4.052   3.255  17.541  0.00  0.00    +0.000 C 
ATOM     13  C   UNL     1       5.090   4.326  17.249  0.00  0.00    +0.000 C 
ATOM     14  C   UNL     1       4.388   5.659  17.038  0.00  0.00    +0.000 C 
ENDROOT
BRANCH   1  17
ATOM     15  C   UNL     1       1.518   9.767  18.499  0.00  0.00    +0.000 C 
ATOM     16  O   UNL     1       2.019   9.680  17.381  0.00  0.00    +0.000 OA
ATOM     17  N   UNL     1       1.531   8.835  19.524  0.00  0.00    +0.000 N 
ATOM     18  H   UNL     1       0.907   9.032  20.305  0.00  0.00    +0.000 HD
BRANCH  15  20
ATOM     19  N   UNL     1      -0.466  11.102  18.098  0.00  0.00    +0.000 N 
ATOM     20  C   UNL     1       0.710  11.036  18.807  0.00  0.00    +0.000 C 
ATOM     21  O   UNL     1       1.120  11.851  19.621  0.00  0.00    +0.000 OA
ATOM     22  H   UNL     1      -0.603  10.394  17.380  0.00  0.00    +0.000 HD
BRANCH  19  23
ATOM     23  C   UNL     1      -1.395  12.206  18.183  0.00  0.00    +0.000 C 
BRANCH  23  24
ATOM     24  C   UNL     1      -2.374  12.071  19.352  0.00  0.00    +0.000 C 
BRANCH  24  26
ATOM     25  C   UNL     1      -2.375  12.479  21.676  0.00  0.00    +0.000 C 
ATOM     26  O   UNL     1      -2.007  12.979  20.396  0.00  0.00    +0.000 OA
ENDBRANCH  24  26
ENDBRANCH  23  24
ENDBRANCH  19  23
ENDBRANCH  15  20
ENDBRANCH   1  17
TORSDOF 5
ENDMDL
