MODEL 1
REMARK VINA RESULT:      -7.3      0.000      0.000
REMARK  Name = 
REMARK  4 active torsions:
REMARK  status: ('A' for Active; 'I' for Inactive)
REMARK    1  A    between atoms: C_1  and  C_2
REMARK    2  A    between atoms: C_2  and  C_3
REMARK    3  A    between atoms: C_5  and  C_6
REMARK    4  A    between atoms: C_7  and  C_8
REMARK                            x       y       z     vdW  Elec       q    Type
REMARK                         _______ _______ _______ _____ _____    ______ ____
ROOT
ATOM      1  C   UNL     1       4.890   5.804  16.765  0.00  0.00    +0.000 C 
ATOM      2  C   UNL     1       6.407   5.866  16.660  0.00  0.00    +0.000 C 
ATOM      3  C   UNL     1       6.943   5.089  15.467  0.00  0.00    +0.000 C 
ATOM      4  O   UNL     1       6.819   7.246  16.554  0.00  0.00    +0.000 OA
ATOM      5  C   UNL     1       7.604   7.503  17.675  0.00  0.00    +0.000 C 
ATOM      6  C   UNL     1       7.808   6.511  18.541  0.00  0.00    +0.000 C 
ATOM      7  C   UNL     1       7.060   5.418  17.941  0.00  0.00    +0.000 C 
ATOM      8  O   UNL     1       6.998   4.306  18.444  0.00  0.00    +0.000 OA
ENDROOT
BRANCH   5   9
ATOM      9  C   UNL     1       8.140   8.838  17.805  0.00  0.00    +0.000 C 
ATOM     10  C   UNL     1       8.858   9.259  18.861  0.00  0.00    +0.000 C 
BRANCH  10  11
ATOM     11  C   UNL     1       9.411  10.609  19.028  0.00  0.00    +0.000 A 
ATOM     12  C   UNL     1       9.795  11.423  17.961  0.00  0.00    +0.000 A 
ATOM     13  C   UNL     1      10.258  12.716  18.202  0.00  0.00    +0.000 A 
ATOM     14  C   UNL     1      10.318  13.162  19.511  0.00  0.00    +0.000 A 
ATOM     15  N   UNL     1       9.949  12.415  20.572  0.00  0.00    +0.000 NA
ATOM     16  C   UNL     1       9.503  11.164  20.306  0.00  0.00    +0.000 A 
ENDBRANCH  10  11
ENDBRANCH   5   9
TORSDOF 2
ENDMDL
MODEL 2
REMARK VINA RESULT:      -7.0      1.082      1.258
REMARK  Name = 
REMARK  4 active torsions:
REMARK  status: ('A' for Active; 'I' for Inactive)
REMARK    1  A    between atoms: C_1  and  C_2
REMARK    2  A    between atoms: C_2  and  C_3
REMARK    3  A    between atoms: C_5  and  C_6
REMARK    4  A    between atoms: C_7  and  C_8
REMARK                            x       y       z     vdW  Elec       q    Type
REMARK                         _______ _______ _______ _____ _____    ______ ____
ROOT
ATOM      1  C   UNL     1       4.521   6.145  17.719  0.00  0.00    +0.000 C 
ATOM      2  C   UNL     1       5.929   6.082  17.143  0.00  0.00    +0.000 C 
ATOM      3  C   UNL     1       6.004   5.248  15.874  0.00  0.00    +0.000 C 
ATOM      4  O   UNL     1       6.386   7.422  16.861  0.00  0.00    +0.000 OA
ATOM      5  C   UNL     1       7.501   7.630  17.670  0.00  0.00    +0.000 C 
ATOM      6  C   UNL     1       7.894   6.636  18.467  0.00  0.00    +0.000 C 
ATOM      7  C   UNL     1       6.917   5.600  18.173  0.00  0.00    +0.000 C 
ATOM      8  O   UNL     1       6.935   4.503  18.713  0.00  0.00    +0.000 OA
ENDROOT
BRANCH   5   9
ATOM      9  C   UNL     1       8.147   8.917  17.575  0.00  0.00    +0.000 C 
ATOM     10  C   UNL     1       8.701   9.559  18.619  0.00  0.00    +0.000 C 
BRANCH  10  11
ATOM     11  C   UNL     1       9.358  10.870  18.558  0.00  0.00    +0.000 A 
ATOM     12  C   UNL     1      10.625  11.123  19.090  0.00  0.00    +0.000 A 
ATOM     13  C   UNL     1      11.204  12.383  18.940  0.00  0.00    +0.000 A 
ATOM     14  C   UNL     1      10.499  13.356  18.254  0.00  0.00    +0.000 A 
ATOM     15  N   UNL     1       9.278  13.154  17.716  0.00  0.00    +0.000 NA
ATOM     16  C   UNL     1       8.742  11.921  17.877  0.00  0.00    +0.000 A 
ENDBRANCH  10  11
ENDBRANCH   5   9
TORSDOF 2
ENDMDL
MODEL 3
REMARK VINA RESULT:      -6.8      6.036      7.426
REMARK  Name = 
REMARK  4 active torsions:
REMARK  status: ('A' for Active; 'I' for Inactive)
REMARK    1  A    between atoms: C_1  and  C_2
REMARK    2  A    between atoms: C_2  and  C_3
REMARK    3  A    between atoms: C_5  and  C_6
REMARK    4  A    between atoms: C_7  and  C_8
REMARK                            x       y       z     vdW  Elec       q    Type
REMARK                         _______ _______ _______ _____ _____    ______ ____
ROOT
ATOM      1  C   UNL     1       1.317   4.507  20.080  0.00  0.00    +0.000 C 
ATOM      2  C   UNL     1       2.098   3.383  19.412  0.00  0.00    +0.000 C 
ATOM      3  C   UNL     1       1.214   2.206  19.028  0.00  0.00    +0.000 C 
ATOM      4  O   UNL     1       2.751   3.896  18.231  0.00  0.00    +0.000 OA
ATOM      5  C   UNL     1       4.119   3.747  18.448  0.00  0.00    +0.000 C 
ATOM      6  C   UNL     1       4.517   3.202  19.597  0.00  0.00    +0.000 C 
ATOM      7  C   UNL     1       3.255   2.940  20.270  0.00  0.00    +0.000 C 
ATOM      8  O   UNL     1       3.191   2.430  21.379  0.00  0.00    +0.000 OA
ENDROOT
BRANCH   5   9
ATOM      9  C   UNL     1       5.000   4.198  17.397  0.00  0.00    +0.000 C 
ATOM     10  C   UNL     1       5.049   3.648  16.172  0.00  0.00    +0.000 C 
BRANCH  10  11
ATOM     11  C   UNL     1       5.937   4.077  15.083  0.00  0.00    +0.000 A 
ATOM     12  C   UNL     1       5.790   3.660  13.758  0.00  0.00    +0.000 A 
ATOM     13  C   UNL     1       6.640   4.159  12.773  0.00  0.00    +0.000 A 
ATOM     14  C   UNL     1       7.615   5.070  13.141  0.00  0.00    +0.000 A 
ATOM     15  N   UNL     1       7.788   5.508  14.406  0.00  0.00    +0.000 NA
ATOM     16  C   UNL     1       6.946   5.006  15.341  0.00  0.00    +0.000 A 
ENDBRANCH  10  11
ENDBRANCH   5   9
TORSDOF 2
ENDMDL
MODEL 4
REMARK VINA RESULT:      -6.8      1.095      1.503
REMARK  Name = 
REMARK  4 active torsions:
REMARK  status: ('A' for Active; 'I' for Inactive)
REMARK    1  A    between atoms: C_1  and  C_2
REMARK    2  A    between atoms: C_2  and  C_3
REMARK    3  A    between atoms: C_5  and  C_6
REMARK    4  A    between atoms: C_7  and  C_8
REMARK                            x       y       z     vdW  Elec       q    Type
REMARK                         _______ _______ _______ _____ _____    ______ ____
ROOT
ATOM      1  C   UNL     1       5.297   6.221  15.567  0.00  0.00    +0.000 C 
ATOM      2  C   UNL     1       6.561   5.702  16.238  0.00  0.00    +0.000 C 
ATOM      3  C   UNL     1       7.298   4.682  15.383  0.00  0.00    +0.000 C 
ATOM      4  O   UNL     1       7.439   6.812  16.520  0.00  0.00    +0.000 OA
ATOM      5  C   UNL     1       7.583   6.851  17.905  0.00  0.00    +0.000 C 
ATOM      6  C   UNL     1       6.944   5.932  18.629  0.00  0.00    +0.000 C 
ATOM      7  C   UNL     1       6.263   5.152  17.608  0.00  0.00    +0.000 C 
ATOM      8  O   UNL     1       5.555   4.191  17.874  0.00  0.00    +0.000 OA
ENDROOT
BRANCH   5   9
ATOM      9  C   UNL     1       8.423   7.893  18.446  0.00  0.00    +0.000 C 
ATOM     10  C   UNL     1       8.304   9.194  18.128  0.00  0.00    +0.000 C 
BRANCH  10  11
ATOM     11  C   UNL     1       9.144  10.277  18.653  0.00  0.00    +0.000 A 
ATOM     12  C   UNL     1       9.276  10.561  20.014  0.00  0.00    +0.000 A 
ATOM     13  C   UNL     1      10.140  11.571  20.435  0.00  0.00    +0.000 A 
ATOM     14  C   UNL     1      10.857  12.268  19.477  0.00  0.00    +0.000 A 
ATOM     15  N   UNL     1      10.769  12.022  18.154  0.00  0.00    +0.000 NA
ATOM     16  C   UNL     1       9.922  11.035  17.776  0.00  0.00    +0.000 A 
ENDBRANCH  10  11
ENDBRANCH   5   9
TORSDOF 2
ENDMDL
MODEL 5
REMARK VINA RESULT:      -6.7      5.925      7.661
REMARK  Name = 
REMARK  4 active torsions:
REMARK  status: ('A' for Active; 'I' for Inactive)
REMARK    1  A    between atoms: C_1  and  C_2
REMARK    2  A    between atoms: C_2  and  C_3
REMARK    3  A    between atoms: C_5  and  C_6
REMARK    4  A    between atoms: C_7  and  C_8
REMARK                            x       y       z     vdW  Elec       q    Type
REMARK                         _______ _______ _______ _____ _____    ______ ____
ROOT
ATOM      1  C   UNL     1       2.723   2.854  21.144  0.00  0.00    +0.000 C 
ATOM      2  C   UNL     1       2.389   3.666  19.901  0.00  0.00    +0.000 C 
ATOM      3  C   UNL     1       1.624   4.941  20.223  0.00  0.00    +0.000 C 
ATOM      4  O   UNL     1       3.613   4.005  19.214  0.00  0.00    +0.000 OA
ATOM      5  C   UNL     1       3.535   3.399  17.962  0.00  0.00    +0.000 C 
ATOM      6  C   UNL     1       2.441   2.697  17.670  0.00  0.00    +0.000 C 
ATOM      7  C   UNL     1       1.655   2.831  18.886  0.00  0.00    +0.000 C 
ATOM      8  O   UNL     1       0.553   2.317  19.019  0.00  0.00    +0.000 OA
ENDROOT
BRANCH   5   9
ATOM      9  C   UNL     1       4.658   3.588  17.074  0.00  0.00    +0.000 C 
ATOM     10  C   UNL     1       4.577   4.203  15.882  0.00  0.00    +0.000 C 
BRANCH  10  11
ATOM     11  C   UNL     1       5.696   4.406  14.952  0.00  0.00    +0.000 A 
ATOM     12  C   UNL     1       5.733   3.872  13.662  0.00  0.00    +0.000 A 
ATOM     13  C   UNL     1       6.807   4.159  12.820  0.00  0.00    +0.000 A 
ATOM     14  C   UNL     1       7.815   4.982  13.294  0.00  0.00    +0.000 A 
ATOM     15  N   UNL     1       7.817   5.526  14.528  0.00  0.00    +0.000 NA
ATOM     16  C   UNL     1       6.760   5.229  15.322  0.00  0.00    +0.000 A 
ENDBRANCH  10  11
ENDBRANCH   5   9
TORSDOF 2
ENDMDL
MODEL 6
REMARK VINA RESULT:      -6.6      5.832      7.534
REMARK  Name = 
REMARK  4 active torsions:
REMARK  status: ('A' for Active; 'I' for Inactive)
REMARK    1  A    between atoms: C_1  and  C_2
REMARK    2  A    between atoms: C_2  and  C_3
REMARK    3  A    between atoms: C_5  and  C_6
REMARK    4  A    between atoms: C_7  and  C_8
REMARK                            x       y       z     vdW  Elec       q    Type
REMARK                         _______ _______ _______ _____ _____    ______ ____
ROOT
ATOM      1  C   UNL     1       0.840   2.526  19.749  0.00  0.00    +0.000 C 
ATOM      2  C   UNL     1       2.133   3.188  20.203  0.00  0.00    +0.000 C 
ATOM      3  C   UNL     1       2.573   2.725  21.583  0.00  0.00    +0.000 C 
ATOM      4  O   UNL     1       3.176   2.897  19.247  0.00  0.00    +0.000 OA
ATOM      5  C   UNL     1       3.574   4.124  18.722  0.00  0.00    +0.000 C 
ATOM      6  C   UNL     1       2.974   5.225  19.173  0.00  0.00    +0.000 C 
ATOM      7  C   UNL     1       2.028   4.689  20.138  0.00  0.00    +0.000 C 
ATOM      8  O   UNL     1       1.271   5.398  20.785  0.00  0.00    +0.000 OA
ENDROOT
BRANCH   5   9
ATOM      9  C   UNL     1       4.619   4.100  17.726  0.00  0.00    +0.000 C 
ATOM     10  C   UNL     1       4.505   4.653  16.506  0.00  0.00    +0.000 C 
BRANCH  10  11
ATOM     11  C   UNL     1       5.543   4.641  15.467  0.00  0.00    +0.000 A 
ATOM     12  C   UNL     1       5.383   4.025  14.224  0.00  0.00    +0.000 A 
ATOM     13  C   UNL     1       6.396   4.109  13.270  0.00  0.00    +0.000 A 
ATOM     14  C   UNL     1       7.544   4.816  13.586  0.00  0.00    +0.000 A 
ATOM     15  N   UNL     1       7.738   5.434  14.769  0.00  0.00    +0.000 NA
ATOM     16  C   UNL     1       6.735   5.336  15.675  0.00  0.00    +0.000 A 
ENDBRANCH  10  11
ENDBRANCH   5   9
TORSDOF 2
ENDMDL
MODEL 7
REMARK VINA RESULT:      -6.4      3.273      6.919
REMARK  Name = 
REMARK  4 active torsions:
REMARK  status: ('A' for Active; 'I' for Inactive)
REMARK    1  A    between atoms: C_1  and  C_2
REMARK    2  A    between atoms: C_2  and  C_3
REMARK    3  A    between atoms: C_5  and  C_6
REMARK    4  A    between atoms: C_7  and  C_8
REMARK                            x       y       z     vdW  Elec       q    Type
REMARK                         _______ _______ _______ _____ _____    ______ ____
ROOT
ATOM      1  C   UNL     1      10.961  12.753  17.285  0.00  0.00    +0.000 C 
ATOM      2  C   UNL     1       9.737  12.524  18.161  0.00  0.00    +0.000 C 
ATOM      3  C   UNL     1       8.697  13.624  18.010  0.00  0.00    +0.000 C 
ATOM      4  O   UNL     1       9.142  11.254  17.821  0.00  0.00    +0.000 OA
ATOM      5  C   UNL     1       9.220  10.469  18.970  0.00  0.00    +0.000 C 
ATOM      6  C   UNL     1       9.772  11.003  20.059  0.00  0.00    +0.000 C 
ATOM      7  C   UNL     1      10.128  12.337  19.604  0.00  0.00    +0.000 C 
ATOM      8  O   UNL     1      10.670  13.160  20.328  0.00  0.00    +0.000 OA
ENDROOT
BRANCH   5   9
ATOM      9  C   UNL     1       8.688   9.130  18.884  0.00  0.00    +0.000 C 
ATOM     10  C   UNL     1       8.001   8.662  17.828  0.00  0.00    +0.000 C 
BRANCH  10  11
ATOM     11  C   UNL     1       7.440   7.310  17.710  0.00  0.00    +0.000 A 
ATOM     12  C   UNL     1       7.958   6.199  18.380  0.00  0.00    +0.000 A 
ATOM     13  C   UNL     1       7.332   4.959  18.261  0.00  0.00    +0.000 A 
ATOM     14  C   UNL     1       6.196   4.866  17.475  0.00  0.00    +0.000 A 
ATOM     15  N   UNL     1       5.656   5.913  16.817  0.00  0.00    +0.000 NA
ATOM     16  C   UNL     1       6.286   7.104  16.953  0.00  0.00    +0.000 A 
ENDBRANCH  10  11
ENDBRANCH   5   9
TORSDOF 2
ENDMDL
MODEL 8
REMARK VINA RESULT:      -6.3      1.387      2.238
REMARK  Name = 
REMARK  4 active torsions:
REMARK  status: ('A' for Active; 'I' for Inactive)
REMARK    1  A    between atoms: C_1  and  C_2
REMARK    2  A    between atoms: C_2  and  C_3
REMARK    3  A    between atoms: C_5  and  C_6
REMARK    4  A    between atoms: C_7  and  C_8
REMARK                            x       y       z     vdW  Elec       q    Type
REMARK                         _______ _______ _______ _____ _____    ______ ____
ROOT
ATOM      1  C   UNL     1       7.525   4.502  17.071  0.00  0.00    +0.000 C 
ATOM      2  C   UNL     1       6.865   5.584  17.914  0.00  0.00    +0.000 C 
ATOM      3  C   UNL     1       5.903   5.015  18.945  0.00  0.00    +0.000 C 
ATOM      4  O   UNL     1       7.887   6.350  18.587  0.00  0.00    +0.000 OA
ATOM      5  C   UNL     1       7.768   7.655  18.114  0.00  0.00    +0.000 C 
ATOM      6  C   UNL     1       6.815   7.915  17.219  0.00  0.00    +0.000 C 
ATOM      7  C   UNL     1       6.189   6.614  17.047  0.00  0.00    +0.000 C 
ATOM      8  O   UNL     1       5.247   6.429  16.290  0.00  0.00    +0.000 OA
ENDROOT
BRANCH   5   9
ATOM      9  C   UNL     1       8.696   8.628  18.639  0.00  0.00    +0.000 C 
ATOM     10  C   UNL     1       8.800   9.889  18.185  0.00  0.00    +0.000 C 
BRANCH  10  11
ATOM     11  C   UNL     1       9.736  10.900  18.692  0.00  0.00    +0.000 A 
ATOM     12  C   UNL     1       9.911  11.179  20.049  0.00  0.00    +0.000 A 
ATOM     13  C   UNL     1      10.863  12.115  20.451  0.00  0.00    +0.000 A 
ATOM     14  C   UNL     1      11.622  12.744  19.479  0.00  0.00    +0.000 A 
ATOM     15  N   UNL     1      11.494  12.500  18.158  0.00  0.00    +0.000 NA
ATOM     16  C   UNL     1      10.562  11.585  17.799  0.00  0.00    +0.000 A 
ENDBRANCH  10  11
ENDBRANCH   5   9
TORSDOF 2
ENDMDL
MODEL 9
REMARK VINA RESULT:      -6.3      3.314      7.041
REMARK  Name = 
REMARK  4 active torsions:
REMARK  status: ('A' for Active; 'I' for Inactive)
REMARK    1  A    between atoms: C_1  and  C_2
REMARK    2  A    between atoms: C_2  and  C_3
REMARK    3  A    between atoms: C_5  and  C_6
REMARK    4  A    between atoms: C_7  and  C_8
REMARK                            x       y       z     vdW  Elec       q    Type
REMARK                         _______ _______ _______ _____ _____    ______ ____
ROOT
ATOM      1  C   UNL     1       9.189  12.345  21.230  0.00  0.00    +0.000 C 
ATOM      2  C   UNL     1       9.948  11.732  20.061  0.00  0.00    +0.000 C 
ATOM      3  C   UNL     1      11.452  11.931  20.175  0.00  0.00    +0.000 C 
ATOM      4  O   UNL     1       9.657  10.320  19.995  0.00  0.00    +0.000 OA
ATOM      5  C   UNL     1       9.034  10.110  18.766  0.00  0.00    +0.000 C 
ATOM      6  C   UNL     1       8.854  11.160  17.965  0.00  0.00    +0.000 C 
ATOM      7  C   UNL     1       9.427  12.246  18.745  0.00  0.00    +0.000 C 
ATOM      8  O   UNL     1       9.459  13.401  18.345  0.00  0.00    +0.000 OA
ENDROOT
BRANCH   5   9
ATOM      9  C   UNL     1       8.633   8.758  18.459  0.00  0.00    +0.000 C 
ATOM     10  C   UNL     1       7.518   8.441  17.779  0.00  0.00    +0.000 C 
BRANCH  10  11
ATOM     11  C   UNL     1       7.078   7.078  17.456  0.00  0.00    +0.000 A 
ATOM     12  C   UNL     1       7.708   5.929  17.938  0.00  0.00    +0.000 A 
ATOM     13  C   UNL     1       7.193   4.671  17.631  0.00  0.00    +0.000 A 
ATOM     14  C   UNL     1       6.051   4.597  16.851  0.00  0.00    +0.000 A 
ATOM     15  N   UNL     1       5.404   5.679  16.372  0.00  0.00    +0.000 NA
ATOM     16  C   UNL     1       5.928   6.888  16.687  0.00  0.00    +0.000 A 
ENDBRANCH  10  11
ENDBRANCH   5   9
TORSDOF 2
ENDMDL
