MODEL 1
REMARK VINA RESULT:      -8.2      0.000      0.000
REMARK  Name = 
REMARK  11 active torsions:
REMARK  status: ('A' for Active; 'I' for Inactive)
REMARK    1  A    between atoms: C_1  and  C_2
REMARK    2  A    between atoms: C_2  and  O_3
REMARK    3  A    between atoms: O_3  and  C_4
REMARK    4  A    between atoms: N_7  and  C_8
REMARK    5  A    between atoms: C_11  and  C_12
REMARK    6  A    between atoms: C_15  and  C_16
REMARK    7  A    between atoms: C_16  and  CA_17
REMARK    8  A    between atoms: CA_17  and  N_18
REMARK    9  A    between atoms: CA_17  and  C_29
REMARK   10  A    between atoms: C_19  and  C_21
REMARK   11  A    between atoms: C_29  and  OXT_31
REMARK                            x       y       z     vdW  Elec       q    Type
REMARK                         _______ _______ _______ _____ _____    ______ ____
ROOT
ATOM      1  C   UNL     1       0.914  10.649  19.670  0.00  0.00    +0.000 C 
ENDROOT
BRANCH   1   5
ATOM      2  C   UNL     1       2.699   6.957  18.298  0.00  0.00    +0.000 A 
ATOM      3  C   UNL     1       2.366   7.955  17.374  0.00  0.00    +0.000 A 
ATOM      4  C   UNL     1       1.734   9.134  17.795  0.00  0.00    +0.000 A 
ATOM      5  C   UNL     1       1.428   9.329  19.147  0.00  0.00    +0.000 A 
ATOM      6  C   UNL     1       1.721   8.305  20.058  0.00  0.00    +0.000 A 
ATOM      7  C   UNL     1       2.351   7.131  19.640  0.00  0.00    +0.000 A 
BRANCH   2  15
ATOM      8  C   UNL     1       2.777   4.560  17.785  0.00  0.00    +0.000 A 
ATOM      9  C   UNL     1       3.612   3.415  17.341  0.00  0.00    +0.000 A 
ATOM     10  N   UNL     1       4.859   3.450  17.005  0.00  0.00    +0.000 NA
ATOM     11  N   UNL     1       5.477   4.667  17.074  0.00  0.00    +0.000 N 
ATOM     12  C   UNL     1       6.864   4.708  16.652  0.00  0.00    +0.000 C 
ATOM     13  C   UNL     1       4.864   5.839  17.503  0.00  0.00    +0.000 A 
ATOM     14  O   UNL     1       5.456   6.917  17.568  0.00  0.00    +0.000 OA
ATOM     15  C   UNL     1       3.416   5.741  17.877  0.00  0.00    +0.000 A 
BRANCH   8  16
ATOM     16  O   UNL     1       1.426   4.426  18.082  0.00  0.00    +0.000 OA
BRANCH  16  18
ATOM     17  C   UNL     1       0.987   3.757  20.350  0.00  0.00    +0.000 C 
ATOM     18  C   UNL     1       1.052   3.317  18.900  0.00  0.00    +0.000 C 
ENDBRANCH  16  18
ENDBRANCH   8  16
ENDBRANCH   2  15
ENDBRANCH   1   5
BRANCH   1  19
ATOM     19  CA  UNL     1      -0.175  10.622  20.751  0.00  0.00    +0.000 C 
BRANCH  19  20
ATOM     20  N   UNL     1      -1.515  10.760  20.164  0.00  0.00    +0.000 N 
ATOM     21  C   UNL     1      -1.878  11.837  19.380  0.00  0.00    +0.000 C 
ATOM     22  O   UNL     1      -1.091  12.761  19.204  0.00  0.00    +0.000 OA
ATOM     23  H   UNL     1      -2.198  10.044  20.388  0.00  0.00    +0.000 HD
BRANCH  21  24
ATOM     24  C   UNL     1      -3.242  11.815  18.765  0.00  0.00    +0.000 A 
ATOM     25  C   UNL     1      -4.370  12.366  19.408  0.00  0.00    +0.000 A 
ATOM     26 CL   UNL     1      -4.307  13.234  20.906  0.00  0.00    +0.000 Cl
ATOM     27  C   UNL     1      -5.646  12.262  18.835  0.00  0.00    +0.000 A 
ATOM     28  C   UNL     1      -5.819  11.644  17.603  0.00  0.00    +0.000 A 
ATOM     29  C   UNL     1      -4.713  11.130  16.935  0.00  0.00    +0.000 A 
ATOM     30  C   UNL     1      -3.434  11.207  17.507  0.00  0.00    +0.000 A 
ATOM     31 CL   UNL     1      -2.170  10.465  16.582  0.00  0.00    +0.000 Cl
ENDBRANCH  21  24
ENDBRANCH  19  20
BRANCH  19  32
ATOM     32  C   UNL     1      -0.002  11.608  21.918  0.00  0.00    +0.000 C 
ATOM     33  O   UNL     1       0.669  12.630  21.832  0.00  0.00    +0.000 OA
BRANCH  32  34
ATOM     34  OXT UNL     1      -0.518  11.197  23.099  0.00  0.00    +0.000 OA
ATOM     35  HXT UNL     1      -1.250  11.788  23.398  0.00  0.00    +0.000 HD
ENDBRANCH  32  34
ENDBRANCH  19  32
ENDBRANCH   1  19
TORSDOF 9
ENDMDL
MODEL 2
REMARK VINA RESULT:      -7.9      3.203      4.491
REMARK  Name = 
REMARK  11 active torsions:
REMARK  status: ('A' for Active; 'I' for Inactive)
REMARK    1  A    between atoms: C_1  and  C_2
REMARK    2  A    between atoms: C_2  and  O_3
REMARK    3  A    between atoms: O_3  and  C_4
REMARK    4  A    between atoms: N_7  and  C_8
REMARK    5  A    between atoms: C_11  and  C_12
REMARK    6  A    between atoms: C_15  and  C_16
REMARK    7  A    between atoms: C_16  and  CA_17
REMARK    8  A    between atoms: CA_17  and  N_18
REMARK    9  A    between atoms: CA_17  and  C_29
REMARK   10  A    between atoms: C_19  and  C_21
REMARK   11  A    between atoms: C_29  and  OXT_31
REMARK                            x       y       z     vdW  Elec       q    Type
REMARK                         _______ _______ _______ _____ _____    ______ ____
ROOT
ATOM      1  C   UNL     1       0.598  10.589  19.996  0.00  0.00    +0.000 C 
ENDROOT
BRANCH   1   5
ATOM      2  C   UNL     1       2.553   7.068  18.421  0.00  0.00    +0.000 A 
ATOM      3  C   UNL     1       2.154   8.091  17.552  0.00  0.00    +0.000 A 
ATOM      4  C   UNL     1       1.468   9.213  18.038  0.00  0.00    +0.000 A 
ATOM      5  C   UNL     1       1.172   9.326  19.402  0.00  0.00    +0.000 A 
ATOM      6  C   UNL     1       1.532   8.275  20.258  0.00  0.00    +0.000 A 
ATOM      7  C   UNL     1       2.216   7.158  19.775  0.00  0.00    +0.000 A 
BRANCH   2  15
ATOM      8  C   UNL     1       2.776   4.685  17.883  0.00  0.00    +0.000 A 
ATOM      9  C   UNL     1       3.659   3.611  17.363  0.00  0.00    +0.000 A 
ATOM     10  N   UNL     1       4.867   3.746  16.925  0.00  0.00    +0.000 NA
ATOM     11  N   UNL     1       5.391   5.008  16.953  0.00  0.00    +0.000 N 
ATOM     12  C   UNL     1       6.731   5.159  16.419  0.00  0.00    +0.000 C 
ATOM     13  C   UNL     1       4.726   6.126  17.442  0.00  0.00    +0.000 A 
ATOM     14  O   UNL     1       5.234   7.248  17.467  0.00  0.00    +0.000 OA
ATOM     15  C   UNL     1       3.326   5.913  17.933  0.00  0.00    +0.000 A 
BRANCH   8  16
ATOM     16  O   UNL     1       1.469   4.444  18.289  0.00  0.00    +0.000 OA
BRANCH  16  18
ATOM     17  C   UNL     1       1.090   3.379  20.412  0.00  0.00    +0.000 C 
ATOM     18  C   UNL     1       1.208   3.186  18.912  0.00  0.00    +0.000 C 
ENDBRANCH  16  18
ENDBRANCH   8  16
ENDBRANCH   2  15
ENDBRANCH   1   5
BRANCH   1  19
ATOM     19  CA  UNL     1       0.332  11.773  19.056  0.00  0.00    +0.000 C 
BRANCH  19  20
ATOM     20  N   UNL     1       0.732  13.046  19.670  0.00  0.00    +0.000 N 
ATOM     21  C   UNL     1       1.461  14.003  18.994  0.00  0.00    +0.000 C 
ATOM     22  O   UNL     1       1.861  13.781  17.856  0.00  0.00    +0.000 OA
ATOM     23  H   UNL     1       0.484  13.191  20.643  0.00  0.00    +0.000 HD
BRANCH  21  24
ATOM     24  C   UNL     1       1.726  15.295  19.700  0.00  0.00    +0.000 A 
ATOM     25  C   UNL     1       2.715  15.425  20.697  0.00  0.00    +0.000 A 
ATOM     26 CL   UNL     1       3.818  14.164  21.140  0.00  0.00    +0.000 Cl
ATOM     27  C   UNL     1       2.886  16.632  21.389  0.00  0.00    +0.000 A 
ATOM     28  C   UNL     1       2.104  17.739  21.082  0.00  0.00    +0.000 A 
ATOM     29  C   UNL     1       1.150  17.643  20.074  0.00  0.00    +0.000 A 
ATOM     30  C   UNL     1       0.954  16.435  19.389  0.00  0.00    +0.000 A 
ATOM     31 CL   UNL     1      -0.313  16.457  18.207  0.00  0.00    +0.000 Cl
ENDBRANCH  21  24
ENDBRANCH  19  20
BRANCH  19  32
ATOM     32  C   UNL     1      -1.091  11.883  18.484  0.00  0.00    +0.000 C 
ATOM     33  O   UNL     1      -2.036  11.233  18.919  0.00  0.00    +0.000 OA
BRANCH  32  34
ATOM     34  OXT UNL     1      -1.205  12.634  17.365  0.00  0.00    +0.000 OA
ATOM     35  HXT UNL     1      -0.347  13.061  17.129  0.00  0.00    +0.000 HD
ENDBRANCH  32  34
ENDBRANCH  19  32
ENDBRANCH   1  19
TORSDOF 9
ENDMDL
MODEL 3
REMARK VINA RESULT:      -7.9      0.416      1.085
REMARK  Name = 
REMARK  11 active torsions:
REMARK  status: ('A' for Active; 'I' for Inactive)
REMARK    1  A    between atoms: C_1  and  C_2
REMARK    2  A    between atoms: C_2  and  O_3
REMARK    3  A    between atoms: O_3  and  C_4
REMARK    4  A    between atoms: N_7  and  C_8
REMARK    5  A    between atoms: C_11  and  C_12
REMARK    6  A    between atoms: C_15  and  C_16
REMARK    7  A    between atoms: C_16  and  CA_17
REMARK    8  A    between atoms: CA_17  and  N_18
REMARK    9  A    between atoms: CA_17  and  C_29
REMARK   10  A    between atoms: C_19  and  C_21
REMARK   11  A    between atoms: C_29  and  OXT_31
REMARK                            x       y       z     vdW  Elec       q    Type
REMARK                         _______ _______ _______ _____ _____    ______ ____
ROOT
ATOM      1  C   UNL     1       0.796  10.570  19.613  0.00  0.00    +0.000 C 
ENDROOT
BRANCH   1   5
ATOM      2  C   UNL     1       2.698   6.860  18.468  0.00  0.00    +0.000 A 
ATOM      3  C   UNL     1       2.270   7.044  19.788  0.00  0.00    +0.000 A 
ATOM      4  C   UNL     1       1.703   8.262  20.190  0.00  0.00    +0.000 A 
ATOM      5  C   UNL     1       1.558   9.312  19.275  0.00  0.00    +0.000 A 
ATOM      6  C   UNL     1       2.033   9.135  17.968  0.00  0.00    +0.000 A 
ATOM      7  C   UNL     1       2.596   7.922  17.567  0.00  0.00    +0.000 A 
BRANCH   2  15
ATOM      8  C   UNL     1       2.552   4.424  18.212  0.00  0.00    +0.000 A 
ATOM      9  C   UNL     1       3.204   3.192  17.703  0.00  0.00    +0.000 A 
ATOM     10  N   UNL     1       4.328   3.115  17.071  0.00  0.00    +0.000 NA
ATOM     11  N   UNL     1       4.991   4.290  16.856  0.00  0.00    +0.000 N 
ATOM     12  C   UNL     1       6.229   4.202  16.106  0.00  0.00    +0.000 C 
ATOM     13  C   UNL     1       4.550   5.535  17.293  0.00  0.00    +0.000 A 
ATOM     14  O   UNL     1       5.182   6.573  17.096  0.00  0.00    +0.000 OA
ATOM     15  C   UNL     1       3.239   5.565  18.018  0.00  0.00    +0.000 A 
BRANCH   8  16
ATOM     16  O   UNL     1       1.313   4.406  18.843  0.00  0.00    +0.000 OA
BRANCH  16  18
ATOM     17  C   UNL     1       1.326   3.216  20.932  0.00  0.00    +0.000 C 
ATOM     18  C   UNL     1       0.926   3.183  19.470  0.00  0.00    +0.000 C 
ENDBRANCH  16  18
ENDBRANCH   8  16
ENDBRANCH   2  15
ENDBRANCH   1   5
BRANCH   1  19
ATOM     19  CA  UNL     1      -0.277  10.492  20.708  0.00  0.00    +0.000 C 
BRANCH  19  20
ATOM     20  N   UNL     1      -1.621  10.711  20.157  0.00  0.00    +0.000 N 
ATOM     21  C   UNL     1      -1.943  11.815  19.392  0.00  0.00    +0.000 C 
ATOM     22  O   UNL     1      -1.110  12.696  19.205  0.00  0.00    +0.000 OA
ATOM     23  H   UNL     1      -2.337  10.032  20.391  0.00  0.00    +0.000 HD
BRANCH  21  24
ATOM     24  C   UNL     1      -3.321  11.876  18.812  0.00  0.00    +0.000 A 
ATOM     25  C   UNL     1      -4.420  12.396  19.525  0.00  0.00    +0.000 A 
ATOM     26 CL   UNL     1      -4.301  13.135  21.089  0.00  0.00    +0.000 Cl
ATOM     27  C   UNL     1      -5.711  12.370  18.978  0.00  0.00    +0.000 A 
ATOM     28  C   UNL     1      -5.928  11.860  17.704  0.00  0.00    +0.000 A 
ATOM     29  C   UNL     1      -4.850  11.379  16.969  0.00  0.00    +0.000 A 
ATOM     30  C   UNL     1      -3.557  11.379  17.513  0.00  0.00    +0.000 A 
ATOM     31 CL   UNL     1      -2.333  10.688  16.499  0.00  0.00    +0.000 Cl
ENDBRANCH  21  24
ENDBRANCH  19  20
BRANCH  19  32
ATOM     32  C   UNL     1      -0.058  11.383  21.942  0.00  0.00    +0.000 C 
ATOM     33  O   UNL     1      -0.510  11.110  23.049  0.00  0.00    +0.000 OA
BRANCH  32  34
ATOM     34  OXT UNL     1       0.541  12.570  21.695  0.00  0.00    +0.000 OA
ATOM     35  HXT UNL     1       1.525  12.492  21.732  0.00  0.00    +0.000 HD
ENDBRANCH  32  34
ENDBRANCH  19  32
ENDBRANCH   1  19
TORSDOF 9
ENDMDL
MODEL 4
REMARK VINA RESULT:      -7.9      1.902      2.549
REMARK  Name = 
REMARK  11 active torsions:
REMARK  status: ('A' for Active; 'I' for Inactive)
REMARK    1  A    between atoms: C_1  and  C_2
REMARK    2  A    between atoms: C_2  and  O_3
REMARK    3  A    between atoms: O_3  and  C_4
REMARK    4  A    between atoms: N_7  and  C_8
REMARK    5  A    between atoms: C_11  and  C_12
REMARK    6  A    between atoms: C_15  and  C_16
REMARK    7  A    between atoms: C_16  and  CA_17
REMARK    8  A    between atoms: CA_17  and  N_18
REMARK    9  A    between atoms: CA_17  and  C_29
REMARK   10  A    between atoms: C_19  and  C_21
REMARK   11  A    between atoms: C_29  and  OXT_31
REMARK                            x       y       z     vdW  Elec       q    Type
REMARK                         _______ _______ _______ _____ _____    ______ ____
ROOT
ATOM      1  C   UNL     1       0.820  10.499  20.342  0.00  0.00    +0.000 C 
ENDROOT
BRANCH   1   5
ATOM      2  C   UNL     1       2.574   7.021  18.466  0.00  0.00    +0.000 A 
ATOM      3  C   UNL     1       2.138   8.092  17.677  0.00  0.00    +0.000 A 
ATOM      4  C   UNL     1       1.515   9.203  18.264  0.00  0.00    +0.000 A 
ATOM      5  C   UNL     1       1.321   9.255  19.650  0.00  0.00    +0.000 A 
ATOM      6  C   UNL     1       1.717   8.157  20.427  0.00  0.00    +0.000 A 
ATOM      7  C   UNL     1       2.338   7.052  19.843  0.00  0.00    +0.000 A 
BRANCH   2  15
ATOM      8  C   UNL     1       2.688   4.672  17.766  0.00  0.00    +0.000 A 
ATOM      9  C   UNL     1       3.507   3.606  17.137  0.00  0.00    +0.000 A 
ATOM     10  N   UNL     1       4.699   3.729  16.653  0.00  0.00    +0.000 NA
ATOM     11  N   UNL     1       5.268   4.969  16.738  0.00  0.00    +0.000 N 
ATOM     12  C   UNL     1       6.588   5.111  16.152  0.00  0.00    +0.000 C 
ATOM     13  C   UNL     1       4.666   6.075  17.327  0.00  0.00    +0.000 A 
ATOM     14  O   UNL     1       5.215   7.174  17.401  0.00  0.00    +0.000 OA
ATOM     15  C   UNL     1       3.283   5.875  17.869  0.00  0.00    +0.000 A 
BRANCH   8  16
ATOM     16  O   UNL     1       1.392   4.448  18.217  0.00  0.00    +0.000 OA
BRANCH  16  18
ATOM     17  C   UNL     1       1.082   3.465  20.390  0.00  0.00    +0.000 C 
ATOM     18  C   UNL     1       1.149   3.215  18.896  0.00  0.00    +0.000 C 
ENDBRANCH  16  18
ENDBRANCH   8  16
ENDBRANCH   2  15
ENDBRANCH   1   5
BRANCH   1  19
ATOM     19  CA  UNL     1      -0.499  10.412  21.121  0.00  0.00    +0.000 C 
BRANCH  19  20
ATOM     20  N   UNL     1      -1.130  11.732  21.257  0.00  0.00    +0.000 N 
ATOM     21  C   UNL     1      -1.967  12.260  20.295  0.00  0.00    +0.000 C 
ATOM     22  O   UNL     1      -2.157  11.654  19.246  0.00  0.00    +0.000 OA
ATOM     23  H   UNL     1      -0.897  12.276  22.081  0.00  0.00    +0.000 HD
BRANCH  21  24
ATOM     24  C   UNL     1      -2.620  13.573  20.594  0.00  0.00    +0.000 A 
ATOM     25  C   UNL     1      -1.902  14.787  20.620  0.00  0.00    +0.000 A 
ATOM     26 CL   UNL     1      -0.228  14.935  20.194  0.00  0.00    +0.000 Cl
ATOM     27  C   UNL     1      -2.532  15.988  20.975  0.00  0.00    +0.000 A 
ATOM     28  C   UNL     1      -3.887  16.012  21.277  0.00  0.00    +0.000 A 
ATOM     29  C   UNL     1      -4.622  14.832  21.219  0.00  0.00    +0.000 A 
ATOM     30  C   UNL     1      -3.999  13.620  20.885  0.00  0.00    +0.000 A 
ATOM     31 CL   UNL     1      -5.034  12.230  20.918  0.00  0.00    +0.000 Cl
ENDBRANCH  21  24
ENDBRANCH  19  20
BRANCH  19  32
ATOM     32  C   UNL     1      -0.440   9.708  22.486  0.00  0.00    +0.000 C 
ATOM     33  O   UNL     1       0.173  10.165  23.445  0.00  0.00    +0.000 OA
BRANCH  32  34
ATOM     34  OXT UNL     1      -0.985   8.470  22.520  0.00  0.00    +0.000 OA
ATOM     35  HXT UNL     1      -1.586   8.362  23.295  0.00  0.00    +0.000 HD
ENDBRANCH  32  34
ENDBRANCH  19  32
ENDBRANCH   1  19
TORSDOF 9
ENDMDL
MODEL 5
REMARK VINA RESULT:      -7.9      2.139      2.582
REMARK  Name = 
REMARK  11 active torsions:
REMARK  status: ('A' for Active; 'I' for Inactive)
REMARK    1  A    between atoms: C_1  and  C_2
REMARK    2  A    between atoms: C_2  and  O_3
REMARK    3  A    between atoms: O_3  and  C_4
REMARK    4  A    between atoms: N_7  and  C_8
REMARK    5  A    between atoms: C_11  and  C_12
REMARK    6  A    between atoms: C_15  and  C_16
REMARK    7  A    between atoms: C_16  and  CA_17
REMARK    8  A    between atoms: CA_17  and  N_18
REMARK    9  A    between atoms: CA_17  and  C_29
REMARK   10  A    between atoms: C_19  and  C_21
REMARK   11  A    between atoms: C_29  and  OXT_31
REMARK                            x       y       z     vdW  Elec       q    Type
REMARK                         _______ _______ _______ _____ _____    ______ ____
ROOT
ATOM      1  C   UNL     1       0.926  10.427  20.354  0.00  0.00    +0.000 C 
ENDROOT
BRANCH   1   5
ATOM      2  C   UNL     1       2.534   6.846  18.541  0.00  0.00    +0.000 A 
ATOM      3  C   UNL     1       2.121   7.911  17.731  0.00  0.00    +0.000 A 
ATOM      4  C   UNL     1       1.545   9.056  18.299  0.00  0.00    +0.000 A 
ATOM      5  C   UNL     1       1.374   9.150  19.686  0.00  0.00    +0.000 A 
ATOM      6  C   UNL     1       1.747   8.060  20.485  0.00  0.00    +0.000 A 
ATOM      7  C   UNL     1       2.322   6.919  19.920  0.00  0.00    +0.000 A 
BRANCH   2  15
ATOM      8  C   UNL     1       2.546   4.488  17.863  0.00  0.00    +0.000 A 
ATOM      9  C   UNL     1       3.322   3.380  17.254  0.00  0.00    +0.000 A 
ATOM     10  N   UNL     1       4.524   3.442  16.783  0.00  0.00    +0.000 NA
ATOM     11  N   UNL     1       5.150   4.654  16.864  0.00  0.00    +0.000 N 
ATOM     12  C   UNL     1       6.482   4.728  16.294  0.00  0.00    +0.000 C 
ATOM     13  C   UNL     1       4.593   5.792  17.437  0.00  0.00    +0.000 A 
ATOM     14  O   UNL     1       5.193   6.866  17.507  0.00  0.00    +0.000 OA
ATOM     15  C   UNL     1       3.196   5.663  17.962  0.00  0.00    +0.000 A 
BRANCH   8  16
ATOM     16  O   UNL     1       1.236   4.330  18.300  0.00  0.00    +0.000 OA
BRANCH  16  18
ATOM     17  C   UNL     1       1.330   3.434  20.529  0.00  0.00    +0.000 C 
ATOM     18  C   UNL     1       0.953   3.171  19.085  0.00  0.00    +0.000 C 
ENDBRANCH  16  18
ENDBRANCH   8  16
ENDBRANCH   2  15
ENDBRANCH   1   5
BRANCH   1  19
ATOM     19  CA  UNL     1      -0.357  10.391  21.194  0.00  0.00    +0.000 C 
BRANCH  19  20
ATOM     20  N   UNL     1      -0.884  11.743  21.426  0.00  0.00    +0.000 N 
ATOM     21  C   UNL     1      -1.811  12.335  20.592  0.00  0.00    +0.000 C 
ATOM     22  O   UNL     1      -2.178  11.758  19.574  0.00  0.00    +0.000 OA
ATOM     23  H   UNL     1      -0.510  12.259  22.215  0.00  0.00    +0.000 HD
BRANCH  21  24
ATOM     24  C   UNL     1      -2.338  13.678  20.988  0.00  0.00    +0.000 A 
ATOM     25  C   UNL     1      -3.411  13.834  21.890  0.00  0.00    +0.000 A 
ATOM     26 CL   UNL     1      -4.165  12.525  22.739  0.00  0.00    +0.000 Cl
ATOM     27  C   UNL     1      -3.927  15.105  22.181  0.00  0.00    +0.000 A 
ATOM     28  C   UNL     1      -3.367  16.242  21.613  0.00  0.00    +0.000 A 
ATOM     29  C   UNL     1      -2.282  16.112  20.752  0.00  0.00    +0.000 A 
ATOM     30  C   UNL     1      -1.770  14.845  20.434  0.00  0.00    +0.000 A 
ATOM     31 CL   UNL     1      -0.461  14.844  19.300  0.00  0.00    +0.000 Cl
ENDBRANCH  21  24
ENDBRANCH  19  20
BRANCH  19  32
ATOM     32  C   UNL     1      -0.283   9.615  22.519  0.00  0.00    +0.000 C 
ATOM     33  O   UNL     1       0.457   9.941  23.441  0.00  0.00    +0.000 OA
BRANCH  32  34
ATOM     34  OXT UNL     1      -0.979   8.455  22.546  0.00  0.00    +0.000 OA
ATOM     35  HXT UNL     1      -1.318   8.217  21.650  0.00  0.00    +0.000 HD
ENDBRANCH  32  34
ENDBRANCH  19  32
ENDBRANCH   1  19
TORSDOF 9
ENDMDL
MODEL 6
REMARK VINA RESULT:      -7.8      0.603      1.916
REMARK  Name = 
REMARK  11 active torsions:
REMARK  status: ('A' for Active; 'I' for Inactive)
REMARK    1  A    between atoms: C_1  and  C_2
REMARK    2  A    between atoms: C_2  and  O_3
REMARK    3  A    between atoms: O_3  and  C_4
REMARK    4  A    between atoms: N_7  and  C_8
REMARK    5  A    between atoms: C_11  and  C_12
REMARK    6  A    between atoms: C_15  and  C_16
REMARK    7  A    between atoms: C_16  and  CA_17
REMARK    8  A    between atoms: CA_17  and  N_18
REMARK    9  A    between atoms: CA_17  and  C_29
REMARK   10  A    between atoms: C_19  and  C_21
REMARK   11  A    between atoms: C_29  and  OXT_31
REMARK                            x       y       z     vdW  Elec       q    Type
REMARK                         _______ _______ _______ _____ _____    ______ ____
ROOT
ATOM      1  C   UNL     1       0.754  10.302  19.830  0.00  0.00    +0.000 C 
ENDROOT
BRANCH   1   5
ATOM      2  C   UNL     1       2.922   6.852  18.383  0.00  0.00    +0.000 A 
ATOM      3  C   UNL     1       2.497   6.898  19.716  0.00  0.00    +0.000 A 
ATOM      4  C   UNL     1       1.843   8.033  20.217  0.00  0.00    +0.000 A 
ATOM      5  C   UNL     1       1.606   9.137  19.389  0.00  0.00    +0.000 A 
ATOM      6  C   UNL     1       2.077   9.101  18.069  0.00  0.00    +0.000 A 
ATOM      7  C   UNL     1       2.728   7.971  17.569  0.00  0.00    +0.000 A 
BRANCH   2  15
ATOM      8  C   UNL     1       2.850   4.510  17.657  0.00  0.00    +0.000 A 
ATOM      9  C   UNL     1       3.605   3.368  17.081  0.00  0.00    +0.000 A 
ATOM     10  N   UNL     1       4.840   3.369  16.701  0.00  0.00    +0.000 NA
ATOM     11  N   UNL     1       5.526   4.542  16.852  0.00  0.00    +0.000 N 
ATOM     12  C   UNL     1       6.898   4.549  16.382  0.00  0.00    +0.000 C 
ATOM     13  C   UNL     1       4.993   5.700  17.408  0.00  0.00    +0.000 A 
ATOM     14  O   UNL     1       5.646   6.735  17.545  0.00  0.00    +0.000 OA
ATOM     15  C   UNL     1       3.556   5.643  17.828  0.00  0.00    +0.000 A 
BRANCH   8  16
ATOM     16  O   UNL     1       1.505   4.420  17.994  0.00  0.00    +0.000 OA
BRANCH  16  18
ATOM     17  C   UNL     1       1.038   3.521  20.175  0.00  0.00    +0.000 C 
ATOM     18  C   UNL     1       1.091   3.241  18.686  0.00  0.00    +0.000 C 
ENDBRANCH  16  18
ENDBRANCH   8  16
ENDBRANCH   2  15
ENDBRANCH   1   5
BRANCH   1  19
ATOM     19  CA  UNL     1      -0.457  10.011  20.727  0.00  0.00    +0.000 C 
BRANCH  19  20
ATOM     20  N   UNL     1      -1.719  10.322  20.042  0.00  0.00    +0.000 N 
ATOM     21  C   UNL     1      -1.938  11.520  19.393  0.00  0.00    +0.000 C 
ATOM     22  O   UNL     1      -1.088  12.403  19.429  0.00  0.00    +0.000 OA
ATOM     23  H   UNL     1      -2.459   9.631  20.093  0.00  0.00    +0.000 HD
BRANCH  21  24
ATOM     24  C   UNL     1      -3.230  11.679  18.654  0.00  0.00    +0.000 A 
ATOM     25  C   UNL     1      -3.398  11.248  17.322  0.00  0.00    +0.000 A 
ATOM     26 CL   UNL     1      -2.197  10.380  16.423  0.00  0.00    +0.000 Cl
ATOM     27  C   UNL     1      -4.599  11.479  16.637  0.00  0.00    +0.000 A 
ATOM     28  C   UNL     1      -5.663  12.110  17.270  0.00  0.00    +0.000 A 
ATOM     29  C   UNL     1      -5.531  12.507  18.596  0.00  0.00    +0.000 A 
ATOM     30  C   UNL     1      -4.327  12.301  19.287  0.00  0.00    +0.000 A 
ATOM     31 CL   UNL     1      -4.297  12.909  20.909  0.00  0.00    +0.000 Cl
ENDBRANCH  21  24
ENDBRANCH  19  20
BRANCH  19  32
ATOM     32  C   UNL     1      -0.440  10.652  22.125  0.00  0.00    +0.000 C 
ATOM     33  O   UNL     1       0.324  10.291  23.014  0.00  0.00    +0.000 OA
BRANCH  32  34
ATOM     34  OXT UNL     1      -1.429  11.544  22.361  0.00  0.00    +0.000 OA
ATOM     35  HXT UNL     1      -1.441  11.827  23.306  0.00  0.00    +0.000 HD
ENDBRANCH  32  34
ENDBRANCH  19  32
ENDBRANCH   1  19
TORSDOF 9
ENDMDL
MODEL 7
REMARK VINA RESULT:      -7.8      3.178      5.155
REMARK  Name = 
REMARK  11 active torsions:
REMARK  status: ('A' for Active; 'I' for Inactive)
REMARK    1  A    between atoms: C_1  and  C_2
REMARK    2  A    between atoms: C_2  and  O_3
REMARK    3  A    between atoms: O_3  and  C_4
REMARK    4  A    between atoms: N_7  and  C_8
REMARK    5  A    between atoms: C_11  and  C_12
REMARK    6  A    between atoms: C_15  and  C_16
REMARK    7  A    between atoms: C_16  and  CA_17
REMARK    8  A    between atoms: CA_17  and  N_18
REMARK    9  A    between atoms: CA_17  and  C_29
REMARK   10  A    between atoms: C_19  and  C_21
REMARK   11  A    between atoms: C_29  and  OXT_31
REMARK                            x       y       z     vdW  Elec       q    Type
REMARK                         _______ _______ _______ _____ _____    ______ ____
ROOT
ATOM      1  C   UNL     1       0.279  10.431  19.933  0.00  0.00    +0.000 C 
ENDROOT
BRANCH   1   5
ATOM      2  C   UNL     1       2.558   7.017  18.575  0.00  0.00    +0.000 A 
ATOM      3  C   UNL     1       2.266   7.162  19.936  0.00  0.00    +0.000 A 
ATOM      4  C   UNL     1       1.578   8.292  20.401  0.00  0.00    +0.000 A 
ATOM      5  C   UNL     1       1.173   9.291  19.509  0.00  0.00    +0.000 A 
ATOM      6  C   UNL     1       1.511   9.161  18.154  0.00  0.00    +0.000 A 
ATOM      7  C   UNL     1       2.196   8.036  17.690  0.00  0.00    +0.000 A 
BRANCH   2  15
ATOM      8  C   UNL     1       4.508   5.849  17.651  0.00  0.00    +0.000 A 
ATOM      9  C   UNL     1       5.065   4.560  17.170  0.00  0.00    +0.000 A 
ATOM     10  N   UNL     1       4.465   3.416  17.148  0.00  0.00    +0.000 NA
ATOM     11  N   UNL     1       3.178   3.392  17.606  0.00  0.00    +0.000 N 
ATOM     12  C   UNL     1       2.525   2.097  17.621  0.00  0.00    +0.000 C 
ATOM     13  C   UNL     1       2.481   4.508  18.058  0.00  0.00    +0.000 A 
ATOM     14  O   UNL     1       1.315   4.453  18.450  0.00  0.00    +0.000 OA
ATOM     15  C   UNL     1       3.228   5.807  18.065  0.00  0.00    +0.000 A 
BRANCH   8  16
ATOM     16  O   UNL     1       5.254   7.021  17.676  0.00  0.00    +0.000 OA
BRANCH  16  18
ATOM     17  C   UNL     1       7.644   7.213  17.866  0.00  0.00    +0.000 C 
ATOM     18  C   UNL     1       6.469   7.029  16.926  0.00  0.00    +0.000 C 
ENDBRANCH  16  18
ENDBRANCH   8  16
ENDBRANCH   2  15
ENDBRANCH   1   5
BRANCH   1  19
ATOM     19  CA  UNL     1       0.165  11.645  19.002  0.00  0.00    +0.000 C 
BRANCH  19  20
ATOM     20  N   UNL     1       0.548  12.886  19.689  0.00  0.00    +0.000 N 
ATOM     21  C   UNL     1       1.387  13.824  19.120  0.00  0.00    +0.000 C 
ATOM     22  O   UNL     1       1.898  13.608  18.027  0.00  0.00    +0.000 OA
ATOM     23  H   UNL     1       0.203  13.021  20.632  0.00  0.00    +0.000 HD
BRANCH  21  24
ATOM     24  C   UNL     1       1.627  15.088  19.884  0.00  0.00    +0.000 A 
ATOM     25  C   UNL     1       2.601  15.186  20.898  0.00  0.00    +0.000 A 
ATOM     26 CL   UNL     1       3.713  13.919  21.303  0.00  0.00    +0.000 Cl
ATOM     27  C   UNL     1       2.749  16.364  21.643  0.00  0.00    +0.000 A 
ATOM     28  C   UNL     1       1.959  17.475  21.372  0.00  0.00    +0.000 A 
ATOM     29  C   UNL     1       1.019  17.411  20.349  0.00  0.00    +0.000 A 
ATOM     30  C   UNL     1       0.846  16.231  19.610  0.00  0.00    +0.000 A 
ATOM     31 CL   UNL     1      -0.405  16.289  18.413  0.00  0.00    +0.000 Cl
ENDBRANCH  21  24
ENDBRANCH  19  20
BRANCH  19  32
ATOM     32  C   UNL     1      -1.183  11.830  18.285  0.00  0.00    +0.000 C 
ATOM     33  O   UNL     1      -2.172  11.154  18.542  0.00  0.00    +0.000 OA
BRANCH  32  34
ATOM     34  OXT UNL     1      -1.165  12.689  17.240  0.00  0.00    +0.000 OA
ATOM     35  HXT UNL     1      -0.312  13.184  17.195  0.00  0.00    +0.000 HD
ENDBRANCH  32  34
ENDBRANCH  19  32
ENDBRANCH   1  19
TORSDOF 9
ENDMDL
MODEL 8
REMARK VINA RESULT:      -7.7      3.213      5.143
REMARK  Name = 
REMARK  11 active torsions:
REMARK  status: ('A' for Active; 'I' for Inactive)
REMARK    1  A    between atoms: C_1  and  C_2
REMARK    2  A    between atoms: C_2  and  O_3
REMARK    3  A    between atoms: O_3  and  C_4
REMARK    4  A    between atoms: N_7  and  C_8
REMARK    5  A    between atoms: C_11  and  C_12
REMARK    6  A    between atoms: C_15  and  C_16
REMARK    7  A    between atoms: C_16  and  CA_17
REMARK    8  A    between atoms: CA_17  and  N_18
REMARK    9  A    between atoms: CA_17  and  C_29
REMARK   10  A    between atoms: C_19  and  C_21
REMARK   11  A    between atoms: C_29  and  OXT_31
REMARK                            x       y       z     vdW  Elec       q    Type
REMARK                         _______ _______ _______ _____ _____    ______ ____
ROOT
ATOM      1  C   UNL     1       0.286  10.464  19.939  0.00  0.00    +0.000 C 
ENDROOT
BRANCH   1   5
ATOM      2  C   UNL     1       2.559   7.045  18.585  0.00  0.00    +0.000 A 
ATOM      3  C   UNL     1       2.285   7.202  19.948  0.00  0.00    +0.000 A 
ATOM      4  C   UNL     1       1.599   8.334  20.411  0.00  0.00    +0.000 A 
ATOM      5  C   UNL     1       1.179   9.323  19.514  0.00  0.00    +0.000 A 
ATOM      6  C   UNL     1       1.499   9.181  18.156  0.00  0.00    +0.000 A 
ATOM      7  C   UNL     1       2.182   8.054  17.695  0.00  0.00    +0.000 A 
BRANCH   2  15
ATOM      8  C   UNL     1       4.507   5.869  17.666  0.00  0.00    +0.000 A 
ATOM      9  C   UNL     1       5.062   4.578  17.188  0.00  0.00    +0.000 A 
ATOM     10  N   UNL     1       4.458   3.436  17.167  0.00  0.00    +0.000 NA
ATOM     11  N   UNL     1       3.170   3.417  17.624  0.00  0.00    +0.000 N 
ATOM     12  C   UNL     1       2.514   2.123  17.640  0.00  0.00    +0.000 C 
ATOM     13  C   UNL     1       2.476   4.535  18.073  0.00  0.00    +0.000 A 
ATOM     14  O   UNL     1       1.309   4.484  18.462  0.00  0.00    +0.000 OA
ATOM     15  C   UNL     1       3.226   5.832  18.078  0.00  0.00    +0.000 A 
BRANCH   8  16
ATOM     16  O   UNL     1       5.257   7.040  17.690  0.00  0.00    +0.000 OA
BRANCH  16  18
ATOM     17  C   UNL     1       7.637   7.181  18.007  0.00  0.00    +0.000 C 
ATOM     18  C   UNL     1       6.510   7.017  17.006  0.00  0.00    +0.000 C 
ENDBRANCH  16  18
ENDBRANCH   8  16
ENDBRANCH   2  15
ENDBRANCH   1   5
BRANCH   1  19
ATOM     19  CA  UNL     1       0.131  11.654  18.982  0.00  0.00    +0.000 C 
BRANCH  19  20
ATOM     20  N   UNL     1       0.523  12.915  19.627  0.00  0.00    +0.000 N 
ATOM     21  C   UNL     1       1.364  13.829  19.025  0.00  0.00    +0.000 C 
ATOM     22  O   UNL     1       1.870  13.575  17.937  0.00  0.00    +0.000 OA
ATOM     23  H   UNL     1       0.182  13.083  20.567  0.00  0.00    +0.000 HD
BRANCH  21  24
ATOM     24  C   UNL     1       1.614  15.117  19.745  0.00  0.00    +0.000 A 
ATOM     25  C   UNL     1       0.911  16.301  19.443  0.00  0.00    +0.000 A 
ATOM     26 CL   UNL     1      -0.397  16.393  18.309  0.00  0.00    +0.000 Cl
ATOM     27  C   UNL     1       1.222  17.507  20.088  0.00  0.00    +0.000 A 
ATOM     28  C   UNL     1       2.209  17.551  21.064  0.00  0.00    +0.000 A 
ATOM     29  C   UNL     1       2.887  16.385  21.405  0.00  0.00    +0.000 A 
ATOM     30  C   UNL     1       2.600  15.176  20.752  0.00  0.00    +0.000 A 
ATOM     31 CL   UNL     1       3.572  13.828  21.242  0.00  0.00    +0.000 Cl
ENDBRANCH  21  24
ENDBRANCH  19  20
BRANCH  19  32
ATOM     32  C   UNL     1      -1.241  11.809  18.304  0.00  0.00    +0.000 C 
ATOM     33  O   UNL     1      -2.224  11.154  18.633  0.00  0.00    +0.000 OA
BRANCH  32  34
ATOM     34  OXT UNL     1      -1.257  12.610  17.214  0.00  0.00    +0.000 OA
ATOM     35  HXT UNL     1      -1.676  12.160  16.442  0.00  0.00    +0.000 HD
ENDBRANCH  32  34
ENDBRANCH  19  32
ENDBRANCH   1  19
TORSDOF 9
ENDMDL
MODEL 9
REMARK VINA RESULT:      -7.7      2.900      3.889
REMARK  Name = 
REMARK  11 active torsions:
REMARK  status: ('A' for Active; 'I' for Inactive)
REMARK    1  A    between atoms: C_1  and  C_2
REMARK    2  A    between atoms: C_2  and  O_3
REMARK    3  A    between atoms: O_3  and  C_4
REMARK    4  A    between atoms: N_7  and  C_8
REMARK    5  A    between atoms: C_11  and  C_12
REMARK    6  A    between atoms: C_15  and  C_16
REMARK    7  A    between atoms: C_16  and  CA_17
REMARK    8  A    between atoms: CA_17  and  N_18
REMARK    9  A    between atoms: CA_17  and  C_29
REMARK   10  A    between atoms: C_19  and  C_21
REMARK   11  A    between atoms: C_29  and  OXT_31
REMARK                            x       y       z     vdW  Elec       q    Type
REMARK                         _______ _______ _______ _____ _____    ______ ____
ROOT
ATOM      1  C   UNL     1       0.649  10.291  20.768  0.00  0.00    +0.000 C 
ENDROOT
BRANCH   1   5
ATOM      2  C   UNL     1       2.497   7.028  18.615  0.00  0.00    +0.000 A 
ATOM      3  C   UNL     1       2.040   8.152  17.917  0.00  0.00    +0.000 A 
ATOM      4  C   UNL     1       1.386   9.194  18.592  0.00  0.00    +0.000 A 
ATOM      5  C   UNL     1       1.183   9.123  19.976  0.00  0.00    +0.000 A 
ATOM      6  C   UNL     1       1.602   7.973  20.659  0.00  0.00    +0.000 A 
ATOM      7  C   UNL     1       2.253   6.936  19.988  0.00  0.00    +0.000 A 
BRANCH   2  15
ATOM      8  C   UNL     1       2.681   4.744  17.739  0.00  0.00    +0.000 A 
ATOM      9  C   UNL     1       3.528   3.757  17.025  0.00  0.00    +0.000 A 
ATOM     10  N   UNL     1       4.710   3.955  16.542  0.00  0.00    +0.000 NA
ATOM     11  N   UNL     1       5.239   5.203  16.716  0.00  0.00    +0.000 N 
ATOM     12  C   UNL     1       6.547   5.433  16.132  0.00  0.00    +0.000 C 
ATOM     13  C   UNL     1       4.607   6.241  17.392  0.00  0.00    +0.000 A 
ATOM     14  O   UNL     1       5.121   7.350  17.544  0.00  0.00    +0.000 OA
ATOM     15  C   UNL     1       3.237   5.955  17.927  0.00  0.00    +0.000 A 
BRANCH   8  16
ATOM     16  O   UNL     1       1.397   4.444  18.182  0.00  0.00    +0.000 OA
BRANCH  16  18
ATOM     17  C   UNL     1       1.042   3.423  20.330  0.00  0.00    +0.000 C 
ATOM     18  C   UNL     1       1.220   3.190  18.842  0.00  0.00    +0.000 C 
ENDBRANCH  16  18
ENDBRANCH   8  16
ENDBRANCH   2  15
ENDBRANCH   1   5
BRANCH   1  19
ATOM     19  CA  UNL     1      -0.150  11.367  20.019  0.00  0.00    +0.000 C 
BRANCH  19  20
ATOM     20  N   UNL     1       0.669  12.559  19.760  0.00  0.00    +0.000 N 
ATOM     21  C   UNL     1       0.394  13.444  18.737  0.00  0.00    +0.000 C 
ATOM     22  O   UNL     1      -0.525  13.215  17.958  0.00  0.00    +0.000 OA
ATOM     23  H   UNL     1       1.486  12.698  20.345  0.00  0.00    +0.000 HD
BRANCH  21  24
ATOM     24  C   UNL     1       1.247  14.668  18.635  0.00  0.00    +0.000 A 
ATOM     25  C   UNL     1       0.740  15.965  18.857  0.00  0.00    +0.000 A 
ATOM     26 CL   UNL     1      -0.876  16.298  19.390  0.00  0.00    +0.000 Cl
ATOM     27  C   UNL     1       1.551  17.095  18.681  0.00  0.00    +0.000 A 
ATOM     28  C   UNL     1       2.884  16.958  18.316  0.00  0.00    +0.000 A 
ATOM     29  C   UNL     1       3.414  15.686  18.131  0.00  0.00    +0.000 A 
ATOM     30  C   UNL     1       2.608  14.547  18.283  0.00  0.00    +0.000 A 
ATOM     31 CL   UNL     1       3.397  13.039  17.956  0.00  0.00    +0.000 Cl
ENDBRANCH  21  24
ENDBRANCH  19  20
BRANCH  19  32
ATOM     32  C   UNL     1      -1.496  11.772  20.641  0.00  0.00    +0.000 C 
ATOM     33  O   UNL     1      -1.676  11.846  21.851  0.00  0.00    +0.000 OA
BRANCH  32  34
ATOM     34  OXT UNL     1      -2.520  11.896  19.765  0.00  0.00    +0.000 OA
ATOM     35  HXT UNL     1      -3.296  11.351  20.038  0.00  0.00    +0.000 HD
ENDBRANCH  32  34
ENDBRANCH  19  32
ENDBRANCH   1  19
TORSDOF 9
ENDMDL
