MODEL 1
REMARK VINA RESULT:      -6.8      0.000      0.000
REMARK  Name = 
REMARK  12 active torsions:
REMARK  status: ('A' for Active; 'I' for Inactive)
REMARK    1  A    between atoms: C_1  and  C_2
REMARK    2  A    between atoms: C_2  and  C_4
REMARK    3  A    between atoms: C_5  and  O_6
REMARK    4  A    between atoms: C_8  and  O_9
REMARK    5  A    between atoms: C_8  and  C_10
REMARK    6  A    between atoms: C_10  and  O_12
REMARK    7  A    between atoms: C_14  and  C_15
REMARK    8  A    between atoms: C_15  and  O_16
REMARK    9  A    between atoms: C_15  and  C_17
REMARK   10  A    between atoms: C_17  and  O_18
REMARK   11  A    between atoms: C_17  and  C_19
REMARK   12  A    between atoms: C_19  and  O_20
REMARK                            x       y       z     vdW  Elec       q    Type
REMARK                         _______ _______ _______ _____ _____    ______ ____
ROOT
ATOM      1  C   UNL     1       3.238   5.582  17.942  0.00  0.00    +0.000 C 
ATOM      2  C   UNL     1       2.184   4.483  17.854  0.00  0.00    +0.000 C 
ATOM      3  C   UNL     1       1.999   3.741  19.169  0.00  0.00    +0.000 C 
ATOM      4  C   UNL     1       3.314   3.324  19.807  0.00  0.00    +0.000 C 
ATOM      5  O   UNL     1       4.283   4.361  19.866  0.00  0.00    +0.000 OA
ATOM      6  C   UNL     1       4.521   5.124  18.673  0.00  0.00    +0.000 C 
ENDROOT
BRANCH   1   8
ATOM      7  C   UNL     1       2.572   8.090  17.747  0.00  0.00    +0.000 C 
ATOM      8  C   UNL     1       2.647   6.838  18.591  0.00  0.00    +0.000 C 
ATOM      9  O   UNL     1       2.245   6.857  19.754  0.00  0.00    +0.000 OA
ENDBRANCH   1   8
BRANCH   2  10
ATOM     10  O   UNL     1       2.467   3.634  16.748  0.00  0.00    +0.000 OA
ATOM     11  H   UNL     1       3.215   3.958  16.203  0.00  0.00    +0.000 HD
ENDBRANCH   2  10
BRANCH   4  12
ATOM     12  O   UNL     1       3.053   2.966  21.175  0.00  0.00    +0.000 OA
ATOM     13  H   UNL     1       3.191   3.754  21.733  0.00  0.00    +0.000 HD
ENDBRANCH   4  12
BRANCH   4  14
ATOM     14  C   UNL     1       3.915   2.042  19.168  0.00  0.00    +0.000 C 
ATOM     15  O   UNL     1       3.455   1.450  18.209  0.00  0.00    +0.000 OA
BRANCH  14  16
ATOM     16  O   UNL     1       5.044   1.649  19.820  0.00  0.00    +0.000 OA
ATOM     17  H   UNL     1       5.257   2.291  20.535  0.00  0.00    +0.000 HD
ENDBRANCH  14  16
ENDBRANCH   4  14
BRANCH   6  18
ATOM     18  C   UNL     1       5.554   4.420  17.753  0.00  0.00    +0.000 C 
BRANCH  18  19
ATOM     19  O   UNL     1       5.245   4.645  16.369  0.00  0.00    +0.000 OA
ATOM     20  H   UNL     1       4.292   4.427  16.253  0.00  0.00    +0.000 HD
ENDBRANCH  18  19
BRANCH  18  21
ATOM     21  C   UNL     1       7.016   4.860  18.036  0.00  0.00    +0.000 C 
BRANCH  21  22
ATOM     22  O   UNL     1       7.882   4.109  17.168  0.00  0.00    +0.000 OA
ATOM     23  H   UNL     1       7.294   3.565  16.607  0.00  0.00    +0.000 HD
ENDBRANCH  21  22
BRANCH  21  24
ATOM     24  C   UNL     1       7.283   6.356  17.802  0.00  0.00    +0.000 C 
BRANCH  24  25
ATOM     25  O   UNL     1       7.538   6.606  16.415  0.00  0.00    +0.000 OA
ATOM     26  H   UNL     1       6.710   6.964  16.043  0.00  0.00    +0.000 HD
ENDBRANCH  24  25
ENDBRANCH  21  24
ENDBRANCH  18  21
ENDBRANCH   6  18
TORSDOF 11
ENDMDL
MODEL 2
REMARK VINA RESULT:      -6.7      0.806      1.020
REMARK  Name = 
REMARK  12 active torsions:
REMARK  status: ('A' for Active; 'I' for Inactive)
REMARK    1  A    between atoms: C_1  and  C_2
REMARK    2  A    between atoms: C_2  and  C_4
REMARK    3  A    between atoms: C_5  and  O_6
REMARK    4  A    between atoms: C_8  and  O_9
REMARK    5  A    between atoms: C_8  and  C_10
REMARK    6  A    between atoms: C_10  and  O_12
REMARK    7  A    between atoms: C_14  and  C_15
REMARK    8  A    between atoms: C_15  and  O_16
REMARK    9  A    between atoms: C_15  and  C_17
REMARK   10  A    between atoms: C_17  and  O_18
REMARK   11  A    between atoms: C_17  and  C_19
REMARK   12  A    between atoms: C_19  and  O_20
REMARK                            x       y       z     vdW  Elec       q    Type
REMARK                         _______ _______ _______ _____ _____    ______ ____
ROOT
ATOM      1  C   UNL     1       2.908   5.742  18.270  0.00  0.00    +0.000 C 
ATOM      2  C   UNL     1       1.916   4.598  18.099  0.00  0.00    +0.000 C 
ATOM      3  C   UNL     1       1.749   3.771  19.365  0.00  0.00    +0.000 C 
ATOM      4  C   UNL     1       3.074   3.387  20.003  0.00  0.00    +0.000 C 
ATOM      5  O   UNL     1       3.986   4.467  20.140  0.00  0.00    +0.000 OA
ATOM      6  C   UNL     1       4.202   5.310  18.997  0.00  0.00    +0.000 C 
ENDROOT
BRANCH   1   8
ATOM      7  C   UNL     1       2.056   8.200  18.186  0.00  0.00    +0.000 C 
ATOM      8  C   UNL     1       2.242   6.926  18.978  0.00  0.00    +0.000 C 
ATOM      9  O   UNL     1       1.867   6.873  20.150  0.00  0.00    +0.000 OA
ENDBRANCH   1   8
BRANCH   2  10
ATOM     10  O   UNL     1       2.261   3.830  16.952  0.00  0.00    +0.000 OA
ATOM     11  H   UNL     1       2.904   3.117  17.153  0.00  0.00    +0.000 HD
ENDBRANCH   2  10
BRANCH   4  12
ATOM     12  O   UNL     1       2.811   2.937  21.343  0.00  0.00    +0.000 OA
ATOM     13  H   UNL     1       3.657   2.685  21.757  0.00  0.00    +0.000 HD
ENDBRANCH   4  12
BRANCH   4  14
ATOM     14  C   UNL     1       3.752   2.177  19.303  0.00  0.00    +0.000 C 
ATOM     15  O   UNL     1       3.303   1.575  18.345  0.00  0.00    +0.000 OA
BRANCH  14  16
ATOM     16  O   UNL     1       4.935   1.862  19.898  0.00  0.00    +0.000 OA
ATOM     17  H   UNL     1       5.656   1.860  19.227  0.00  0.00    +0.000 HD
ENDBRANCH  14  16
ENDBRANCH   4  14
BRANCH   6  18
ATOM     18  C   UNL     1       5.285   4.715  18.058  0.00  0.00    +0.000 C 
BRANCH  18  19
ATOM     19  O   UNL     1       4.953   4.947  16.681  0.00  0.00    +0.000 OA
ATOM     20  H   UNL     1       4.712   4.073  16.296  0.00  0.00    +0.000 HD
ENDBRANCH  18  19
BRANCH  18  21
ATOM     21  C   UNL     1       6.708   5.266  18.347  0.00  0.00    +0.000 C 
BRANCH  21  22
ATOM     22  O   UNL     1       6.899   5.279  19.772  0.00  0.00    +0.000 OA
ATOM     23  H   UNL     1       7.684   4.722  19.943  0.00  0.00    +0.000 HD
ENDBRANCH  21  22
BRANCH  21  24
ATOM     24  C   UNL     1       7.844   4.444  17.719  0.00  0.00    +0.000 C 
BRANCH  24  25
ATOM     25  O   UNL     1       7.802   4.545  16.291  0.00  0.00    +0.000 OA
ATOM     26  H   UNL     1       8.441   5.240  16.045  0.00  0.00    +0.000 HD
ENDBRANCH  24  25
ENDBRANCH  21  24
ENDBRANCH  18  21
ENDBRANCH   6  18
TORSDOF 11
ENDMDL
MODEL 3
REMARK VINA RESULT:      -6.4      1.570      4.564
REMARK  Name = 
REMARK  12 active torsions:
REMARK  status: ('A' for Active; 'I' for Inactive)
REMARK    1  A    between atoms: C_1  and  C_2
REMARK    2  A    between atoms: C_2  and  C_4
REMARK    3  A    between atoms: C_5  and  O_6
REMARK    4  A    between atoms: C_8  and  O_9
REMARK    5  A    between atoms: C_8  and  C_10
REMARK    6  A    between atoms: C_10  and  O_12
REMARK    7  A    between atoms: C_14  and  C_15
REMARK    8  A    between atoms: C_15  and  O_16
REMARK    9  A    between atoms: C_15  and  C_17
REMARK   10  A    between atoms: C_17  and  O_18
REMARK   11  A    between atoms: C_17  and  C_19
REMARK   12  A    between atoms: C_19  and  O_20
REMARK                            x       y       z     vdW  Elec       q    Type
REMARK                         _______ _______ _______ _____ _____    ______ ____
ROOT
ATOM      1  C   UNL     1       4.214   5.320  19.034  0.00  0.00    +0.000 C 
ATOM      2  C   UNL     1       5.588   5.978  18.980  0.00  0.00    +0.000 C 
ATOM      3  C   UNL     1       5.949   6.471  17.587  0.00  0.00    +0.000 C 
ATOM      4  C   UNL     1       5.684   5.438  16.503  0.00  0.00    +0.000 C 
ATOM      5  O   UNL     1       4.403   4.830  16.583  0.00  0.00    +0.000 OA
ATOM      6  C   UNL     1       3.972   4.341  17.862  0.00  0.00    +0.000 C 
ENDROOT
BRANCH   1   8
ATOM      7  C   UNL     1       2.087   6.255  20.207  0.00  0.00    +0.000 C 
ATOM      8  C   UNL     1       3.114   6.385  19.105  0.00  0.00    +0.000 C 
ATOM      9  O   UNL     1       3.042   7.318  18.305  0.00  0.00    +0.000 OA
ENDBRANCH   1   8
BRANCH   2  10
ATOM     10  O   UNL     1       6.559   5.110  19.552  0.00  0.00    +0.000 OA
ATOM     11  H   UNL     1       6.410   4.953  20.509  0.00  0.00    +0.000 HD
ENDBRANCH   2  10
BRANCH   4  12
ATOM     12  O   UNL     1       5.712   6.107  15.231  0.00  0.00    +0.000 OA
ATOM     13  H   UNL     1       4.794   6.246  14.935  0.00  0.00    +0.000 HD
ENDBRANCH   4  12
BRANCH   4  14
ATOM     14  C   UNL     1       6.801   4.362  16.411  0.00  0.00    +0.000 C 
ATOM     15  O   UNL     1       7.857   4.388  17.017  0.00  0.00    +0.000 OA
BRANCH  14  16
ATOM     16  O   UNL     1       6.454   3.363  15.555  0.00  0.00    +0.000 OA
ATOM     17  H   UNL     1       5.639   3.614  15.062  0.00  0.00    +0.000 HD
ENDBRANCH  14  16
ENDBRANCH   4  14
BRANCH   6  18
ATOM     18  C   UNL     1       4.500   2.905  18.121  0.00  0.00    +0.000 C 
BRANCH  18  19
ATOM     19  O   UNL     1       5.096   2.805  19.423  0.00  0.00    +0.000 OA
ATOM     20  H   UNL     1       4.998   3.688  19.848  0.00  0.00    +0.000 HD
ENDBRANCH  18  19
BRANCH  18  21
ATOM     21  C   UNL     1       3.401   1.818  17.969  0.00  0.00    +0.000 C 
BRANCH  21  22
ATOM     22  O   UNL     1       3.910   0.592  18.519  0.00  0.00    +0.000 OA
ATOM     23  H   UNL     1       3.458   0.475  19.379  0.00  0.00    +0.000 HD
ENDBRANCH  21  22
BRANCH  21  24
ATOM     24  C   UNL     1       2.080   2.151  18.680  0.00  0.00    +0.000 C 
BRANCH  24  25
ATOM     25  O   UNL     1       2.290   2.274  20.091  0.00  0.00    +0.000 OA
ATOM     26  H   UNL     1       1.928   1.462  20.494  0.00  0.00    +0.000 HD
ENDBRANCH  24  25
ENDBRANCH  21  24
ENDBRANCH  18  21
ENDBRANCH   6  18
TORSDOF 11
ENDMDL
MODEL 4
REMARK VINA RESULT:      -6.3      2.012      3.742
REMARK  Name = 
REMARK  12 active torsions:
REMARK  status: ('A' for Active; 'I' for Inactive)
REMARK    1  A    between atoms: C_1  and  C_2
REMARK    2  A    between atoms: C_2  and  C_4
REMARK    3  A    between atoms: C_5  and  O_6
REMARK    4  A    between atoms: C_8  and  O_9
REMARK    5  A    between atoms: C_8  and  C_10
REMARK    6  A    between atoms: C_10  and  O_12
REMARK    7  A    between atoms: C_14  and  C_15
REMARK    8  A    between atoms: C_15  and  O_16
REMARK    9  A    between atoms: C_15  and  C_17
REMARK   10  A    between atoms: C_17  and  O_18
REMARK   11  A    between atoms: C_17  and  C_19
REMARK   12  A    between atoms: C_19  and  O_20
REMARK                            x       y       z     vdW  Elec       q    Type
REMARK                         _______ _______ _______ _____ _____    ______ ____
ROOT
ATOM      1  C   UNL     1       3.341   3.150  17.873  0.00  0.00    +0.000 C 
ATOM      2  C   UNL     1       3.879   3.132  19.299  0.00  0.00    +0.000 C 
ATOM      3  C   UNL     1       3.824   4.499  19.965  0.00  0.00    +0.000 C 
ATOM      4  C   UNL     1       4.368   5.612  19.083  0.00  0.00    +0.000 C 
ATOM      5  O   UNL     1       3.862   5.600  17.757  0.00  0.00    +0.000 OA
ATOM      6  C   UNL     1       3.865   4.349  17.050  0.00  0.00    +0.000 C 
ENDROOT
BRANCH   1   8
ATOM      7  C   UNL     1       1.143   2.062  18.745  0.00  0.00    +0.000 C 
ATOM      8  C   UNL     1       1.810   3.107  17.879  0.00  0.00    +0.000 C 
ATOM      9  O   UNL     1       1.122   3.878  17.210  0.00  0.00    +0.000 OA
ENDBRANCH   1   8
BRANCH   2  10
ATOM     10  O   UNL     1       5.170   2.535  19.318  0.00  0.00    +0.000 OA
ATOM     11  H   UNL     1       5.496   2.307  18.421  0.00  0.00    +0.000 HD
ENDBRANCH   2  10
BRANCH   4  12
ATOM     12  O   UNL     1       3.948   6.869  19.641  0.00  0.00    +0.000 OA
ATOM     13  H   UNL     1       4.233   7.584  19.042  0.00  0.00    +0.000 HD
ENDBRANCH   4  12
BRANCH   4  14
ATOM     14  C   UNL     1       5.920   5.676  19.082  0.00  0.00    +0.000 C 
ATOM     15  O   UNL     1       6.652   5.044  19.821  0.00  0.00    +0.000 OA
BRANCH  14  16
ATOM     16  O   UNL     1       6.377   6.539  18.134  0.00  0.00    +0.000 OA
ATOM     17  H   UNL     1       7.357   6.471  18.065  0.00  0.00    +0.000 HD
ENDBRANCH  14  16
ENDBRANCH   4  14
BRANCH   6  18
ATOM     18  C   UNL     1       5.235   4.095  16.367  0.00  0.00    +0.000 C 
BRANCH  18  19
ATOM     19  O   UNL     1       5.442   2.693  16.140  0.00  0.00    +0.000 OA
ATOM     20  H   UNL     1       4.550   2.278  16.096  0.00  0.00    +0.000 HD
ENDBRANCH  18  19
BRANCH  18  21
ATOM     21  C   UNL     1       5.397   4.866  15.028  0.00  0.00    +0.000 C 
BRANCH  21  22
ATOM     22  O   UNL     1       5.527   6.264  15.333  0.00  0.00    +0.000 OA
ATOM     23  H   UNL     1       5.378   6.345  16.295  0.00  0.00    +0.000 HD
ENDBRANCH  21  22
BRANCH  21  24
ATOM     24  C   UNL     1       6.618   4.440  14.197  0.00  0.00    +0.000 C 
BRANCH  24  25
ATOM     25  O   UNL     1       6.297   3.307  13.382  0.00  0.00    +0.000 OA
ATOM     26  H   UNL     1       7.067   2.710  13.426  0.00  0.00    +0.000 HD
ENDBRANCH  24  25
ENDBRANCH  21  24
ENDBRANCH  18  21
ENDBRANCH   6  18
TORSDOF 11
ENDMDL
MODEL 5
REMARK VINA RESULT:      -6.2      1.008      1.210
REMARK  Name = 
REMARK  12 active torsions:
REMARK  status: ('A' for Active; 'I' for Inactive)
REMARK    1  A    between atoms: C_1  and  C_2
REMARK    2  A    between atoms: C_2  and  C_4
REMARK    3  A    between atoms: C_5  and  O_6
REMARK    4  A    between atoms: C_8  and  O_9
REMARK    5  A    between atoms: C_8  and  C_10
REMARK    6  A    between atoms: C_10  and  O_12
REMARK    7  A    between atoms: C_14  and  C_15
REMARK    8  A    between atoms: C_15  and  O_16
REMARK    9  A    between atoms: C_15  and  C_17
REMARK   10  A    between atoms: C_17  and  O_18
REMARK   11  A    between atoms: C_17  and  C_19
REMARK   12  A    between atoms: C_19  and  O_20
REMARK                            x       y       z     vdW  Elec       q    Type
REMARK                         _______ _______ _______ _____ _____    ______ ____
ROOT
ATOM      1  C   UNL     1       3.199   5.474  17.830  0.00  0.00    +0.000 C 
ATOM      2  C   UNL     1       2.135   4.384  17.796  0.00  0.00    +0.000 C 
ATOM      3  C   UNL     1       1.947   3.704  19.144  0.00  0.00    +0.000 C 
ATOM      4  C   UNL     1       3.261   3.304  19.796  0.00  0.00    +0.000 C 
ATOM      5  O   UNL     1       4.240   4.333  19.804  0.00  0.00    +0.000 OA
ATOM      6  C   UNL     1       4.481   5.038  18.576  0.00  0.00    +0.000 C 
ENDROOT
BRANCH   1   8
ATOM      7  C   UNL     1       2.304   6.774  19.900  0.00  0.00    +0.000 C 
ATOM      8  C   UNL     1       2.623   6.765  18.422  0.00  0.00    +0.000 C 
ATOM      9  O   UNL     1       2.412   7.770  17.743  0.00  0.00    +0.000 OA
ENDBRANCH   1   8
BRANCH   2  10
ATOM     10  O   UNL     1       2.405   3.481  16.730  0.00  0.00    +0.000 OA
ATOM     11  H   UNL     1       1.938   2.624  16.831  0.00  0.00    +0.000 HD
ENDBRANCH   2  10
BRANCH   4  12
ATOM     12  O   UNL     1       3.002   3.012  21.180  0.00  0.00    +0.000 OA
ATOM     13  H   UNL     1       2.197   3.490  21.452  0.00  0.00    +0.000 HD
ENDBRANCH   4  12
BRANCH   4  14
ATOM     14  C   UNL     1       3.847   1.988  19.215  0.00  0.00    +0.000 C 
ATOM     15  O   UNL     1       3.356   1.337  18.311  0.00  0.00    +0.000 OA
BRANCH  14  16
ATOM     16  O   UNL     1       5.001   1.640  19.847  0.00  0.00    +0.000 OA
ATOM     17  H   UNL     1       4.969   1.936  20.786  0.00  0.00    +0.000 HD
ENDBRANCH  14  16
ENDBRANCH   4  14
BRANCH   6  18
ATOM     18  C   UNL     1       5.503   4.282  17.686  0.00  0.00    +0.000 C 
BRANCH  18  19
ATOM     19  O   UNL     1       5.268   4.549  16.295  0.00  0.00    +0.000 OA
ATOM     20  H   UNL     1       4.628   3.870  15.980  0.00  0.00    +0.000 HD
ENDBRANCH  18  19
BRANCH  18  21
ATOM     21  C   UNL     1       6.978   4.619  18.036  0.00  0.00    +0.000 C 
BRANCH  21  22
ATOM     22  O   UNL     1       7.688   4.838  16.806  0.00  0.00    +0.000 OA
ATOM     23  H   UNL     1       7.279   5.627  16.396  0.00  0.00    +0.000 HD
ENDBRANCH  21  22
BRANCH  21  24
ATOM     24  C   UNL     1       7.149   5.867  18.917  0.00  0.00    +0.000 C 
BRANCH  24  25
ATOM     25  O   UNL     1       7.702   5.508  20.188  0.00  0.00    +0.000 OA
ATOM     26  H   UNL     1       7.371   4.612  20.389  0.00  0.00    +0.000 HD
ENDBRANCH  24  25
ENDBRANCH  21  24
ENDBRANCH  18  21
ENDBRANCH   6  18
TORSDOF 11
ENDMDL
MODEL 6
REMARK VINA RESULT:      -6.1      1.111      1.485
REMARK  Name = 
REMARK  12 active torsions:
REMARK  status: ('A' for Active; 'I' for Inactive)
REMARK    1  A    between atoms: C_1  and  C_2
REMARK    2  A    between atoms: C_2  and  C_4
REMARK    3  A    between atoms: C_5  and  O_6
REMARK    4  A    between atoms: C_8  and  O_9
REMARK    5  A    between atoms: C_8  and  C_10
REMARK    6  A    between atoms: C_10  and  O_12
REMARK    7  A    between atoms: C_14  and  C_15
REMARK    8  A    between atoms: C_15  and  O_16
REMARK    9  A    between atoms: C_15  and  C_17
REMARK   10  A    between atoms: C_17  and  O_18
REMARK   11  A    between atoms: C_17  and  C_19
REMARK   12  A    between atoms: C_19  and  O_20
REMARK                            x       y       z     vdW  Elec       q    Type
REMARK                         _______ _______ _______ _____ _____    ______ ____
ROOT
ATOM      1  C   UNL     1       3.274   5.847  18.372  0.00  0.00    +0.000 C 
ATOM      2  C   UNL     1       2.307   4.804  17.824  0.00  0.00    +0.000 C 
ATOM      3  C   UNL     1       1.589   4.035  18.923  0.00  0.00    +0.000 C 
ATOM      4  C   UNL     1       2.527   3.538  20.011  0.00  0.00    +0.000 C 
ATOM      5  O   UNL     1       3.426   4.524  20.496  0.00  0.00    +0.000 OA
ATOM      6  C   UNL     1       4.145   5.308  19.530  0.00  0.00    +0.000 C 
ENDROOT
BRANCH   1   8
ATOM      7  C   UNL     1       2.277   8.164  17.729  0.00  0.00    +0.000 C 
ATOM      8  C   UNL     1       2.516   7.112  18.788  0.00  0.00    +0.000 C 
ATOM      9  O   UNL     1       2.110   7.294  19.936  0.00  0.00    +0.000 OA
ENDBRANCH   1   8
BRANCH   2  10
ATOM     10  O   UNL     1       2.979   3.972  16.885  0.00  0.00    +0.000 OA
ATOM     11  H   UNL     1       3.948   3.942  17.031  0.00  0.00    +0.000 HD
ENDBRANCH   2  10
BRANCH   4  12
ATOM     12  O   UNL     1       1.731   3.155  21.146  0.00  0.00    +0.000 OA
ATOM     13  H   UNL     1       0.792   3.293  20.926  0.00  0.00    +0.000 HD
ENDBRANCH   4  12
BRANCH   4  14
ATOM     14  C   UNL     1       3.290   2.246  19.606  0.00  0.00    +0.000 C 
ATOM     15  O   UNL     1       4.361   1.888  20.062  0.00  0.00    +0.000 OA
BRANCH  14  16
ATOM     16  O   UNL     1       2.604   1.544  18.663  0.00  0.00    +0.000 OA
ATOM     17  H   UNL     1       1.928   0.975  19.097  0.00  0.00    +0.000 HD
ENDBRANCH  14  16
ENDBRANCH   4  14
BRANCH   6  18
ATOM     18  C   UNL     1       5.434   4.581  19.065  0.00  0.00    +0.000 C 
BRANCH  18  19
ATOM     19  O   UNL     1       5.228   3.930  17.802  0.00  0.00    +0.000 OA
ATOM     20  H   UNL     1       6.117   3.665  17.472  0.00  0.00    +0.000 HD
ENDBRANCH  18  19
BRANCH  18  21
ATOM     21  C   UNL     1       6.662   5.527  18.966  0.00  0.00    +0.000 C 
BRANCH  21  22
ATOM     22  O   UNL     1       7.502   5.285  20.107  0.00  0.00    +0.000 OA
ATOM     23  H   UNL     1       6.986   4.709  20.704  0.00  0.00    +0.000 HD
ENDBRANCH  21  22
BRANCH  21  24
ATOM     24  C   UNL     1       7.508   5.334  17.698  0.00  0.00    +0.000 C 
BRANCH  24  25
ATOM     25  O   UNL     1       8.184   4.072  17.736  0.00  0.00    +0.000 OA
ATOM     26  H   UNL     1       8.054   3.663  16.860  0.00  0.00    +0.000 HD
ENDBRANCH  24  25
ENDBRANCH  21  24
ENDBRANCH  18  21
ENDBRANCH   6  18
TORSDOF 11
ENDMDL
MODEL 7
REMARK VINA RESULT:      -6.1      0.999      1.180
REMARK  Name = 
REMARK  12 active torsions:
REMARK  status: ('A' for Active; 'I' for Inactive)
REMARK    1  A    between atoms: C_1  and  C_2
REMARK    2  A    between atoms: C_2  and  C_4
REMARK    3  A    between atoms: C_5  and  O_6
REMARK    4  A    between atoms: C_8  and  O_9
REMARK    5  A    between atoms: C_8  and  C_10
REMARK    6  A    between atoms: C_10  and  O_12
REMARK    7  A    between atoms: C_14  and  C_15
REMARK    8  A    between atoms: C_15  and  O_16
REMARK    9  A    between atoms: C_15  and  C_17
REMARK   10  A    between atoms: C_17  and  O_18
REMARK   11  A    between atoms: C_17  and  C_19
REMARK   12  A    between atoms: C_19  and  O_20
REMARK                            x       y       z     vdW  Elec       q    Type
REMARK                         _______ _______ _______ _____ _____    ______ ____
ROOT
ATOM      1  C   UNL     1       2.696   5.782  18.200  0.00  0.00    +0.000 C 
ATOM      2  C   UNL     1       1.666   4.661  18.269  0.00  0.00    +0.000 C 
ATOM      3  C   UNL     1       1.764   3.853  19.554  0.00  0.00    +0.000 C 
ATOM      4  C   UNL     1       3.189   3.442  19.891  0.00  0.00    +0.000 C 
ATOM      5  O   UNL     1       4.132   4.501  19.806  0.00  0.00    +0.000 OA
ATOM      6  C   UNL     1       4.109   5.326  18.630  0.00  0.00    +0.000 C 
ENDROOT
BRANCH   1   8
ATOM      7  C   UNL     1       1.815   6.745  20.452  0.00  0.00    +0.000 C 
ATOM      8  C   UNL     1       2.228   6.990  19.018  0.00  0.00    +0.000 C 
ATOM      9  O   UNL     1       2.175   8.128  18.551  0.00  0.00    +0.000 OA
ENDBRANCH   1   8
BRANCH   2  10
ATOM     10  O   UNL     1       1.732   3.873  17.087  0.00  0.00    +0.000 OA
ATOM     11  H   UNL     1       2.601   3.939  16.636  0.00  0.00    +0.000 HD
ENDBRANCH   2  10
BRANCH   4  12
ATOM     12  O   UNL     1       3.218   3.013  21.263  0.00  0.00    +0.000 OA
ATOM     13  H   UNL     1       4.047   3.328  21.668  0.00  0.00    +0.000 HD
ENDBRANCH   4  12
BRANCH   4  14
ATOM     14  C   UNL     1       3.669   2.208  19.078  0.00  0.00    +0.000 C 
ATOM     15  O   UNL     1       3.029   1.645  18.209  0.00  0.00    +0.000 OA
BRANCH  14  16
ATOM     16  O   UNL     1       4.918   1.823  19.458  0.00  0.00    +0.000 OA
ATOM     17  H   UNL     1       5.454   2.614  19.693  0.00  0.00    +0.000 HD
ENDBRANCH  14  16
ENDBRANCH   4  14
BRANCH   6  18
ATOM     18  C   UNL     1       4.944   4.694  17.486  0.00  0.00    +0.000 C 
BRANCH  18  19
ATOM     19  O   UNL     1       4.512   5.181  16.206  0.00  0.00    +0.000 OA
ATOM     20  H   UNL     1       3.741   5.771  16.374  0.00  0.00    +0.000 HD
ENDBRANCH  18  19
BRANCH  18  21
ATOM     21  C   UNL     1       6.470   4.938  17.643  0.00  0.00    +0.000 C 
BRANCH  21  22
ATOM     22  O   UNL     1       6.933   4.155  18.756  0.00  0.00    +0.000 OA
ATOM     23  H   UNL     1       6.448   3.307  18.710  0.00  0.00    +0.000 HD
ENDBRANCH  21  22
BRANCH  21  24
ATOM     24  C   UNL     1       7.303   4.554  16.409  0.00  0.00    +0.000 C 
BRANCH  24  25
ATOM     25  O   UNL     1       7.443   5.679  15.533  0.00  0.00    +0.000 OA
ATOM     26  H   UNL     1       8.206   5.486  14.958  0.00  0.00    +0.000 HD
ENDBRANCH  24  25
ENDBRANCH  21  24
ENDBRANCH  18  21
ENDBRANCH   6  18
TORSDOF 11
ENDMDL
MODEL 8
REMARK VINA RESULT:      -6.1      2.171      4.243
REMARK  Name = 
REMARK  12 active torsions:
REMARK  status: ('A' for Active; 'I' for Inactive)
REMARK    1  A    between atoms: C_1  and  C_2
REMARK    2  A    between atoms: C_2  and  C_4
REMARK    3  A    between atoms: C_5  and  O_6
REMARK    4  A    between atoms: C_8  and  O_9
REMARK    5  A    between atoms: C_8  and  C_10
REMARK    6  A    between atoms: C_10  and  O_12
REMARK    7  A    between atoms: C_14  and  C_15
REMARK    8  A    between atoms: C_15  and  O_16
REMARK    9  A    between atoms: C_15  and  C_17
REMARK   10  A    between atoms: C_17  and  O_18
REMARK   11  A    between atoms: C_17  and  C_19
REMARK   12  A    between atoms: C_19  and  O_20
REMARK                            x       y       z     vdW  Elec       q    Type
REMARK                         _______ _______ _______ _____ _____    ______ ____
ROOT
ATOM      1  C   UNL     1       3.990   3.453  17.630  0.00  0.00    +0.000 C 
ATOM      2  C   UNL     1       4.439   4.041  18.962  0.00  0.00    +0.000 C 
ATOM      3  C   UNL     1       4.194   5.540  19.055  0.00  0.00    +0.000 C 
ATOM      4  C   UNL     1       4.665   6.297  17.823  0.00  0.00    +0.000 C 
ATOM      5  O   UNL     1       4.244   5.722  16.595  0.00  0.00    +0.000 OA
ATOM      6  C   UNL     1       4.428   4.308  16.419  0.00  0.00    +0.000 C 
ENDROOT
BRANCH   1   8
ATOM      7  C   UNL     1       1.937   2.101  18.487  0.00  0.00    +0.000 C 
ATOM      8  C   UNL     1       2.475   3.225  17.630  0.00  0.00    +0.000 C 
ATOM      9  O   UNL     1       1.700   3.912  16.963  0.00  0.00    +0.000 OA
ENDBRANCH   1   8
BRANCH   2  10
ATOM     10  O   UNL     1       5.784   3.661  19.227  0.00  0.00    +0.000 OA
ATOM     11  H   UNL     1       6.351   4.422  19.476  0.00  0.00    +0.000 HD
ENDBRANCH   2  10
BRANCH   4  12
ATOM     12  O   UNL     1       4.077   7.609  17.853  0.00  0.00    +0.000 OA
ATOM     13  H   UNL     1       4.542   8.171  17.207  0.00  0.00    +0.000 HD
ENDBRANCH   4  12
BRANCH   4  14
ATOM     14  C   UNL     1       6.198   6.548  17.820  0.00  0.00    +0.000 C 
ATOM     15  O   UNL     1       6.996   6.048  18.591  0.00  0.00    +0.000 OA
BRANCH  14  16
ATOM     16  O   UNL     1       6.554   7.412  16.830  0.00  0.00    +0.000 OA
ATOM     17  H   UNL     1       6.393   6.997  15.952  0.00  0.00    +0.000 HD
ENDBRANCH  14  16
ENDBRANCH   4  14
BRANCH   6  18
ATOM     18  C   UNL     1       5.856   3.988  15.904  0.00  0.00    +0.000 C 
BRANCH  18  19
ATOM     19  O   UNL     1       6.013   2.581  15.667  0.00  0.00    +0.000 OA
ATOM     20  H   UNL     1       5.108   2.213  15.542  0.00  0.00    +0.000 HD
ENDBRANCH  18  19
BRANCH  18  21
ATOM     21  C   UNL     1       6.227   4.774  14.617  0.00  0.00    +0.000 C 
BRANCH  21  22
ATOM     22  O   UNL     1       7.491   5.422  14.840  0.00  0.00    +0.000 OA
ATOM     23  H   UNL     1       8.175   4.749  14.652  0.00  0.00    +0.000 HD
ENDBRANCH  21  22
BRANCH  21  24
ATOM     24  C   UNL     1       6.351   3.902  13.357  0.00  0.00    +0.000 C 
BRANCH  24  25
ATOM     25  O   UNL     1       5.054   3.588  12.838  0.00  0.00    +0.000 OA
ATOM     26  H   UNL     1       4.409   3.927  13.487  0.00  0.00    +0.000 HD
ENDBRANCH  24  25
ENDBRANCH  21  24
ENDBRANCH  18  21
ENDBRANCH   6  18
TORSDOF 11
ENDMDL
MODEL 9
REMARK VINA RESULT:      -6.0      2.313      3.695
REMARK  Name = 
REMARK  12 active torsions:
REMARK  status: ('A' for Active; 'I' for Inactive)
REMARK    1  A    between atoms: C_1  and  C_2
REMARK    2  A    between atoms: C_2  and  C_4
REMARK    3  A    between atoms: C_5  and  O_6
REMARK    4  A    between atoms: C_8  and  O_9
REMARK    5  A    between atoms: C_8  and  C_10
REMARK    6  A    between atoms: C_10  and  O_12
REMARK    7  A    between atoms: C_14  and  C_15
REMARK    8  A    between atoms: C_15  and  O_16
REMARK    9  A    between atoms: C_15  and  C_17
REMARK   10  A    between atoms: C_17  and  O_18
REMARK   11  A    between atoms: C_17  and  C_19
REMARK   12  A    between atoms: C_19  and  O_20
REMARK                            x       y       z     vdW  Elec       q    Type
REMARK                         _______ _______ _______ _____ _____    ______ ____
ROOT
ATOM      1  C   UNL     1       6.399   6.663  17.205  0.00  0.00    +0.000 C 
ATOM      2  C   UNL     1       5.120   6.720  18.032  0.00  0.00    +0.000 C 
ATOM      3  C   UNL     1       4.999   5.559  19.007  0.00  0.00    +0.000 C 
ATOM      4  C   UNL     1       5.295   4.212  18.367  0.00  0.00    +0.000 C 
ATOM      5  O   UNL     1       6.484   4.188  17.591  0.00  0.00    +0.000 OA
ATOM      6  C   UNL     1       6.690   5.251  16.647  0.00  0.00    +0.000 C 
ENDROOT
BRANCH   1   8
ATOM      7  C   UNL     1       8.037   8.613  17.744  0.00  0.00    +0.000 C 
ATOM      8  C   UNL     1       7.584   7.196  18.016  0.00  0.00    +0.000 C 
ATOM      9  O   UNL     1       8.170   6.517  18.860  0.00  0.00    +0.000 OA
ENDBRANCH   1   8
BRANCH   2  10
ATOM     10  O   UNL     1       3.997   6.868  17.171  0.00  0.00    +0.000 OA
ATOM     11  H   UNL     1       4.247   7.155  16.267  0.00  0.00    +0.000 HD
ENDBRANCH   2  10
BRANCH   4  12
ATOM     12  O   UNL     1       5.505   3.254  19.419  0.00  0.00    +0.000 OA
ATOM     13  H   UNL     1       5.679   3.737  20.247  0.00  0.00    +0.000 HD
ENDBRANCH   4  12
BRANCH   4  14
ATOM     14  C   UNL     1       4.094   3.654  17.555  0.00  0.00    +0.000 C 
ATOM     15  O   UNL     1       3.106   4.288  17.231  0.00  0.00    +0.000 OA
BRANCH  14  16
ATOM     16  O   UNL     1       4.280   2.343  17.237  0.00  0.00    +0.000 OA
ATOM     17  H   UNL     1       4.771   2.272  16.387  0.00  0.00    +0.000 HD
ENDBRANCH  14  16
ENDBRANCH   4  14
BRANCH   6  18
ATOM     18  C   UNL     1       5.986   4.947  15.299  0.00  0.00    +0.000 C 
BRANCH  18  19
ATOM     19  O   UNL     1       5.504   6.154  14.688  0.00  0.00    +0.000 OA
ATOM     20  H   UNL     1       6.232   6.814  14.753  0.00  0.00    +0.000 HD
ENDBRANCH  18  19
BRANCH  18  21
ATOM     21  C   UNL     1       6.898   4.189  14.296  0.00  0.00    +0.000 C 
BRANCH  21  22
ATOM     22  O   UNL     1       6.120   3.142  13.691  0.00  0.00    +0.000 OA
ATOM     23  H   UNL     1       6.458   3.049  12.778  0.00  0.00    +0.000 HD
ENDBRANCH  21  22
BRANCH  21  24
ATOM     24  C   UNL     1       7.473   5.068  13.174  0.00  0.00    +0.000 C 
BRANCH  24  25
ATOM     25  O   UNL     1       8.557   5.862  13.669  0.00  0.00    +0.000 OA
ATOM     26  H   UNL     1       8.159   6.674  14.035  0.00  0.00    +0.000 HD
ENDBRANCH  24  25
ENDBRANCH  21  24
ENDBRANCH  18  21
ENDBRANCH   6  18
TORSDOF 11
ENDMDL
