MODEL 1
REMARK VINA RESULT:      -7.6      0.000      0.000
REMARK  Name = 
REMARK  6 active torsions:
REMARK  status: ('A' for Active; 'I' for Inactive)
REMARK    1  A    between atoms: C_1  and  O_2
REMARK    2  A    between atoms: O_2  and  C_3
REMARK    3  A    between atoms: C_7  and  N_8
REMARK    4  A    between atoms: N_11  and  C_12
REMARK    5  A    between atoms: C_12  and  C_13
REMARK    6  A    between atoms: C_13  and  N_14
REMARK                            x       y       z     vdW  Elec       q    Type
REMARK                         _______ _______ _______ _____ _____    ______ ____
ROOT
ATOM      1  N   UNL     1       5.555   4.978  15.781  0.00  0.00    +0.000 N 
ATOM      2  C   UNL     1       4.552   4.157  16.479  0.00  0.00    +0.000 C 
ATOM      3  C   UNL     1       5.157   3.422  17.695  0.00  0.00    +0.000 C 
ATOM      4  N   UNL     1       5.881   4.300  18.649  0.00  0.00    +0.000 NA
ATOM      5  C   UNL     1       6.948   4.979  17.866  0.00  0.00    +0.000 C 
ATOM      6  C   UNL     1       6.453   5.783  16.635  0.00  0.00    +0.000 C 
ENDROOT
BRANCH   1  11
ATOM      7  C   UNL     1       5.839   3.420  12.406  0.00  0.00    +0.000 A 
ATOM      8  C   UNL     1       7.053   3.961  11.982  0.00  0.00    +0.000 A 
ATOM      9  C   UNL     1       7.751   4.840  12.803  0.00  0.00    +0.000 A 
ATOM     10  C   UNL     1       7.238   5.169  14.057  0.00  0.00    +0.000 A 
ATOM     11  C   UNL     1       6.024   4.635  14.519  0.00  0.00    +0.000 A 
ATOM     12  C   UNL     1       5.330   3.769  13.662  0.00  0.00    +0.000 A 
BRANCH   7  14
ATOM     13  C   UNL     1       3.995   2.953  10.980  0.00  0.00    +0.000 C 
ATOM     14  O   UNL     1       5.251   2.557  11.518  0.00  0.00    +0.000 OA
ENDBRANCH   7  14
ENDBRANCH   1  11
BRANCH   4  15
ATOM     15  C   UNL     1       5.002   5.295  19.305  0.00  0.00    +0.000 C 
BRANCH  15  16
ATOM     16  C   UNL     1       3.501   5.150  18.970  0.00  0.00    +0.000 C 
BRANCH  16  17
ATOM     17  N   UNL     1       2.719   6.308  19.403  0.00  0.00    +0.000 N 
ATOM     18  C   UNL     1       2.057   6.213  20.628  0.00  0.00    +0.000 A 
ATOM     19  O   UNL     1       2.080   5.207  21.337  0.00  0.00    +0.000 OA
ATOM     20  N   UNL     1       1.345   7.312  21.048  0.00  0.00    +0.000 N 
ATOM     21  C   UNL     1       1.261   8.461  20.300  0.00  0.00    +0.000 A 
ATOM     22  C   UNL     1       0.570   9.657  20.614  0.00  0.00    +0.000 A 
ATOM     23  C   UNL     1       0.715  10.595  19.611  0.00  0.00    +0.000 A 
ATOM     24  S   UNL     1       1.682  10.011  18.316  0.00  0.00    +0.000 S 
ATOM     25  C   UNL     1       1.899   8.519  19.092  0.00  0.00    +0.000 A 
ATOM     26  C   UNL     1       2.668   7.424  18.553  0.00  0.00    +0.000 A 
ATOM     27  O   UNL     1       3.229   7.452  17.460  0.00  0.00    +0.000 OA
ATOM     28  H   UNL     1       0.879   7.245  21.941  0.00  0.00    +0.000 HD
ENDBRANCH  16  17
ENDBRANCH  15  16
ENDBRANCH   4  15
TORSDOF 5
ENDMDL
MODEL 2
REMARK VINA RESULT:      -7.5      2.751      8.455
REMARK  Name = 
REMARK  6 active torsions:
REMARK  status: ('A' for Active; 'I' for Inactive)
REMARK    1  A    between atoms: C_1  and  O_2
REMARK    2  A    between atoms: O_2  and  C_3
REMARK    3  A    between atoms: C_7  and  N_8
REMARK    4  A    between atoms: N_11  and  C_12
REMARK    5  A    between atoms: C_12  and  C_13
REMARK    6  A    between atoms: C_13  and  N_14
REMARK                            x       y       z     vdW  Elec       q    Type
REMARK                         _______ _______ _______ _____ _____    ______ ____
ROOT
ATOM      1  N   UNL     1       1.913   8.278  19.774  0.00  0.00    +0.000 N 
ATOM      2  C   UNL     1       1.930   7.330  20.901  0.00  0.00    +0.000 C 
ATOM      3  C   UNL     1       1.631   5.886  20.441  0.00  0.00    +0.000 C 
ATOM      4  N   UNL     1       2.487   5.403  19.329  0.00  0.00    +0.000 NA
ATOM      5  C   UNL     1       2.293   6.359  18.205  0.00  0.00    +0.000 C 
ATOM      6  C   UNL     1       2.600   7.843  18.540  0.00  0.00    +0.000 C 
ENDROOT
BRANCH   1  11
ATOM      7  C   UNL     1      -0.733  10.783  20.564  0.00  0.00    +0.000 A 
ATOM      8  C   UNL     1      -1.159  11.110  19.277  0.00  0.00    +0.000 A 
ATOM      9  C   UNL     1      -0.561  10.517  18.170  0.00  0.00    +0.000 A 
ATOM     10  C   UNL     1       0.458   9.584  18.354  0.00  0.00    +0.000 A 
ATOM     11  C   UNL     1       0.904   9.223  19.636  0.00  0.00    +0.000 A 
ATOM     12  C   UNL     1       0.299   9.853  20.732  0.00  0.00    +0.000 A 
BRANCH   7  14
ATOM     13  C   UNL     1      -1.024  11.089  22.903  0.00  0.00    +0.000 C 
ATOM     14  O   UNL     1      -1.405  11.421  21.574  0.00  0.00    +0.000 OA
ENDBRANCH   7  14
ENDBRANCH   1  11
BRANCH   4  15
ATOM     15  C   UNL     1       3.919   5.312  19.694  0.00  0.00    +0.000 C 
BRANCH  15  16
ATOM     16  C   UNL     1       4.632   4.036  19.193  0.00  0.00    +0.000 C 
BRANCH  16  17
ATOM     17  N   UNL     1       5.420   4.276  17.984  0.00  0.00    +0.000 N 
ATOM     18  C   UNL     1       6.708   4.790  18.148  0.00  0.00    +0.000 A 
ATOM     19  O   UNL     1       7.193   5.069  19.245  0.00  0.00    +0.000 OA
ATOM     20  N   UNL     1       7.458   4.990  17.014  0.00  0.00    +0.000 N 
ATOM     21  C   UNL     1       6.974   4.718  15.757  0.00  0.00    +0.000 A 
ATOM     22  C   UNL     1       7.636   4.873  14.515  0.00  0.00    +0.000 A 
ATOM     23  C   UNL     1       6.822   4.496  13.465  0.00  0.00    +0.000 A 
ATOM     24  S   UNL     1       5.279   3.964  14.003  0.00  0.00    +0.000 S 
ATOM     25  C   UNL     1       5.700   4.238  15.623  0.00  0.00    +0.000 A 
ATOM     26  C   UNL     1       4.825   3.997  16.744  0.00  0.00    +0.000 A 
ATOM     27  O   UNL     1       3.671   3.588  16.639  0.00  0.00    +0.000 OA
ATOM     28  H   UNL     1       8.393   5.347  17.137  0.00  0.00    +0.000 HD
ENDBRANCH  16  17
ENDBRANCH  15  16
ENDBRANCH   4  15
TORSDOF 5
ENDMDL
MODEL 3
REMARK VINA RESULT:      -7.4      5.485      9.028
REMARK  Name = 
REMARK  6 active torsions:
REMARK  status: ('A' for Active; 'I' for Inactive)
REMARK    1  A    between atoms: C_1  and  O_2
REMARK    2  A    between atoms: O_2  and  C_3
REMARK    3  A    between atoms: C_7  and  N_8
REMARK    4  A    between atoms: N_11  and  C_12
REMARK    5  A    between atoms: C_12  and  C_13
REMARK    6  A    between atoms: C_13  and  N_14
REMARK                            x       y       z     vdW  Elec       q    Type
REMARK                         _______ _______ _______ _____ _____    ______ ____
ROOT
ATOM      1  N   UNL     1       0.042   9.255  20.653  0.00  0.00    +0.000 N 
ATOM      2  C   UNL     1      -0.283   8.679  21.969  0.00  0.00    +0.000 C 
ATOM      3  C   UNL     1       0.207   9.577  23.126  0.00  0.00    +0.000 C 
ATOM      4  N   UNL     1      -0.238  10.990  23.042  0.00  0.00    +0.000 NA
ATOM      5  C   UNL     1       0.254  11.507  21.736  0.00  0.00    +0.000 C 
ATOM      6  C   UNL     1      -0.207  10.702  20.492  0.00  0.00    +0.000 C 
ENDROOT
BRANCH   1  11
ATOM      7  C   UNL     1       2.700   6.993  19.342  0.00  0.00    +0.000 A 
ATOM      8  C   UNL     1       2.955   7.596  18.110  0.00  0.00    +0.000 A 
ATOM      9  C   UNL     1       2.241   8.724  17.722  0.00  0.00    +0.000 A 
ATOM     10  C   UNL     1       1.277   9.258  18.576  0.00  0.00    +0.000 A 
ATOM     11  C   UNL     1       1.002   8.683  19.827  0.00  0.00    +0.000 A 
ATOM     12  C   UNL     1       1.720   7.533  20.183  0.00  0.00    +0.000 A 
BRANCH   7  14
ATOM     13  C   UNL     1       4.529   5.613  18.710  0.00  0.00    +0.000 C 
ATOM     14  O   UNL     1       3.474   5.897  19.619  0.00  0.00    +0.000 OA
ENDBRANCH   7  14
ENDBRANCH   1  11
BRANCH   4  15
ATOM     15  C   UNL     1      -1.707  11.145  23.143  0.00  0.00    +0.000 C 
BRANCH  15  16
ATOM     16  C   UNL     1      -2.211  12.601  23.038  0.00  0.00    +0.000 C 
BRANCH  16  17
ATOM     17  N   UNL     1      -3.616  12.677  22.636  0.00  0.00    +0.000 N 
ATOM     18  C   UNL     1      -4.578  12.594  23.644  0.00  0.00    +0.000 A 
ATOM     19  O   UNL     1      -4.303  12.436  24.834  0.00  0.00    +0.000 OA
ATOM     20  N   UNL     1      -5.897  12.693  23.269  0.00  0.00    +0.000 N 
ATOM     21  C   UNL     1      -6.276  12.850  21.958  0.00  0.00    +0.000 A 
ATOM     22  C   UNL     1      -7.589  12.968  21.439  0.00  0.00    +0.000 A 
ATOM     23  C   UNL     1      -7.570  13.111  20.065  0.00  0.00    +0.000 A 
ATOM     24  S   UNL     1      -5.972  13.100  19.436  0.00  0.00    +0.000 S 
ATOM     25  C   UNL     1      -5.315  12.904  20.987  0.00  0.00    +0.000 A 
ATOM     26  C   UNL     1      -3.903  12.806  21.268  0.00  0.00    +0.000 A 
ATOM     27  O   UNL     1      -3.028  12.830  20.406  0.00  0.00    +0.000 OA
ATOM     28  H   UNL     1      -6.589  12.647  24.002  0.00  0.00    +0.000 HD
ENDBRANCH  16  17
ENDBRANCH  15  16
ENDBRANCH   4  15
TORSDOF 5
ENDMDL
MODEL 4
REMARK VINA RESULT:      -7.3      4.847      7.728
REMARK  Name = 
REMARK  6 active torsions:
REMARK  status: ('A' for Active; 'I' for Inactive)
REMARK    1  A    between atoms: C_1  and  O_2
REMARK    2  A    between atoms: O_2  and  C_3
REMARK    3  A    between atoms: C_7  and  N_8
REMARK    4  A    between atoms: N_11  and  C_12
REMARK    5  A    between atoms: C_12  and  C_13
REMARK    6  A    between atoms: C_13  and  N_14
REMARK                            x       y       z     vdW  Elec       q    Type
REMARK                         _______ _______ _______ _____ _____    ______ ____
ROOT
ATOM      1  N   UNL     1       2.002   7.689  19.873  0.00  0.00    +0.000 N 
ATOM      2  C   UNL     1       2.002   8.781  18.885  0.00  0.00    +0.000 C 
ATOM      3  C   UNL     1       0.662   9.550  18.880  0.00  0.00    +0.000 C 
ATOM      4  N   UNL     1       0.226  10.039  20.212  0.00  0.00    +0.000 NA
ATOM      5  C   UNL     1       0.137   8.840  21.090  0.00  0.00    +0.000 C 
ATOM      6  C   UNL     1       1.440   8.005  21.202  0.00  0.00    +0.000 C 
ENDROOT
BRANCH   1  11
ATOM      7  C   UNL     1       1.531   3.990  19.898  0.00  0.00    +0.000 A 
ATOM      8  C   UNL     1       2.005   3.669  18.626  0.00  0.00    +0.000 A 
ATOM      9  C   UNL     1       2.456   4.671  17.775  0.00  0.00    +0.000 A 
ATOM     10  C   UNL     1       2.444   5.999  18.203  0.00  0.00    +0.000 A 
ATOM     11  C   UNL     1       1.984   6.356  19.481  0.00  0.00    +0.000 A 
ATOM     12  C   UNL     1       1.514   5.328  20.310  0.00  0.00    +0.000 A 
BRANCH   7  14
ATOM     13  C   UNL     1       1.822   2.696  21.870  0.00  0.00    +0.000 C 
ATOM     14  O   UNL     1       1.126   2.919  20.651  0.00  0.00    +0.000 OA
ENDBRANCH   7  14
ENDBRANCH   1  11
BRANCH   4  15
ATOM     15  C   UNL     1       1.147  11.043  20.794  0.00  0.00    +0.000 C 
BRANCH  15  16
ATOM     16  C   UNL     1       0.681  12.508  20.644  0.00  0.00    +0.000 C 
BRANCH  16  17
ATOM     17  N   UNL     1      -0.769  12.648  20.780  0.00  0.00    +0.000 N 
ATOM     18  C   UNL     1      -1.512  12.799  19.608  0.00  0.00    +0.000 A 
ATOM     19  O   UNL     1      -1.008  12.845  18.485  0.00  0.00    +0.000 OA
ATOM     20  N   UNL     1      -2.877  12.903  19.734  0.00  0.00    +0.000 N 
ATOM     21  C   UNL     1      -3.504  12.879  20.956  0.00  0.00    +0.000 A 
ATOM     22  C   UNL     1      -4.892  12.972  21.226  0.00  0.00    +0.000 A 
ATOM     23  C   UNL     1      -5.141  12.913  22.583  0.00  0.00    +0.000 A 
ATOM     24  S   UNL     1      -3.696  12.745  23.499  0.00  0.00    +0.000 S 
ATOM     25  C   UNL     1      -2.750  12.755  22.091  0.00  0.00    +0.000 A 
ATOM     26  C   UNL     1      -1.312  12.644  22.074  0.00  0.00    +0.000 A 
ATOM     27  O   UNL     1      -0.619  12.554  23.085  0.00  0.00    +0.000 OA
ATOM     28  H   UNL     1      -3.412  12.998  18.884  0.00  0.00    +0.000 HD
ENDBRANCH  16  17
ENDBRANCH  15  16
ENDBRANCH   4  15
TORSDOF 5
ENDMDL
MODEL 5
REMARK VINA RESULT:      -7.2      4.499      7.377
REMARK  Name = 
REMARK  6 active torsions:
REMARK  status: ('A' for Active; 'I' for Inactive)
REMARK    1  A    between atoms: C_1  and  O_2
REMARK    2  A    between atoms: O_2  and  C_3
REMARK    3  A    between atoms: C_7  and  N_8
REMARK    4  A    between atoms: N_11  and  C_12
REMARK    5  A    between atoms: C_12  and  C_13
REMARK    6  A    between atoms: C_13  and  N_14
REMARK                            x       y       z     vdW  Elec       q    Type
REMARK                         _______ _______ _______ _____ _____    ______ ____
ROOT
ATOM      1  N   UNL     1       2.070   7.635  19.789  0.00  0.00    +0.000 N 
ATOM      2  C   UNL     1       2.173   8.487  18.592  0.00  0.00    +0.000 C 
ATOM      3  C   UNL     1       0.875   9.286  18.343  0.00  0.00    +0.000 C 
ATOM      4  N   UNL     1       0.397  10.068  19.511  0.00  0.00    +0.000 NA
ATOM      5  C   UNL     1       0.205   9.092  20.618  0.00  0.00    +0.000 C 
ATOM      6  C   UNL     1       1.457   8.253  20.983  0.00  0.00    +0.000 C 
ENDROOT
BRANCH   1  11
ATOM      7  C   UNL     1       2.373   4.154  18.490  0.00  0.00    +0.000 A 
ATOM      8  C   UNL     1       1.815   3.441  19.551  0.00  0.00    +0.000 A 
ATOM      9  C   UNL     1       1.363   4.112  20.682  0.00  0.00    +0.000 A 
ATOM     10  C   UNL     1       1.459   5.502  20.745  0.00  0.00    +0.000 A 
ATOM     11  C   UNL     1       2.005   6.250  19.691  0.00  0.00    +0.000 A 
ATOM     12  C   UNL     1       2.474   5.547  18.572  0.00  0.00    +0.000 A 
BRANCH   7  14
ATOM     13  C   UNL     1       3.121   2.037  17.707  0.00  0.00    +0.000 C 
ATOM     14  O   UNL     1       2.771   3.387  17.426  0.00  0.00    +0.000 OA
ENDBRANCH   7  14
ENDBRANCH   1  11
BRANCH   4  15
ATOM     15  C   UNL     1       1.336  11.139  19.918  0.00  0.00    +0.000 C 
BRANCH  15  16
ATOM     16  C   UNL     1       0.781  12.573  19.771  0.00  0.00    +0.000 C 
BRANCH  16  17
ATOM     17  N   UNL     1      -0.640  12.657  20.109  0.00  0.00    +0.000 N 
ATOM     18  C   UNL     1      -1.553  12.643  19.054  0.00  0.00    +0.000 A 
ATOM     19  O   UNL     1      -1.221  12.590  17.869  0.00  0.00    +0.000 OA
ATOM     20  N   UNL     1      -2.889  12.695  19.374  0.00  0.00    +0.000 N 
ATOM     21  C   UNL     1      -3.330  12.775  20.672  0.00  0.00    +0.000 A 
ATOM     22  C   UNL     1      -4.666  12.831  21.138  0.00  0.00    +0.000 A 
ATOM     23  C   UNL     1      -4.712  12.908  22.516  0.00  0.00    +0.000 A 
ATOM     24  S   UNL     1      -3.142  12.911  23.215  0.00  0.00    +0.000 S 
ATOM     25  C   UNL     1      -2.413  12.812  21.687  0.00  0.00    +0.000 A 
ATOM     26  C   UNL     1      -0.989  12.769  21.465  0.00  0.00    +0.000 A 
ATOM     27  O   UNL     1      -0.152  12.824  22.363  0.00  0.00    +0.000 OA
ATOM     28  H   UNL     1      -3.547  12.670  18.609  0.00  0.00    +0.000 HD
ENDBRANCH  16  17
ENDBRANCH  15  16
ENDBRANCH   4  15
TORSDOF 5
ENDMDL
MODEL 6
REMARK VINA RESULT:      -7.2      1.029      1.826
REMARK  Name = 
REMARK  6 active torsions:
REMARK  status: ('A' for Active; 'I' for Inactive)
REMARK    1  A    between atoms: C_1  and  O_2
REMARK    2  A    between atoms: O_2  and  C_3
REMARK    3  A    between atoms: C_7  and  N_8
REMARK    4  A    between atoms: N_11  and  C_12
REMARK    5  A    between atoms: C_12  and  C_13
REMARK    6  A    between atoms: C_13  and  N_14
REMARK                            x       y       z     vdW  Elec       q    Type
REMARK                         _______ _______ _______ _____ _____    ______ ____
ROOT
ATOM      1  N   UNL     1       5.531   5.175  15.749  0.00  0.00    +0.000 N 
ATOM      2  C   UNL     1       4.356   4.515  16.344  0.00  0.00    +0.000 C 
ATOM      3  C   UNL     1       4.736   3.678  17.586  0.00  0.00    +0.000 C 
ATOM      4  N   UNL     1       5.508   4.417  18.616  0.00  0.00    +0.000 NA
ATOM      5  C   UNL     1       6.730   4.928  17.938  0.00  0.00    +0.000 C 
ATOM      6  C   UNL     1       6.471   5.815  16.692  0.00  0.00    +0.000 C 
ENDROOT
BRANCH   1  11
ATOM      7  C   UNL     1       5.919   3.484  12.449  0.00  0.00    +0.000 A 
ATOM      8  C   UNL     1       7.156   3.991  12.053  0.00  0.00    +0.000 A 
ATOM      9  C   UNL     1       7.837   4.890  12.866  0.00  0.00    +0.000 A 
ATOM     10  C   UNL     1       7.281   5.274  14.086  0.00  0.00    +0.000 A 
ATOM     11  C   UNL     1       6.042   4.776  14.520  0.00  0.00    +0.000 A 
ATOM     12  C   UNL     1       5.368   3.888  13.670  0.00  0.00    +0.000 A 
BRANCH   7  14
ATOM     13  C   UNL     1       4.064   2.933  11.068  0.00  0.00    +0.000 C 
ATOM     14  O   UNL     1       5.351   2.597  11.572  0.00  0.00    +0.000 OA
ENDBRANCH   7  14
ENDBRANCH   1  11
BRANCH   4  15
ATOM     15  C   UNL     1       4.746   5.532  19.226  0.00  0.00    +0.000 C 
BRANCH  15  16
ATOM     16  C   UNL     1       3.222   5.483  18.977  0.00  0.00    +0.000 C 
BRANCH  16  17
ATOM     17  N   UNL     1       2.587   6.788  19.155  0.00  0.00    +0.000 N 
ATOM     18  C   UNL     1       2.779   7.739  18.151  0.00  0.00    +0.000 A 
ATOM     19  O   UNL     1       3.469   7.540  17.150  0.00  0.00    +0.000 OA
ATOM     20  N   UNL     1       2.159   8.956  18.305  0.00  0.00    +0.000 N 
ATOM     21  C   UNL     1       1.390   9.253  19.404  0.00  0.00    +0.000 A 
ATOM     22  C   UNL     1       0.698  10.457  19.685  0.00  0.00    +0.000 A 
ATOM     23  C   UNL     1       0.033  10.379  20.893  0.00  0.00    +0.000 A 
ATOM     24  S   UNL     1       0.259   8.858  21.659  0.00  0.00    +0.000 S 
ATOM     25  C   UNL     1       1.238   8.312  20.386  0.00  0.00    +0.000 A 
ATOM     26  C   UNL     1       1.847   7.006  20.328  0.00  0.00    +0.000 A 
ATOM     27  O   UNL     1       1.738   6.158  21.211  0.00  0.00    +0.000 OA
ATOM     28  H   UNL     1       2.288   9.636  17.571  0.00  0.00    +0.000 HD
ENDBRANCH  16  17
ENDBRANCH  15  16
ENDBRANCH   4  15
TORSDOF 5
ENDMDL
MODEL 7
REMARK VINA RESULT:      -7.1      4.952      7.972
REMARK  Name = 
REMARK  6 active torsions:
REMARK  status: ('A' for Active; 'I' for Inactive)
REMARK    1  A    between atoms: C_1  and  O_2
REMARK    2  A    between atoms: O_2  and  C_3
REMARK    3  A    between atoms: C_7  and  N_8
REMARK    4  A    between atoms: N_11  and  C_12
REMARK    5  A    between atoms: C_12  and  C_13
REMARK    6  A    between atoms: C_13  and  N_14
REMARK                            x       y       z     vdW  Elec       q    Type
REMARK                         _______ _______ _______ _____ _____    ______ ____
ROOT
ATOM      1  N   UNL     1       1.913   8.334  19.571  0.00  0.00    +0.000 N 
ATOM      2  C   UNL     1       1.826   9.193  18.378  0.00  0.00    +0.000 C 
ATOM      3  C   UNL     1       0.419   9.806  18.213  0.00  0.00    +0.000 C 
ATOM      4  N   UNL     1      -0.092  10.514  19.414  0.00  0.00    +0.000 NA
ATOM      5  C   UNL     1      -0.083   9.519  20.521  0.00  0.00    +0.000 C 
ATOM      6  C   UNL     1       1.293   8.860  20.805  0.00  0.00    +0.000 C 
ENDROOT
BRANCH   1  11
ATOM      7  C   UNL     1       1.895   4.698  20.396  0.00  0.00    +0.000 A 
ATOM      8  C   UNL     1       2.330   4.165  19.183  0.00  0.00    +0.000 A 
ATOM      9  C   UNL     1       2.607   5.003  18.109  0.00  0.00    +0.000 A 
ATOM     10  C   UNL     1       2.459   6.382  18.255  0.00  0.00    +0.000 A 
ATOM     11  C   UNL     1       2.033   6.953  19.465  0.00  0.00    +0.000 A 
ATOM     12  C   UNL     1       1.739   6.083  20.523  0.00  0.00    +0.000 A 
BRANCH   7  14
ATOM     13  C   UNL     1       2.578   2.687  21.464  0.00  0.00    +0.000 C 
ATOM     14  O   UNL     1       1.666   3.775  21.383  0.00  0.00    +0.000 OA
ENDBRANCH   7  14
ENDBRANCH   1  11
BRANCH   4  15
ATOM     15  C   UNL     1       0.714  11.703  19.775  0.00  0.00    +0.000 C 
BRANCH  15  16
ATOM     16  C   UNL     1      -0.063  13.038  19.752  0.00  0.00    +0.000 C 
BRANCH  16  17
ATOM     17  N   UNL     1      -0.902  13.215  20.938  0.00  0.00    +0.000 N 
ATOM     18  C   UNL     1      -0.279  13.665  22.103  0.00  0.00    +0.000 A 
ATOM     19  O   UNL     1       0.929  13.891  22.185  0.00  0.00    +0.000 OA
ATOM     20  N   UNL     1      -1.072  13.857  23.209  0.00  0.00    +0.000 N 
ATOM     21  C   UNL     1      -2.423  13.607  23.196  0.00  0.00    +0.000 A 
ATOM     22  C   UNL     1      -3.350  13.764  24.255  0.00  0.00    +0.000 A 
ATOM     23  C   UNL     1      -4.624  13.408  23.860  0.00  0.00    +0.000 A 
ATOM     24  S   UNL     1      -4.672  12.892  22.221  0.00  0.00    +0.000 S 
ATOM     25  C   UNL     1      -3.004  13.143  22.047  0.00  0.00    +0.000 A 
ATOM     26  C   UNL     1      -2.266  12.902  20.832  0.00  0.00    +0.000 A 
ATOM     27  O   UNL     1      -2.768  12.464  19.799  0.00  0.00    +0.000 OA
ATOM     28  H   UNL     1      -0.622  14.196  24.046  0.00  0.00    +0.000 HD
ENDBRANCH  16  17
ENDBRANCH  15  16
ENDBRANCH   4  15
TORSDOF 5
ENDMDL
MODEL 8
REMARK VINA RESULT:      -7.0      4.904      8.136
REMARK  Name = 
REMARK  6 active torsions:
REMARK  status: ('A' for Active; 'I' for Inactive)
REMARK    1  A    between atoms: C_1  and  O_2
REMARK    2  A    between atoms: O_2  and  C_3
REMARK    3  A    between atoms: C_7  and  N_8
REMARK    4  A    between atoms: N_11  and  C_12
REMARK    5  A    between atoms: C_12  and  C_13
REMARK    6  A    between atoms: C_13  and  N_14
REMARK                            x       y       z     vdW  Elec       q    Type
REMARK                         _______ _______ _______ _____ _____    ______ ____
ROOT
ATOM      1  N   UNL     1       0.890   8.678  20.083  0.00  0.00    +0.000 N 
ATOM      2  C   UNL     1       0.639   8.465  21.519  0.00  0.00    +0.000 C 
ATOM      3  C   UNL     1       1.114   9.664  22.369  0.00  0.00    +0.000 C 
ATOM      4  N   UNL     1       0.588  10.980  21.928  0.00  0.00    +0.000 NA
ATOM      5  C   UNL     1       1.009  11.146  20.510  0.00  0.00    +0.000 C 
ATOM      6  C   UNL     1       0.555  10.014  19.550  0.00  0.00    +0.000 C 
ENDROOT
BRANCH   1  11
ATOM      7  C   UNL     1       3.369   6.042  19.186  0.00  0.00    +0.000 A 
ATOM      8  C   UNL     1       3.830   6.537  17.967  0.00  0.00    +0.000 A 
ATOM      9  C   UNL     1       3.310   7.719  17.450  0.00  0.00    +0.000 A 
ATOM     10  C   UNL     1       2.333   8.412  18.163  0.00  0.00    +0.000 A 
ATOM     11  C   UNL     1       1.854   7.948  19.399  0.00  0.00    +0.000 A 
ATOM     12  C   UNL     1       2.380   6.742  19.885  0.00  0.00    +0.000 A 
BRANCH   7  14
ATOM     13  C   UNL     1       3.968   3.799  18.672  0.00  0.00    +0.000 C 
ATOM     14  O   UNL     1       3.965   4.879  19.599  0.00  0.00    +0.000 OA
ENDBRANCH   7  14
ENDBRANCH   1  11
BRANCH   4  15
ATOM     15  C   UNL     1      -0.884  11.089  22.050  0.00  0.00    +0.000 C 
BRANCH  15  16
ATOM     16  C   UNL     1      -1.445  12.513  21.840  0.00  0.00    +0.000 C 
BRANCH  16  17
ATOM     17  N   UNL     1      -2.889  12.513  21.603  0.00  0.00    +0.000 N 
ATOM     18  C   UNL     1      -3.723  12.559  22.721  0.00  0.00    +0.000 A 
ATOM     19  O   UNL     1      -3.306  12.572  23.880  0.00  0.00    +0.000 OA
ATOM     20  N   UNL     1      -5.079  12.587  22.497  0.00  0.00    +0.000 N 
ATOM     21  C   UNL     1      -5.614  12.556  21.233  0.00  0.00    +0.000 A 
ATOM     22  C   UNL     1      -6.981  12.583  20.863  0.00  0.00    +0.000 A 
ATOM     23  C   UNL     1      -7.128  12.533  19.491  0.00  0.00    +0.000 A 
ATOM     24  S   UNL     1      -5.615  12.455  18.681  0.00  0.00    +0.000 S 
ATOM     25  C   UNL     1      -4.775  12.486  20.155  0.00  0.00    +0.000 A 
ATOM     26  C   UNL     1      -3.338  12.446  20.275  0.00  0.00    +0.000 A 
ATOM     27  O   UNL     1      -2.571  12.361  19.318  0.00  0.00    +0.000 OA
ATOM     28  H   UNL     1      -5.679  12.635  23.307  0.00  0.00    +0.000 HD
ENDBRANCH  16  17
ENDBRANCH  15  16
ENDBRANCH   4  15
TORSDOF 5
ENDMDL
MODEL 9
REMARK VINA RESULT:      -7.0      4.567      7.524
REMARK  Name = 
REMARK  6 active torsions:
REMARK  status: ('A' for Active; 'I' for Inactive)
REMARK    1  A    between atoms: C_1  and  O_2
REMARK    2  A    between atoms: O_2  and  C_3
REMARK    3  A    between atoms: C_7  and  N_8
REMARK    4  A    between atoms: N_11  and  C_12
REMARK    5  A    between atoms: C_12  and  C_13
REMARK    6  A    between atoms: C_13  and  N_14
REMARK                            x       y       z     vdW  Elec       q    Type
REMARK                         _______ _______ _______ _____ _____    ______ ____
ROOT
ATOM      1  N   UNL     1       2.226   7.786  19.412  0.00  0.00    +0.000 N 
ATOM      2  C   UNL     1       2.303   8.499  18.126  0.00  0.00    +0.000 C 
ATOM      3  C   UNL     1       1.009   9.287  17.827  0.00  0.00    +0.000 C 
ATOM      4  N   UNL     1       0.577  10.200  18.915  0.00  0.00    +0.000 NA
ATOM      5  C   UNL     1       0.406   9.355  20.128  0.00  0.00    +0.000 C 
ATOM      6  C   UNL     1       1.658   8.541  20.548  0.00  0.00    +0.000 C 
ENDROOT
BRANCH   1  11
ATOM      7  C   UNL     1       2.430   4.179  18.491  0.00  0.00    +0.000 A 
ATOM      8  C   UNL     1       1.911   3.596  19.647  0.00  0.00    +0.000 A 
ATOM      9  C   UNL     1       1.517   4.393  20.716  0.00  0.00    +0.000 A 
ATOM     10  C   UNL     1       1.633   5.780  20.622  0.00  0.00    +0.000 A 
ATOM     11  C   UNL     1       2.141   6.400  19.469  0.00  0.00    +0.000 A 
ATOM     12  C   UNL     1       2.551   5.571  18.416  0.00  0.00    +0.000 A 
BRANCH   7  14
ATOM     13  C   UNL     1       2.837   1.921  17.868  0.00  0.00    +0.000 C 
ATOM     14  O   UNL     1       2.771   3.294  17.502  0.00  0.00    +0.000 OA
ENDBRANCH   7  14
ENDBRANCH   1  11
BRANCH   4  15
ATOM     15  C   UNL     1       1.542  11.294  19.174  0.00  0.00    +0.000 C 
BRANCH  15  16
ATOM     16  C   UNL     1       1.109  12.287  20.275  0.00  0.00    +0.000 C 
BRANCH  16  17
ATOM     17  N   UNL     1       0.703  13.582  19.729  0.00  0.00    +0.000 N 
ATOM     18  C   UNL     1      -0.666  13.822  19.596  0.00  0.00    +0.000 A 
ATOM     19  O   UNL     1      -1.532  12.997  19.889  0.00  0.00    +0.000 OA
ATOM     20  N   UNL     1      -1.048  15.049  19.108  0.00  0.00    +0.000 N 
ATOM     21  C   UNL     1      -0.136  16.009  18.744  0.00  0.00    +0.000 A 
ATOM     22  C   UNL     1      -0.392  17.306  18.235  0.00  0.00    +0.000 A 
ATOM     23  C   UNL     1       0.785  17.984  17.981  0.00  0.00    +0.000 A 
ATOM     24  S   UNL     1       2.169  17.040  18.364  0.00  0.00    +0.000 S 
ATOM     25  C   UNL     1       1.200  15.740  18.861  0.00  0.00    +0.000 A 
ATOM     26  C   UNL     1       1.711  14.485  19.355  0.00  0.00    +0.000 A 
ATOM     27  O   UNL     1       2.907  14.218  19.446  0.00  0.00    +0.000 OA
ATOM     28  H   UNL     1      -2.038  15.225  19.027  0.00  0.00    +0.000 HD
ENDBRANCH  16  17
ENDBRANCH  15  16
ENDBRANCH   4  15
TORSDOF 5
ENDMDL
