MODEL 1
REMARK VINA RESULT:      -8.5      0.000      0.000
REMARK  Name = 
REMARK  6 active torsions:
REMARK  status: ('A' for Active; 'I' for Inactive)
REMARK    1  A    between atoms: C_2  and  C_3
REMARK    2  A    between atoms: C_3  and  C_4
REMARK    3  A    between atoms: C_4  and  N_5
REMARK    4  A    between atoms: N_20  and  C_21
REMARK    5  A    between atoms: C_21  and  C_22
REMARK    6  A    between atoms: C_22  and  C_23
REMARK                            x       y       z     vdW  Elec       q    Type
REMARK                         _______ _______ _______ _____ _____    ______ ____
ROOT
ATOM      1  N   UNL     1       6.496   4.777  17.614  0.00  0.00    +0.000 N 
ATOM      2  C   UNL     1       5.992   4.562  16.332  0.00  0.00    +0.000 A 
ATOM      3  S   UNL     1       6.809   4.761  14.880  0.00  0.00    +0.000 S 
ATOM      4  N   UNL     1       4.693   4.137  16.235  0.00  0.00    +0.000 N 
ATOM      5  C   UNL     1       3.876   3.857  17.328  0.00  0.00    +0.000 A 
ATOM      6  C   UNL     1       2.594   3.338  17.123  0.00  0.00    +0.000 A 
ATOM      7  C   UNL     1       1.855   3.020  18.245  0.00  0.00    +0.000 A 
ATOM      8  C   UNL     1       2.340   3.222  19.517  0.00  0.00    +0.000 A 
ATOM      9  C   UNL     1       3.586   3.764  19.742  0.00  0.00    +0.000 A 
ATOM     10  C   UNL     1       4.363   4.077  18.621  0.00  0.00    +0.000 A 
ATOM     11  C   UNL     1       5.720   4.633  18.775  0.00  0.00    +0.000 A 
ATOM     12  O   UNL     1       6.101   4.953  19.899  0.00  0.00    +0.000 OA
ATOM     13  O   UNL     1       1.462   2.821  20.474  0.00  0.00    +0.000 OA
ATOM     14  C   UNL     1       0.399   2.281  19.664  0.00  0.00    +0.000 C 
ATOM     15  O   UNL     1       0.611   2.469  18.247  0.00  0.00    +0.000 OA
ATOM     16  H   UNL     1       4.348   3.969  15.296  0.00  0.00    +0.000 HD
ENDROOT
BRANCH   1  17
ATOM     17  C   UNL     1       7.887   5.212  17.847  0.00  0.00    +0.000 C 
BRANCH  17  18
ATOM     18  C   UNL     1       7.972   6.430  18.765  0.00  0.00    +0.000 C 
BRANCH  18  20
ATOM     19  O   UNL     1       7.358   7.821  16.883  0.00  0.00    +0.000 OA
ATOM     20  C   UNL     1       7.920   7.718  17.967  0.00  0.00    +0.000 C 
ATOM     21  N   UNL     1       8.572   8.768  18.581  0.00  0.00    +0.000 N 
ATOM     22  H   UNL     1       8.996   8.621  19.488  0.00  0.00    +0.000 HD
BRANCH  21  23
ATOM     23  C   UNL     1       8.613  10.091  17.977  0.00  0.00    +0.000 C 
BRANCH  23  24
ATOM     24  C   UNL     1       9.842  10.883  18.426  0.00  0.00    +0.000 C 
BRANCH  24  25
ATOM     25  C   UNL     1       9.522  12.315  18.791  0.00  0.00    +0.000 A 
ATOM     26  C   UNL     1       9.574  13.298  17.785  0.00  0.00    +0.000 A 
ATOM     27  C   UNL     1       9.306  14.636  18.075  0.00  0.00    +0.000 A 
ATOM     28  C   UNL     1       8.975  15.018  19.372  0.00  0.00    +0.000 A 
ATOM     29  C   UNL     1       8.902  14.056  20.378  0.00  0.00    +0.000 A 
ATOM     30  C   UNL     1       9.168  12.713  20.091  0.00  0.00    +0.000 A 
ATOM     31 CL   UNL     1       9.050  11.581  21.392  0.00  0.00    +0.000 Cl
ENDBRANCH  24  25
ENDBRANCH  23  24
ENDBRANCH  21  23
ENDBRANCH  18  20
ENDBRANCH  17  18
ENDBRANCH   1  17
TORSDOF 6
ENDMDL
MODEL 2
REMARK VINA RESULT:      -8.4      6.301      6.963
REMARK  Name = 
REMARK  6 active torsions:
REMARK  status: ('A' for Active; 'I' for Inactive)
REMARK    1  A    between atoms: C_2  and  C_3
REMARK    2  A    between atoms: C_3  and  C_4
REMARK    3  A    between atoms: C_4  and  N_5
REMARK    4  A    between atoms: N_20  and  C_21
REMARK    5  A    between atoms: C_21  and  C_22
REMARK    6  A    between atoms: C_22  and  C_23
REMARK                            x       y       z     vdW  Elec       q    Type
REMARK                         _______ _______ _______ _____ _____    ______ ____
ROOT
ATOM      1  N   UNL     1       1.721   8.597  19.230  0.00  0.00    +0.000 N 
ATOM      2  C   UNL     1       1.472   8.223  20.550  0.00  0.00    +0.000 A 
ATOM      3  S   UNL     1       0.803   9.174  21.760  0.00  0.00    +0.000 S 
ATOM      4  N   UNL     1       1.800   6.941  20.908  0.00  0.00    +0.000 N 
ATOM      5  C   UNL     1       2.306   5.987  20.030  0.00  0.00    +0.000 A 
ATOM      6  C   UNL     1       2.520   4.678  20.472  0.00  0.00    +0.000 A 
ATOM      7  C   UNL     1       2.962   3.760  19.540  0.00  0.00    +0.000 A 
ATOM      8  C   UNL     1       3.209   4.113  18.232  0.00  0.00    +0.000 A 
ATOM      9  C   UNL     1       3.039   5.403  17.783  0.00  0.00    +0.000 A 
ATOM     10  C   UNL     1       2.572   6.348  18.705  0.00  0.00    +0.000 A 
ATOM     11  C   UNL     1       2.334   7.745  18.297  0.00  0.00    +0.000 A 
ATOM     12  O   UNL     1       2.691   8.100  17.175  0.00  0.00    +0.000 OA
ATOM     13  O   UNL     1       3.615   3.055  17.481  0.00  0.00    +0.000 OA
ATOM     14  C   UNL     1       3.530   1.985  18.443  0.00  0.00    +0.000 C 
ATOM     15  O   UNL     1       3.185   2.438  19.770  0.00  0.00    +0.000 OA
ATOM     16  H   UNL     1       1.596   6.681  21.868  0.00  0.00    +0.000 HD
ENDROOT
BRANCH   1  17
ATOM     17  C   UNL     1       1.391   9.942  18.721  0.00  0.00    +0.000 C 
BRANCH  17  18
ATOM     18  C   UNL     1      -0.056  10.045  18.238  0.00  0.00    +0.000 C 
BRANCH  18  20
ATOM     19  O   UNL     1      -1.706  11.310  19.478  0.00  0.00    +0.000 OA
ATOM     20  C   UNL     1      -0.713  11.308  18.758  0.00  0.00    +0.000 C 
ATOM     21  N   UNL     1      -0.083  12.462  18.341  0.00  0.00    +0.000 N 
ATOM     22  H   UNL     1       0.747  12.390  17.767  0.00  0.00    +0.000 HD
BRANCH  21  23
ATOM     23  C   UNL     1      -0.556  13.775  18.754  0.00  0.00    +0.000 C 
BRANCH  23  24
ATOM     24  C   UNL     1       0.499  14.532  19.561  0.00  0.00    +0.000 C 
BRANCH  24  25
ATOM     25  C   UNL     1       1.364  15.432  18.708  0.00  0.00    +0.000 A 
ATOM     26  C   UNL     1       0.924  16.743  18.445  0.00  0.00    +0.000 A 
ATOM     27  C   UNL     1       1.677  17.606  17.647  0.00  0.00    +0.000 A 
ATOM     28  C   UNL     1       2.885  17.178  17.102  0.00  0.00    +0.000 A 
ATOM     29  C   UNL     1       3.344  15.889  17.366  0.00  0.00    +0.000 A 
ATOM     30  C   UNL     1       2.594  15.022  18.167  0.00  0.00    +0.000 A 
ATOM     31 CL   UNL     1       3.236  13.443  18.451  0.00  0.00    +0.000 Cl
ENDBRANCH  24  25
ENDBRANCH  23  24
ENDBRANCH  21  23
ENDBRANCH  18  20
ENDBRANCH  17  18
ENDBRANCH   1  17
TORSDOF 6
ENDMDL
MODEL 3
REMARK VINA RESULT:      -8.4      1.808      2.202
REMARK  Name = 
REMARK  6 active torsions:
REMARK  status: ('A' for Active; 'I' for Inactive)
REMARK    1  A    between atoms: C_2  and  C_3
REMARK    2  A    between atoms: C_3  and  C_4
REMARK    3  A    between atoms: C_4  and  N_5
REMARK    4  A    between atoms: N_20  and  C_21
REMARK    5  A    between atoms: C_21  and  C_22
REMARK    6  A    between atoms: C_22  and  C_23
REMARK                            x       y       z     vdW  Elec       q    Type
REMARK                         _______ _______ _______ _____ _____    ______ ____
ROOT
ATOM      1  N   UNL     1       5.055   5.594  16.743  0.00  0.00    +0.000 N 
ATOM      2  C   UNL     1       5.196   4.293  16.262  0.00  0.00    +0.000 A 
ATOM      3  S   UNL     1       6.130   3.793  14.960  0.00  0.00    +0.000 S 
ATOM      4  N   UNL     1       4.506   3.307  16.917  0.00  0.00    +0.000 N 
ATOM      5  C   UNL     1       3.730   3.517  18.054  0.00  0.00    +0.000 A 
ATOM      6  C   UNL     1       3.140   2.428  18.705  0.00  0.00    +0.000 A 
ATOM      7  C   UNL     1       2.436   2.691  19.863  0.00  0.00    +0.000 A 
ATOM      8  C   UNL     1       2.291   3.969  20.354  0.00  0.00    +0.000 A 
ATOM      9  C   UNL     1       2.833   5.059  19.710  0.00  0.00    +0.000 A 
ATOM     10  C   UNL     1       3.569   4.817  18.544  0.00  0.00    +0.000 A 
ATOM     11  C   UNL     1       4.208   5.927  17.812  0.00  0.00    +0.000 A 
ATOM     12  O   UNL     1       3.961   7.080  18.159  0.00  0.00    +0.000 OA
ATOM     13  O   UNL     1       1.582   4.000  21.513  0.00  0.00    +0.000 OA
ATOM     14  C   UNL     1       1.354   2.593  21.734  0.00  0.00    +0.000 C 
ATOM     15  O   UNL     1       1.832   1.763  20.653  0.00  0.00    +0.000 OA
ATOM     16  H   UNL     1       4.633   2.364  16.565  0.00  0.00    +0.000 HD
ENDROOT
BRANCH   1  17
ATOM     17  C   UNL     1       5.766   6.735  16.135  0.00  0.00    +0.000 C 
BRANCH  17  18
ATOM     18  C   UNL     1       7.281   6.643  16.313  0.00  0.00    +0.000 C 
BRANCH  18  20
ATOM     19  O   UNL     1       7.822   6.769  18.668  0.00  0.00    +0.000 OA
ATOM     20  C   UNL     1       7.722   7.337  17.587  0.00  0.00    +0.000 C 
ATOM     21  N   UNL     1       8.001   8.676  17.409  0.00  0.00    +0.000 N 
ATOM     22  H   UNL     1       7.921   9.078  16.484  0.00  0.00    +0.000 HD
BRANCH  21  23
ATOM     23  C   UNL     1       8.459   9.507  18.514  0.00  0.00    +0.000 C 
BRANCH  23  24
ATOM     24  C   UNL     1       9.481  10.548  18.057  0.00  0.00    +0.000 C 
BRANCH  24  25
ATOM     25  C   UNL     1       9.760  11.602  19.104  0.00  0.00    +0.000 A 
ATOM     26  C   UNL     1       9.515  11.295  20.456  0.00  0.00    +0.000 A 
ATOM     27  C   UNL     1       9.738  12.240  21.458  0.00  0.00    +0.000 A 
ATOM     28  C   UNL     1      10.215  13.507  21.131  0.00  0.00    +0.000 A 
ATOM     29  C   UNL     1      10.479  13.823  19.800  0.00  0.00    +0.000 A 
ATOM     30  C   UNL     1      10.259  12.878  18.792  0.00  0.00    +0.000 A 
ATOM     31 CL   UNL     1      10.618  13.346  17.168  0.00  0.00    +0.000 Cl
ENDBRANCH  24  25
ENDBRANCH  23  24
ENDBRANCH  21  23
ENDBRANCH  18  20
ENDBRANCH  17  18
ENDBRANCH   1  17
TORSDOF 6
ENDMDL
MODEL 4
REMARK VINA RESULT:      -8.4      7.010      7.657
REMARK  Name = 
REMARK  6 active torsions:
REMARK  status: ('A' for Active; 'I' for Inactive)
REMARK    1  A    between atoms: C_2  and  C_3
REMARK    2  A    between atoms: C_3  and  C_4
REMARK    3  A    between atoms: C_4  and  N_5
REMARK    4  A    between atoms: N_20  and  C_21
REMARK    5  A    between atoms: C_21  and  C_22
REMARK    6  A    between atoms: C_22  and  C_23
REMARK                            x       y       z     vdW  Elec       q    Type
REMARK                         _______ _______ _______ _____ _____    ______ ____
ROOT
ATOM      1  N   UNL     1       1.526   8.920  19.489  0.00  0.00    +0.000 N 
ATOM      2  C   UNL     1       1.280   8.428  20.771  0.00  0.00    +0.000 A 
ATOM      3  S   UNL     1       0.556   9.246  22.044  0.00  0.00    +0.000 S 
ATOM      4  N   UNL     1       1.663   7.138  21.027  0.00  0.00    +0.000 N 
ATOM      5  C   UNL     1       2.222   6.282  20.081  0.00  0.00    +0.000 A 
ATOM      6  C   UNL     1       2.492   4.952  20.417  0.00  0.00    +0.000 A 
ATOM      7  C   UNL     1       2.985   4.136  19.420  0.00  0.00    +0.000 A 
ATOM      8  C   UNL     1       3.229   4.605  18.149  0.00  0.00    +0.000 A 
ATOM      9  C   UNL     1       3.003   5.919  17.804  0.00  0.00    +0.000 A 
ATOM     10  C   UNL     1       2.485   6.763  18.794  0.00  0.00    +0.000 A 
ATOM     11  C   UNL     1       2.187   8.177  18.498  0.00  0.00    +0.000 A 
ATOM     12  O   UNL     1       2.538   8.639  17.414  0.00  0.00    +0.000 OA
ATOM     13  O   UNL     1       3.690   3.633  17.319  0.00  0.00    +0.000 OA
ATOM     14  C   UNL     1       3.646   2.484  18.189  0.00  0.00    +0.000 C 
ATOM     15  O   UNL     1       3.266   2.811  19.544  0.00  0.00    +0.000 OA
ATOM     16  H   UNL     1       1.462   6.790  21.959  0.00  0.00    +0.000 HD
ENDROOT
BRANCH   1  17
ATOM     17  C   UNL     1       1.139  10.286  19.086  0.00  0.00    +0.000 C 
BRANCH  17  18
ATOM     18  C   UNL     1      -0.318  10.371  18.632  0.00  0.00    +0.000 C 
BRANCH  18  20
ATOM     19  O   UNL     1      -1.729  12.189  17.883  0.00  0.00    +0.000 OA
ATOM     20  C   UNL     1      -0.783  11.813  18.564  0.00  0.00    +0.000 C 
ATOM     21  N   UNL     1      -0.033  12.665  19.349  0.00  0.00    +0.000 N 
ATOM     22  H   UNL     1       0.721  12.286  19.907  0.00  0.00    +0.000 HD
BRANCH  21  23
ATOM     23  C   UNL     1      -0.339  14.085  19.429  0.00  0.00    +0.000 C 
BRANCH  23  24
ATOM     24  C   UNL     1       0.915  14.947  19.274  0.00  0.00    +0.000 C 
BRANCH  24  25
ATOM     25  C   UNL     1       0.659  16.235  18.524  0.00  0.00    +0.000 A 
ATOM     26  C   UNL     1      -0.639  16.778  18.535  0.00  0.00    +0.000 A 
ATOM     27  C   UNL     1      -0.932  17.954  17.842  0.00  0.00    +0.000 A 
ATOM     28  C   UNL     1       0.068  18.612  17.131  0.00  0.00    +0.000 A 
ATOM     29  C   UNL     1       1.363  18.098  17.122  0.00  0.00    +0.000 A 
ATOM     30  C   UNL     1       1.661  16.921  17.817  0.00  0.00    +0.000 A 
ATOM     31 CL   UNL     1       3.292  16.353  17.762  0.00  0.00    +0.000 Cl
ENDBRANCH  24  25
ENDBRANCH  23  24
ENDBRANCH  21  23
ENDBRANCH  18  20
ENDBRANCH  17  18
ENDBRANCH   1  17
TORSDOF 6
ENDMDL
MODEL 5
REMARK VINA RESULT:      -8.4      8.965     11.306
REMARK  Name = 
REMARK  6 active torsions:
REMARK  status: ('A' for Active; 'I' for Inactive)
REMARK    1  A    between atoms: C_2  and  C_3
REMARK    2  A    between atoms: C_3  and  C_4
REMARK    3  A    between atoms: C_4  and  N_5
REMARK    4  A    between atoms: N_20  and  C_21
REMARK    5  A    between atoms: C_21  and  C_22
REMARK    6  A    between atoms: C_22  and  C_23
REMARK                            x       y       z     vdW  Elec       q    Type
REMARK                         _______ _______ _______ _____ _____    ______ ____
ROOT
ATOM      1  N   UNL     1      -0.412  12.091  20.781  0.00  0.00    +0.000 N 
ATOM      2  C   UNL     1      -0.997  12.935  19.837  0.00  0.00    +0.000 A 
ATOM      3  S   UNL     1      -0.370  13.362  18.340  0.00  0.00    +0.000 S 
ATOM      4  N   UNL     1      -2.216  13.474  20.152  0.00  0.00    +0.000 N 
ATOM      5  C   UNL     1      -2.922  13.188  21.318  0.00  0.00    +0.000 A 
ATOM      6  C   UNL     1      -4.203  13.717  21.504  0.00  0.00    +0.000 A 
ATOM      7  C   UNL     1      -4.879  13.348  22.649  0.00  0.00    +0.000 A 
ATOM      8  C   UNL     1      -4.318  12.513  23.588  0.00  0.00    +0.000 A 
ATOM      9  C   UNL     1      -3.045  12.008  23.443  0.00  0.00    +0.000 A 
ATOM     10  C   UNL     1      -2.345  12.353  22.281  0.00  0.00    +0.000 A 
ATOM     11  C   UNL     1      -0.989  11.830  22.034  0.00  0.00    +0.000 A 
ATOM     12  O   UNL     1      -0.426  11.207  22.932  0.00  0.00    +0.000 OA
ATOM     13  O   UNL     1      -5.161  12.260  24.624  0.00  0.00    +0.000 OA
ATOM     14  C   UNL     1      -6.340  12.974  24.200  0.00  0.00    +0.000 C 
ATOM     15  O   UNL     1      -6.144  13.724  22.981  0.00  0.00    +0.000 OA
ATOM     16  H   UNL     1      -2.635  14.072  19.447  0.00  0.00    +0.000 HD
ENDROOT
BRANCH   1  17
ATOM     17  C   UNL     1       0.888  11.433  20.546  0.00  0.00    +0.000 C 
BRANCH  17  18
ATOM     18  C   UNL     1       0.795  10.305  19.519  0.00  0.00    +0.000 C 
BRANCH  18  20
ATOM     19  O   UNL     1       0.958   8.641  21.269  0.00  0.00    +0.000 OA
ATOM     20  C   UNL     1       1.227   8.983  20.123  0.00  0.00    +0.000 C 
ATOM     21  N   UNL     1       1.955   8.199  19.252  0.00  0.00    +0.000 N 
ATOM     22  H   UNL     1       2.121   8.530  18.311  0.00  0.00    +0.000 HD
BRANCH  21  23
ATOM     23  C   UNL     1       2.441   6.884  19.645  0.00  0.00    +0.000 C 
BRANCH  23  24
ATOM     24  C   UNL     1       2.851   6.044  18.434  0.00  0.00    +0.000 C 
BRANCH  24  25
ATOM     25  C   UNL     1       2.392   4.607  18.527  0.00  0.00    +0.000 A 
ATOM     26  C   UNL     1       1.357   4.285  19.425  0.00  0.00    +0.000 A 
ATOM     27  C   UNL     1       0.910   2.970  19.563  0.00  0.00    +0.000 A 
ATOM     28  C   UNL     1       1.483   1.954  18.802  0.00  0.00    +0.000 A 
ATOM     29  C   UNL     1       2.498   2.257  17.896  0.00  0.00    +0.000 A 
ATOM     30  C   UNL     1       2.947   3.574  17.754  0.00  0.00    +0.000 A 
ATOM     31 CL   UNL     1       4.203   3.868  16.604  0.00  0.00    +0.000 Cl
ENDBRANCH  24  25
ENDBRANCH  23  24
ENDBRANCH  21  23
ENDBRANCH  18  20
ENDBRANCH  17  18
ENDBRANCH   1  17
TORSDOF 6
ENDMDL
MODEL 6
REMARK VINA RESULT:      -8.3      6.149      8.146
REMARK  Name = 
REMARK  6 active torsions:
REMARK  status: ('A' for Active; 'I' for Inactive)
REMARK    1  A    between atoms: C_2  and  C_3
REMARK    2  A    between atoms: C_3  and  C_4
REMARK    3  A    between atoms: C_4  and  N_5
REMARK    4  A    between atoms: N_20  and  C_21
REMARK    5  A    between atoms: C_21  and  C_22
REMARK    6  A    between atoms: C_22  and  C_23
REMARK                            x       y       z     vdW  Elec       q    Type
REMARK                         _______ _______ _______ _____ _____    ______ ____
ROOT
ATOM      1  N   UNL     1       2.252   6.219  19.200  0.00  0.00    +0.000 N 
ATOM      2  C   UNL     1       2.255   4.852  19.474  0.00  0.00    +0.000 A 
ATOM      3  S   UNL     1       1.297   4.044  20.590  0.00  0.00    +0.000 S 
ATOM      4  N   UNL     1       3.125   4.073  18.757  0.00  0.00    +0.000 N 
ATOM      5  C   UNL     1       3.954   4.552  17.745  0.00  0.00    +0.000 A 
ATOM      6  C   UNL     1       4.739   3.660  17.008  0.00  0.00    +0.000 A 
ATOM      7  C   UNL     1       5.491   4.185  15.976  0.00  0.00    +0.000 A 
ATOM      8  C   UNL     1       5.496   5.532  15.690  0.00  0.00    +0.000 A 
ATOM      9  C   UNL     1       4.758   6.433  16.425  0.00  0.00    +0.000 A 
ATOM     10  C   UNL     1       3.971   5.923  17.465  0.00  0.00    +0.000 A 
ATOM     11  C   UNL     1       3.129   6.817  18.280  0.00  0.00    +0.000 A 
ATOM     12  O   UNL     1       3.240   8.031  18.129  0.00  0.00    +0.000 OA
ATOM     13  O   UNL     1       6.285   5.830  14.625  0.00  0.00    +0.000 OA
ATOM     14  C   UNL     1       6.723   4.515  14.229  0.00  0.00    +0.000 C 
ATOM     15  O   UNL     1       6.279   3.474  15.126  0.00  0.00    +0.000 OA
ATOM     16  H   UNL     1       3.102   3.079  18.957  0.00  0.00    +0.000 HD
ENDROOT
BRANCH   1  17
ATOM     17  C   UNL     1       1.343   7.155  19.891  0.00  0.00    +0.000 C 
BRANCH  17  18
ATOM     18  C   UNL     1       1.882   7.597  21.250  0.00  0.00    +0.000 C 
BRANCH  18  20
ATOM     19  O   UNL     1       1.684   9.608  22.583  0.00  0.00    +0.000 OA
ATOM     20  C   UNL     1       1.231   8.891  21.698  0.00  0.00    +0.000 C 
ATOM     21  N   UNL     1       0.073   9.185  21.009  0.00  0.00    +0.000 N 
ATOM     22  H   UNL     1      -0.234   8.563  20.272  0.00  0.00    +0.000 HD
BRANCH  21  23
ATOM     23  C   UNL     1      -0.685  10.397  21.284  0.00  0.00    +0.000 C 
BRANCH  23  24
ATOM     24  C   UNL     1      -0.562  11.415  20.149  0.00  0.00    +0.000 C 
BRANCH  24  25
ATOM     25  C   UNL     1      -1.527  11.157  19.015  0.00  0.00    +0.000 A 
ATOM     26  C   UNL     1      -2.809  11.736  19.072  0.00  0.00    +0.000 A 
ATOM     27  C   UNL     1      -3.744  11.512  18.060  0.00  0.00    +0.000 A 
ATOM     28  C   UNL     1      -3.415  10.711  16.970  0.00  0.00    +0.000 A 
ATOM     29  C   UNL     1      -2.145  10.142  16.888  0.00  0.00    +0.000 A 
ATOM     30  C   UNL     1      -1.205  10.366  17.900  0.00  0.00    +0.000 A 
ATOM     31 CL   UNL     1       0.349   9.632  17.720  0.00  0.00    +0.000 Cl
ENDBRANCH  24  25
ENDBRANCH  23  24
ENDBRANCH  21  23
ENDBRANCH  18  20
ENDBRANCH  17  18
ENDBRANCH   1  17
TORSDOF 6
ENDMDL
MODEL 7
REMARK VINA RESULT:      -8.3      8.000     10.224
REMARK  Name = 
REMARK  6 active torsions:
REMARK  status: ('A' for Active; 'I' for Inactive)
REMARK    1  A    between atoms: C_2  and  C_3
REMARK    2  A    between atoms: C_3  and  C_4
REMARK    3  A    between atoms: C_4  and  N_5
REMARK    4  A    between atoms: N_20  and  C_21
REMARK    5  A    between atoms: C_21  and  C_22
REMARK    6  A    between atoms: C_22  and  C_23
REMARK                            x       y       z     vdW  Elec       q    Type
REMARK                         _______ _______ _______ _____ _____    ______ ____
ROOT
ATOM      1  N   UNL     1       1.525   8.971  19.426  0.00  0.00    +0.000 N 
ATOM      2  C   UNL     1       1.396   8.496  20.731  0.00  0.00    +0.000 A 
ATOM      3  S   UNL     1       0.763   9.321  22.047  0.00  0.00    +0.000 S 
ATOM      4  N   UNL     1       1.825   7.218  20.975  0.00  0.00    +0.000 N 
ATOM      5  C   UNL     1       2.322   6.357  19.998  0.00  0.00    +0.000 A 
ATOM      6  C   UNL     1       2.646   5.039  20.332  0.00  0.00    +0.000 A 
ATOM      7  C   UNL     1       3.072   4.215  19.309  0.00  0.00    +0.000 A 
ATOM      8  C   UNL     1       3.200   4.667  18.015  0.00  0.00    +0.000 A 
ATOM      9  C   UNL     1       2.920   5.971  17.671  0.00  0.00    +0.000 A 
ATOM     10  C   UNL     1       2.467   6.821  18.687  0.00  0.00    +0.000 A 
ATOM     11  C   UNL     1       2.117   8.224  18.395  0.00  0.00    +0.000 A 
ATOM     12  O   UNL     1       2.367   8.673  17.279  0.00  0.00    +0.000 OA
ATOM     13  O   UNL     1       3.611   3.690  17.165  0.00  0.00    +0.000 OA
ATOM     14  C   UNL     1       3.662   2.555  18.054  0.00  0.00    +0.000 C 
ATOM     15  O   UNL     1       3.390   2.898  19.430  0.00  0.00    +0.000 OA
ATOM     16  H   UNL     1       1.709   6.882  21.925  0.00  0.00    +0.000 HD
ENDROOT
BRANCH   1  17
ATOM     17  C   UNL     1       1.077  10.322  19.036  0.00  0.00    +0.000 C 
BRANCH  17  18
ATOM     18  C   UNL     1      -0.356  10.614  19.479  0.00  0.00    +0.000 C 
BRANCH  18  20
ATOM     19  O   UNL     1      -1.061   9.778  17.320  0.00  0.00    +0.000 OA
ATOM     20  C   UNL     1      -1.330  10.408  18.335  0.00  0.00    +0.000 C 
ATOM     21  N   UNL     1      -2.557  11.002  18.551  0.00  0.00    +0.000 N 
ATOM     22  H   UNL     1      -2.723  11.488  19.423  0.00  0.00    +0.000 HD
BRANCH  21  23
ATOM     23  C   UNL     1      -3.630  10.898  17.574  0.00  0.00    +0.000 C 
BRANCH  23  24
ATOM     24  C   UNL     1      -4.735  11.924  17.830  0.00  0.00    +0.000 C 
BRANCH  24  25
ATOM     25  C   UNL     1      -5.720  11.482  18.887  0.00  0.00    +0.000 A 
ATOM     26  C   UNL     1      -6.288  10.197  18.789  0.00  0.00    +0.000 A 
ATOM     27  C   UNL     1      -7.217   9.749  19.728  0.00  0.00    +0.000 A 
ATOM     28  C   UNL     1      -7.593  10.572  20.787  0.00  0.00    +0.000 A 
ATOM     29  C   UNL     1      -7.030  11.841  20.909  0.00  0.00    +0.000 A 
ATOM     30  C   UNL     1      -6.096  12.293  19.971  0.00  0.00    +0.000 A 
ATOM     31 CL   UNL     1      -5.439  13.875  20.198  0.00  0.00    +0.000 Cl
ENDBRANCH  24  25
ENDBRANCH  23  24
ENDBRANCH  21  23
ENDBRANCH  18  20
ENDBRANCH  17  18
ENDBRANCH   1  17
TORSDOF 6
ENDMDL
MODEL 8
REMARK VINA RESULT:      -8.3      5.502      7.438
REMARK  Name = 
REMARK  6 active torsions:
REMARK  status: ('A' for Active; 'I' for Inactive)
REMARK    1  A    between atoms: C_2  and  C_3
REMARK    2  A    between atoms: C_3  and  C_4
REMARK    3  A    between atoms: C_4  and  N_5
REMARK    4  A    between atoms: N_20  and  C_21
REMARK    5  A    between atoms: C_21  and  C_22
REMARK    6  A    between atoms: C_22  and  C_23
REMARK                            x       y       z     vdW  Elec       q    Type
REMARK                         _______ _______ _______ _____ _____    ______ ____
ROOT
ATOM      1  N   UNL     1       3.525   4.246  19.272  0.00  0.00    +0.000 N 
ATOM      2  C   UNL     1       2.843   3.356  18.443  0.00  0.00    +0.000 A 
ATOM      3  S   UNL     1       1.419   2.540  18.793  0.00  0.00    +0.000 S 
ATOM      4  N   UNL     1       3.381   3.120  17.205  0.00  0.00    +0.000 N 
ATOM      5  C   UNL     1       4.520   3.751  16.712  0.00  0.00    +0.000 A 
ATOM      6  C   UNL     1       4.935   3.510  15.398  0.00  0.00    +0.000 A 
ATOM      7  C   UNL     1       6.034   4.212  14.944  0.00  0.00    +0.000 A 
ATOM      8  C   UNL     1       6.715   5.097  15.749  0.00  0.00    +0.000 A 
ATOM      9  C   UNL     1       6.345   5.323  17.056  0.00  0.00    +0.000 A 
ATOM     10  C   UNL     1       5.222   4.638  17.534  0.00  0.00    +0.000 A 
ATOM     11  C   UNL     1       4.742   4.846  18.913  0.00  0.00    +0.000 A 
ATOM     12  O   UNL     1       5.428   5.519  19.680  0.00  0.00    +0.000 OA
ATOM     13  O   UNL     1       7.748   5.695  15.099  0.00  0.00    +0.000 OA
ATOM     14  C   UNL     1       7.600   5.140  13.776  0.00  0.00    +0.000 C 
ATOM     15  O   UNL     1       6.557   4.145  13.691  0.00  0.00    +0.000 OA
ATOM     16  H   UNL     1       2.863   2.483  16.608  0.00  0.00    +0.000 HD
ENDROOT
BRANCH   1  17
ATOM     17  C   UNL     1       3.032   4.598  20.618  0.00  0.00    +0.000 C 
BRANCH  17  18
ATOM     18  C   UNL     1       1.690   5.327  20.577  0.00  0.00    +0.000 C 
BRANCH  18  20
ATOM     19  O   UNL     1       2.403   7.309  19.386  0.00  0.00    +0.000 OA
ATOM     20  C   UNL     1       1.887   6.818  20.383  0.00  0.00    +0.000 C 
ATOM     21  N   UNL     1       1.426   7.572  21.443  0.00  0.00    +0.000 N 
ATOM     22  H   UNL     1       0.988   7.105  22.226  0.00  0.00    +0.000 HD
BRANCH  21  23
ATOM     23  C   UNL     1       1.510   9.025  21.431  0.00  0.00    +0.000 C 
BRANCH  23  24
ATOM     24  C   UNL     1       0.263   9.672  22.034  0.00  0.00    +0.000 C 
BRANCH  24  25
ATOM     25  C   UNL     1      -0.508  10.510  21.040  0.00  0.00    +0.000 A 
ATOM     26  C   UNL     1      -0.545  10.101  19.694  0.00  0.00    +0.000 A 
ATOM     27  C   UNL     1      -1.226  10.850  18.734  0.00  0.00    +0.000 A 
ATOM     28  C   UNL     1      -1.889  12.019  19.101  0.00  0.00    +0.000 A 
ATOM     29  C   UNL     1      -1.878  12.430  20.432  0.00  0.00    +0.000 A 
ATOM     30  C   UNL     1      -1.198  11.681  21.398  0.00  0.00    +0.000 A 
ATOM     31 CL   UNL     1      -1.238  12.255  23.027  0.00  0.00    +0.000 Cl
ENDBRANCH  24  25
ENDBRANCH  23  24
ENDBRANCH  21  23
ENDBRANCH  18  20
ENDBRANCH  17  18
ENDBRANCH   1  17
TORSDOF 6
ENDMDL
MODEL 9
REMARK VINA RESULT:      -8.3      8.386      9.210
REMARK  Name = 
REMARK  6 active torsions:
REMARK  status: ('A' for Active; 'I' for Inactive)
REMARK    1  A    between atoms: C_2  and  C_3
REMARK    2  A    between atoms: C_3  and  C_4
REMARK    3  A    between atoms: C_4  and  N_5
REMARK    4  A    between atoms: N_20  and  C_21
REMARK    5  A    between atoms: C_21  and  C_22
REMARK    6  A    between atoms: C_22  and  C_23
REMARK                            x       y       z     vdW  Elec       q    Type
REMARK                         _______ _______ _______ _____ _____    ______ ____
ROOT
ATOM      1  N   UNL     1       1.205   9.320  19.466  0.00  0.00    +0.000 N 
ATOM      2  C   UNL     1       1.050   8.703  20.707  0.00  0.00    +0.000 A 
ATOM      3  S   UNL     1       0.230   9.309  22.040  0.00  0.00    +0.000 S 
ATOM      4  N   UNL     1       1.622   7.468  20.865  0.00  0.00    +0.000 N 
ATOM      5  C   UNL     1       2.288   6.777  19.856  0.00  0.00    +0.000 A 
ATOM      6  C   UNL     1       2.755   5.480  20.091  0.00  0.00    +0.000 A 
ATOM      7  C   UNL     1       3.350   4.821  19.035  0.00  0.00    +0.000 A 
ATOM      8  C   UNL     1       3.506   5.414  17.802  0.00  0.00    +0.000 A 
ATOM      9  C   UNL     1       3.086   6.703  17.558  0.00  0.00    +0.000 A 
ATOM     10  C   UNL     1       2.461   7.385  18.609  0.00  0.00    +0.000 A 
ATOM     11  C   UNL     1       1.955   8.758  18.420  0.00  0.00    +0.000 A 
ATOM     12  O   UNL     1       2.221   9.345  17.374  0.00  0.00    +0.000 OA
ATOM     13  O   UNL     1       4.095   4.585  16.901  0.00  0.00    +0.000 OA
ATOM     14  C   UNL     1       4.231   3.381  17.682  0.00  0.00    +0.000 C 
ATOM     15  O   UNL     1       3.825   3.547  19.058  0.00  0.00    +0.000 OA
ATOM     16  H   UNL     1       1.485   7.026  21.769  0.00  0.00    +0.000 HD
ENDROOT
BRANCH   1  17
ATOM     17  C   UNL     1       0.616  10.640  19.168  0.00  0.00    +0.000 C 
BRANCH  17  18
ATOM     18  C   UNL     1      -0.687  10.534  18.375  0.00  0.00    +0.000 C 
BRANCH  18  20
ATOM     19  O   UNL     1      -2.957  11.329  18.646  0.00  0.00    +0.000 OA
ATOM     20  C   UNL     1      -1.805  11.290  19.065  0.00  0.00    +0.000 C 
ATOM     21  N   UNL     1      -1.399  11.935  20.215  0.00  0.00    +0.000 N 
ATOM     22  H   UNL     1      -0.438  11.843  20.518  0.00  0.00    +0.000 HD
BRANCH  21  23
ATOM     23  C   UNL     1      -2.336  12.698  21.026  0.00  0.00    +0.000 C 
BRANCH  23  24
ATOM     24  C   UNL     1      -2.341  12.230  22.482  0.00  0.00    +0.000 C 
BRANCH  24  25
ATOM     25  C   UNL     1      -2.307  13.373  23.471  0.00  0.00    +0.000 A 
ATOM     26  C   UNL     1      -1.205  14.249  23.455  0.00  0.00    +0.000 A 
ATOM     27  C   UNL     1      -1.117  15.308  24.360  0.00  0.00    +0.000 A 
ATOM     28  C   UNL     1      -2.130  15.515  25.294  0.00  0.00    +0.000 A 
ATOM     29  C   UNL     1      -3.236  14.668  25.313  0.00  0.00    +0.000 A 
ATOM     30  C   UNL     1      -3.329  13.607  24.405  0.00  0.00    +0.000 A 
ATOM     31 CL   UNL     1      -4.736  12.607  24.490  0.00  0.00    +0.000 Cl
ENDBRANCH  24  25
ENDBRANCH  23  24
ENDBRANCH  21  23
ENDBRANCH  18  20
ENDBRANCH  17  18
ENDBRANCH   1  17
TORSDOF 6
ENDMDL
