MODEL 1
REMARK VINA RESULT:      -7.1      0.000      0.000
REMARK  Name = 
REMARK  6 active torsions:
REMARK  status: ('A' for Active; 'I' for Inactive)
REMARK    1  A    between atoms: C_1  and  C_2
REMARK    2  A    between atoms: C_7  and  N_8
REMARK    3  A    between atoms: C_12  and  N_13
REMARK    4  A    between atoms: C_14  and  C_16
REMARK    5  A    between atoms: C_16  and  O_17
REMARK    6  A    between atoms: O_17  and  C_18
REMARK                            x       y       z     vdW  Elec       q    Type
REMARK                         _______ _______ _______ _____ _____    ______ ____
ROOT
ATOM      1  N   UNL     1       1.264  12.127  20.667  0.00  0.00    +0.000 N 
ATOM      2  N   UNL     1       2.033  13.135  21.167  0.00  0.00    +0.000 NA
ATOM      3  C   UNL     1       2.653  13.633  20.105  0.00  0.00    +0.000 A 
ATOM      4  C   UNL     1       2.286  13.019  18.903  0.00  0.00    +0.000 A 
ATOM      5  C   UNL     1       1.392  12.037  19.268  0.00  0.00    +0.000 A 
ATOM      6  C   UNL     1       2.837  13.656  17.700  0.00  0.00    +0.000 C 
ATOM      7  S   UNL     1       4.270  14.683  18.325  0.00  0.00    +0.000 S 
ATOM      8  O   UNL     1       4.139  16.107  17.675  0.00  0.00    +0.000 OA
ATOM      9  C   UNL     1       3.602  14.762  20.059  0.00  0.00    +0.000 C 
ENDROOT
BRANCH   1  16
ATOM     10  C   UNL     1      -1.293  12.962  21.980  0.00  0.00    +0.000 C 
ATOM     11  C   UNL     1      -0.608  11.639  22.210  0.00  0.00    +0.000 A 
ATOM     12  C   UNL     1      -1.209  10.738  23.109  0.00  0.00    +0.000 A 
ATOM     13  C   UNL     1      -0.679   9.465  23.321  0.00  0.00    +0.000 A 
ATOM     14  C   UNL     1       0.464   9.068  22.639  0.00  0.00    +0.000 A 
ATOM     15  C   UNL     1       1.086   9.947  21.751  0.00  0.00    +0.000 A 
ATOM     16  C   UNL     1       0.564  11.239  21.533  0.00  0.00    +0.000 A 
ENDBRANCH   1  16
BRANCH   5  17
ATOM     17  N   UNL     1       0.619  11.241  18.437  0.00  0.00    +0.000 N 
ATOM     18  C   UNL     1       0.957   9.917  18.000  0.00  0.00    +0.000 C 
ATOM     19  O   UNL     1       0.074   9.340  17.384  0.00  0.00    +0.000 OA
ATOM     20  H   UNL     1      -0.367  11.469  18.323  0.00  0.00    +0.000 HD
BRANCH  18  21
ATOM     21  C   UNL     1       2.269   9.272  18.407  0.00  0.00    +0.000 C 
BRANCH  21  22
ATOM     22  O   UNL     1       2.477   8.038  17.756  0.00  0.00    +0.000 OA
BRANCH  22  23
ATOM     23  C   UNL     1       2.311   6.878  18.450  0.00  0.00    +0.000 A 
ATOM     24  C   UNL     1       2.242   5.602  17.894  0.00  0.00    +0.000 A 
ATOM     25  C   UNL     1       1.960   4.502  18.709  0.00  0.00    +0.000 A 
ATOM     26  C   UNL     1       1.767   4.675  20.078  0.00  0.00    +0.000 A 
ATOM     27 CL   UNL     1       1.375   3.322  21.062  0.00  0.00    +0.000 Cl
ATOM     28  C   UNL     1       1.873   5.939  20.647  0.00  0.00    +0.000 A 
ATOM     29  C   UNL     1       2.141   7.039  19.830  0.00  0.00    +0.000 A 
ENDBRANCH  22  23
ENDBRANCH  21  22
ENDBRANCH  18  21
ENDBRANCH   5  17
TORSDOF 5
ENDMDL
MODEL 2
REMARK VINA RESULT:      -7.1      4.843      8.871
REMARK  Name = 
REMARK  6 active torsions:
REMARK  status: ('A' for Active; 'I' for Inactive)
REMARK    1  A    between atoms: C_1  and  C_2
REMARK    2  A    between atoms: C_7  and  N_8
REMARK    3  A    between atoms: C_12  and  N_13
REMARK    4  A    between atoms: C_14  and  C_16
REMARK    5  A    between atoms: C_16  and  O_17
REMARK    6  A    between atoms: O_17  and  C_18
REMARK                            x       y       z     vdW  Elec       q    Type
REMARK                         _______ _______ _______ _____ _____    ______ ____
ROOT
ATOM      1  N   UNL     1       4.318   4.171  18.091  0.00  0.00    +0.000 N 
ATOM      2  N   UNL     1       4.545   3.107  18.911  0.00  0.00    +0.000 NA
ATOM      3  C   UNL     1       3.606   3.205  19.844  0.00  0.00    +0.000 A 
ATOM      4  C   UNL     1       2.729   4.277  19.645  0.00  0.00    +0.000 A 
ATOM      5  C   UNL     1       3.196   4.909  18.514  0.00  0.00    +0.000 A 
ATOM      6  C   UNL     1       1.591   4.313  20.572  0.00  0.00    +0.000 C 
ATOM      7  S   UNL     1       2.111   3.222  22.001  0.00  0.00    +0.000 S 
ATOM      8  O   UNL     1       0.912   2.256  22.309  0.00  0.00    +0.000 OA
ATOM      9  C   UNL     1       3.367   2.300  20.984  0.00  0.00    +0.000 C 
ENDROOT
BRANCH   1  16
ATOM     10  C   UNL     1       6.777   5.778  18.661  0.00  0.00    +0.000 C 
ATOM     11  C   UNL     1       6.362   5.313  17.289  0.00  0.00    +0.000 A 
ATOM     12  C   UNL     1       7.184   5.663  16.202  0.00  0.00    +0.000 A 
ATOM     13  C   UNL     1       6.909   5.210  14.912  0.00  0.00    +0.000 A 
ATOM     14  C   UNL     1       5.806   4.397  14.682  0.00  0.00    +0.000 A 
ATOM     15  C   UNL     1       4.969   4.045  15.742  0.00  0.00    +0.000 A 
ATOM     16  C   UNL     1       5.231   4.502  17.049  0.00  0.00    +0.000 A 
ENDBRANCH   1  16
BRANCH   5  17
ATOM     17  N   UNL     1       2.594   5.938  17.808  0.00  0.00    +0.000 N 
ATOM     18  C   UNL     1       2.259   7.228  18.340  0.00  0.00    +0.000 C 
ATOM     19  O   UNL     1       1.861   8.035  17.513  0.00  0.00    +0.000 OA
ATOM     20  H   UNL     1       2.617   5.910  16.790  0.00  0.00    +0.000 HD
BRANCH  18  21
ATOM     21  C   UNL     1       2.517   7.563  19.796  0.00  0.00    +0.000 C 
BRANCH  21  22
ATOM     22  O   UNL     1       1.336   7.524  20.567  0.00  0.00    +0.000 OA
BRANCH  22  23
ATOM     23  C   UNL     1       0.760   8.690  20.973  0.00  0.00    +0.000 A 
ATOM     24  C   UNL     1       0.831   9.908  20.301  0.00  0.00    +0.000 A 
ATOM     25  C   UNL     1       0.286  11.056  20.883  0.00  0.00    +0.000 A 
ATOM     26  C   UNL     1      -0.344  10.983  22.123  0.00  0.00    +0.000 A 
ATOM     27 CL   UNL     1      -0.969  12.408  22.849  0.00  0.00    +0.000 Cl
ATOM     28  C   UNL     1      -0.454   9.763  22.782  0.00  0.00    +0.000 A 
ATOM     29  C   UNL     1       0.102   8.619  22.207  0.00  0.00    +0.000 A 
ENDBRANCH  22  23
ENDBRANCH  21  22
ENDBRANCH  18  21
ENDBRANCH   5  17
TORSDOF 5
ENDMDL
MODEL 3
REMARK VINA RESULT:      -7.1      2.807      3.774
REMARK  Name = 
REMARK  6 active torsions:
REMARK  status: ('A' for Active; 'I' for Inactive)
REMARK    1  A    between atoms: C_1  and  C_2
REMARK    2  A    between atoms: C_7  and  N_8
REMARK    3  A    between atoms: C_12  and  N_13
REMARK    4  A    between atoms: C_14  and  C_16
REMARK    5  A    between atoms: C_16  and  O_17
REMARK    6  A    between atoms: O_17  and  C_18
REMARK                            x       y       z     vdW  Elec       q    Type
REMARK                         _______ _______ _______ _____ _____    ______ ____
ROOT
ATOM      1  N   UNL     1      -1.272  12.198  19.094  0.00  0.00    +0.000 N 
ATOM      2  N   UNL     1      -0.668  13.146  18.324  0.00  0.00    +0.000 NA
ATOM      3  C   UNL     1       0.428  13.468  18.998  0.00  0.00    +0.000 A 
ATOM      4  C   UNL     1       0.600  12.731  20.174  0.00  0.00    +0.000 A 
ATOM      5  C   UNL     1      -0.506  11.913  20.241  0.00  0.00    +0.000 A 
ATOM      6  C   UNL     1       1.882  12.956  20.853  0.00  0.00    +0.000 C 
ATOM      7  S   UNL     1       2.507  14.576  20.156  0.00  0.00    +0.000 S 
ATOM      8  O   UNL     1       4.012  14.363  19.764  0.00  0.00    +0.000 OA
ATOM      9  C   UNL     1       1.471  14.440  18.616  0.00  0.00    +0.000 C 
ENDROOT
BRANCH   1  16
ATOM     10  C   UNL     1      -1.644   9.896  17.220  0.00  0.00    +0.000 C 
ATOM     11  C   UNL     1      -2.771  10.674  17.848  0.00  0.00    +0.000 A 
ATOM     12  C   UNL     1      -4.088  10.296  17.526  0.00  0.00    +0.000 A 
ATOM     13  C   UNL     1      -5.185  10.918  18.122  0.00  0.00    +0.000 A 
ATOM     14  C   UNL     1      -4.989  11.931  19.051  0.00  0.00    +0.000 A 
ATOM     15  C   UNL     1      -3.693  12.332  19.379  0.00  0.00    +0.000 A 
ATOM     16  C   UNL     1      -2.575  11.717  18.779  0.00  0.00    +0.000 A 
ENDBRANCH   1  16
BRANCH   5  17
ATOM     17  N   UNL     1      -0.746  10.882  21.135  0.00  0.00    +0.000 N 
ATOM     18  C   UNL     1      -0.086   9.608  21.134  0.00  0.00    +0.000 C 
ATOM     19  O   UNL     1      -0.347   8.895  22.091  0.00  0.00    +0.000 OA
ATOM     20  H   UNL     1      -1.216  11.096  22.013  0.00  0.00    +0.000 HD
BRANCH  18  21
ATOM     21  C   UNL     1       0.948   9.266  20.078  0.00  0.00    +0.000 C 
BRANCH  21  22
ATOM     22  O   UNL     1       1.895   8.331  20.546  0.00  0.00    +0.000 OA
BRANCH  22  23
ATOM     23  C   UNL     1       2.055   7.150  19.886  0.00  0.00    +0.000 A 
ATOM     24  C   UNL     1       2.496   7.007  18.573  0.00  0.00    +0.000 A 
ATOM     25  C   UNL     1       2.512   5.742  17.978  0.00  0.00    +0.000 A 
ATOM     26  C   UNL     1       2.109   4.622  18.701  0.00  0.00    +0.000 A 
ATOM     27 CL   UNL     1       2.090   3.080  17.945  0.00  0.00    +0.000 Cl
ATOM     28  C   UNL     1       1.705   4.751  20.026  0.00  0.00    +0.000 A 
ATOM     29  C   UNL     1       1.676   6.016  20.615  0.00  0.00    +0.000 A 
ENDBRANCH  22  23
ENDBRANCH  21  22
ENDBRANCH  18  21
ENDBRANCH   5  17
TORSDOF 5
ENDMDL
MODEL 4
REMARK VINA RESULT:      -7.1      4.147      7.272
REMARK  Name = 
REMARK  6 active torsions:
REMARK  status: ('A' for Active; 'I' for Inactive)
REMARK    1  A    between atoms: C_1  and  C_2
REMARK    2  A    between atoms: C_7  and  N_8
REMARK    3  A    between atoms: C_12  and  N_13
REMARK    4  A    between atoms: C_14  and  C_16
REMARK    5  A    between atoms: C_16  and  O_17
REMARK    6  A    between atoms: O_17  and  C_18
REMARK                            x       y       z     vdW  Elec       q    Type
REMARK                         _______ _______ _______ _____ _____    ______ ____
ROOT
ATOM      1  N   UNL     1       3.886   4.982  19.042  0.00  0.00    +0.000 N 
ATOM      2  N   UNL     1       5.117   4.693  19.548  0.00  0.00    +0.000 NA
ATOM      3  C   UNL     1       5.921   5.587  18.989  0.00  0.00    +0.000 A 
ATOM      4  C   UNL     1       5.256   6.496  18.159  0.00  0.00    +0.000 A 
ATOM      5  C   UNL     1       3.937   6.099  18.186  0.00  0.00    +0.000 A 
ATOM      6  C   UNL     1       6.096   7.590  17.655  0.00  0.00    +0.000 C 
ATOM      7  S   UNL     1       7.850   6.978  17.879  0.00  0.00    +0.000 S 
ATOM      8  O   UNL     1       8.665   8.139  18.552  0.00  0.00    +0.000 OA
ATOM      9  C   UNL     1       7.373   5.752  19.194  0.00  0.00    +0.000 C 
ENDROOT
BRANCH   1  16
ATOM     10  C   UNL     1       2.923   3.081  16.940  0.00  0.00    +0.000 C 
ATOM     11  C   UNL     1       2.266   3.271  18.284  0.00  0.00    +0.000 A 
ATOM     12  C   UNL     1       1.119   2.506  18.566  0.00  0.00    +0.000 A 
ATOM     13  C   UNL     1       0.497   2.569  19.813  0.00  0.00    +0.000 A 
ATOM     14  C   UNL     1       1.008   3.398  20.803  0.00  0.00    +0.000 A 
ATOM     15  C   UNL     1       2.138   4.175  20.544  0.00  0.00    +0.000 A 
ATOM     16  C   UNL     1       2.773   4.127  19.286  0.00  0.00    +0.000 A 
ENDBRANCH   1  16
BRANCH   5  17
ATOM     17  N   UNL     1       2.842   6.756  17.650  0.00  0.00    +0.000 N 
ATOM     18  C   UNL     1       2.006   7.690  18.350  0.00  0.00    +0.000 C 
ATOM     19  O   UNL     1       1.178   8.258  17.653  0.00  0.00    +0.000 OA
ATOM     20  H   UNL     1       2.751   6.808  16.637  0.00  0.00    +0.000 HD
BRANCH  18  21
ATOM     21  C   UNL     1       2.250   8.014  19.811  0.00  0.00    +0.000 C 
BRANCH  21  22
ATOM     22  O   UNL     1       1.082   7.871  20.588  0.00  0.00    +0.000 OA
BRANCH  22  23
ATOM     23  C   UNL     1       0.457   8.982  21.069  0.00  0.00    +0.000 A 
ATOM     24  C   UNL     1       0.218  10.153  20.355  0.00  0.00    +0.000 A 
ATOM     25  C   UNL     1      -0.338  11.261  21.001  0.00  0.00    +0.000 A 
ATOM     26  C   UNL     1      -0.672  11.191  22.351  0.00  0.00    +0.000 A 
ATOM     27 CL   UNL     1      -1.312  12.573  23.145  0.00  0.00    +0.000 Cl
ATOM     28  C   UNL     1      -0.474  10.012  23.062  0.00  0.00    +0.000 A 
ATOM     29  C   UNL     1       0.093   8.910  22.420  0.00  0.00    +0.000 A 
ENDBRANCH  22  23
ENDBRANCH  21  22
ENDBRANCH  18  21
ENDBRANCH   5  17
TORSDOF 5
ENDMDL
MODEL 5
REMARK VINA RESULT:      -7.0      6.663      9.077
REMARK  Name = 
REMARK  6 active torsions:
REMARK  status: ('A' for Active; 'I' for Inactive)
REMARK    1  A    between atoms: C_1  and  C_2
REMARK    2  A    between atoms: C_7  and  N_8
REMARK    3  A    between atoms: C_12  and  N_13
REMARK    4  A    between atoms: C_14  and  C_16
REMARK    5  A    between atoms: C_16  and  O_17
REMARK    6  A    between atoms: O_17  and  C_18
REMARK                            x       y       z     vdW  Elec       q    Type
REMARK                         _______ _______ _______ _____ _____    ______ ____
ROOT
ATOM      1  N   UNL     1       4.400   4.141  17.887  0.00  0.00    +0.000 N 
ATOM      2  N   UNL     1       3.922   4.002  16.619  0.00  0.00    +0.000 NA
ATOM      3  C   UNL     1       4.968   4.253  15.844  0.00  0.00    +0.000 A 
ATOM      4  C   UNL     1       6.144   4.511  16.556  0.00  0.00    +0.000 A 
ATOM      5  C   UNL     1       5.774   4.447  17.881  0.00  0.00    +0.000 A 
ATOM      6  C   UNL     1       7.347   4.636  15.723  0.00  0.00    +0.000 C 
ATOM      7  S   UNL     1       6.695   4.966  14.000  0.00  0.00    +0.000 S 
ATOM      8  O   UNL     1       7.460   4.006  13.022  0.00  0.00    +0.000 OA
ATOM      9  C   UNL     1       5.028   4.228  14.370  0.00  0.00    +0.000 C 
ENDROOT
BRANCH   1  16
ATOM     10  C   UNL     1       2.916   6.592  18.750  0.00  0.00    +0.000 C 
ATOM     11  C   UNL     1       2.866   5.268  19.469  0.00  0.00    +0.000 A 
ATOM     12  C   UNL     1       2.072   5.181  20.627  0.00  0.00    +0.000 A 
ATOM     13  C   UNL     1       1.915   3.973  21.307  0.00  0.00    +0.000 A 
ATOM     14  C   UNL     1       2.549   2.828  20.844  0.00  0.00    +0.000 A 
ATOM     15  C   UNL     1       3.351   2.891  19.703  0.00  0.00    +0.000 A 
ATOM     16  C   UNL     1       3.524   4.107  19.010  0.00  0.00    +0.000 A 
ENDBRANCH   1  16
BRANCH   5  17
ATOM     17  N   UNL     1       6.599   4.480  18.994  0.00  0.00    +0.000 N 
ATOM     18  C   UNL     1       7.430   5.583  19.383  0.00  0.00    +0.000 C 
ATOM     19  O   UNL     1       7.972   5.457  20.471  0.00  0.00    +0.000 OA
ATOM     20  H   UNL     1       6.433   3.811  19.744  0.00  0.00    +0.000 HD
BRANCH  18  21
ATOM     21  C   UNL     1       7.500   6.843  18.541  0.00  0.00    +0.000 C 
BRANCH  21  22
ATOM     22  O   UNL     1       8.626   7.631  18.859  0.00  0.00    +0.000 OA
BRANCH  22  23
ATOM     23  C   UNL     1       8.591   8.973  18.630  0.00  0.00    +0.000 A 
ATOM     24  C   UNL     1       7.883   9.606  17.610  0.00  0.00    +0.000 A 
ATOM     25  C   UNL     1       8.021  10.983  17.419  0.00  0.00    +0.000 A 
ATOM     26  C   UNL     1       8.847  11.729  18.256  0.00  0.00    +0.000 A 
ATOM     27 CL   UNL     1       9.043  13.413  17.982  0.00  0.00    +0.000 Cl
ATOM     28  C   UNL     1       9.526  11.112  19.301  0.00  0.00    +0.000 A 
ATOM     29  C   UNL     1       9.399   9.734  19.483  0.00  0.00    +0.000 A 
ENDBRANCH  22  23
ENDBRANCH  21  22
ENDBRANCH  18  21
ENDBRANCH   5  17
TORSDOF 5
ENDMDL
MODEL 6
REMARK VINA RESULT:      -6.9      1.406      1.747
REMARK  Name = 
REMARK  6 active torsions:
REMARK  status: ('A' for Active; 'I' for Inactive)
REMARK    1  A    between atoms: C_1  and  C_2
REMARK    2  A    between atoms: C_7  and  N_8
REMARK    3  A    between atoms: C_12  and  N_13
REMARK    4  A    between atoms: C_14  and  C_16
REMARK    5  A    between atoms: C_16  and  O_17
REMARK    6  A    between atoms: O_17  and  C_18
REMARK                            x       y       z     vdW  Elec       q    Type
REMARK                         _______ _______ _______ _____ _____    ______ ____
ROOT
ATOM      1  N   UNL     1       1.215  12.126  20.692  0.00  0.00    +0.000 N 
ATOM      2  N   UNL     1       2.028  13.098  21.193  0.00  0.00    +0.000 NA
ATOM      3  C   UNL     1       2.609  13.624  20.122  0.00  0.00    +0.000 A 
ATOM      4  C   UNL     1       2.173  13.064  18.917  0.00  0.00    +0.000 A 
ATOM      5  C   UNL     1       1.276  12.086  19.286  0.00  0.00    +0.000 A 
ATOM      6  C   UNL     1       2.681  13.735  17.714  0.00  0.00    +0.000 C 
ATOM      7  S   UNL     1       4.164  14.709  18.308  0.00  0.00    +0.000 S 
ATOM      8  O   UNL     1       4.035  16.158  17.719  0.00  0.00    +0.000 OA
ATOM      9  C   UNL     1       3.579  14.734  20.074  0.00  0.00    +0.000 C 
ENDROOT
BRANCH   1  16
ATOM     10  C   UNL     1      -1.284  12.947  22.121  0.00  0.00    +0.000 C 
ATOM     11  C   UNL     1      -0.606  11.611  22.288  0.00  0.00    +0.000 A 
ATOM     12  C   UNL     1      -1.185  10.690  23.180  0.00  0.00    +0.000 A 
ATOM     13  C   UNL     1      -0.661   9.406  23.336  0.00  0.00    +0.000 A 
ATOM     14  C   UNL     1       0.453   9.018  22.603  0.00  0.00    +0.000 A 
ATOM     15  C   UNL     1       1.052   9.917  21.718  0.00  0.00    +0.000 A 
ATOM     16  C   UNL     1       0.537  11.219  21.557  0.00  0.00    +0.000 A 
ENDBRANCH   1  16
BRANCH   5  17
ATOM     17  N   UNL     1       0.448  11.339  18.464  0.00  0.00    +0.000 N 
ATOM     18  C   UNL     1       0.754  10.044  17.929  0.00  0.00    +0.000 C 
ATOM     19  O   UNL     1      -0.169   9.502  17.340  0.00  0.00    +0.000 OA
ATOM     20  H   UNL     1      -0.544  11.570  18.430  0.00  0.00    +0.000 HD
BRANCH  18  21
ATOM     21  C   UNL     1       2.089   9.380  18.207  0.00  0.00    +0.000 C 
BRANCH  21  22
ATOM     22  O   UNL     1       1.935   8.086  18.746  0.00  0.00    +0.000 OA
BRANCH  22  23
ATOM     23  C   UNL     1       2.598   7.039  18.180  0.00  0.00    +0.000 A 
ATOM     24  C   UNL     1       2.229   5.699  18.269  0.00  0.00    +0.000 A 
ATOM     25  C   UNL     1       3.059   4.711  17.732  0.00  0.00    +0.000 A 
ATOM     26  C   UNL     1       4.244   5.064  17.090  0.00  0.00    +0.000 A 
ATOM     27 CL   UNL     1       5.278   3.838  16.474  0.00  0.00    +0.000 Cl
ATOM     28  C   UNL     1       4.601   6.402  16.961  0.00  0.00    +0.000 A 
ATOM     29  C   UNL     1       3.778   7.387  17.510  0.00  0.00    +0.000 A 
ENDBRANCH  22  23
ENDBRANCH  21  22
ENDBRANCH  18  21
ENDBRANCH   5  17
TORSDOF 5
ENDMDL
MODEL 7
REMARK VINA RESULT:      -6.9      5.353      8.006
REMARK  Name = 
REMARK  6 active torsions:
REMARK  status: ('A' for Active; 'I' for Inactive)
REMARK    1  A    between atoms: C_1  and  C_2
REMARK    2  A    between atoms: C_7  and  N_8
REMARK    3  A    between atoms: C_12  and  N_13
REMARK    4  A    between atoms: C_14  and  C_16
REMARK    5  A    between atoms: C_16  and  O_17
REMARK    6  A    between atoms: O_17  and  C_18
REMARK                            x       y       z     vdW  Elec       q    Type
REMARK                         _______ _______ _______ _____ _____    ______ ____
ROOT
ATOM      1  N   UNL     1       2.634   6.376  18.751  0.00  0.00    +0.000 N 
ATOM      2  N   UNL     1       1.742   5.350  18.837  0.00  0.00    +0.000 NA
ATOM      3  C   UNL     1       2.458   4.268  18.560  0.00  0.00    +0.000 A 
ATOM      4  C   UNL     1       3.813   4.536  18.337  0.00  0.00    +0.000 A 
ATOM      5  C   UNL     1       3.926   5.903  18.452  0.00  0.00    +0.000 A 
ATOM      6  C   UNL     1       4.654   3.341  18.185  0.00  0.00    +0.000 C 
ATOM      7  S   UNL     1       3.450   1.966  17.783  0.00  0.00    +0.000 S 
ATOM      8  O   UNL     1       3.809   0.749  18.707  0.00  0.00    +0.000 OA
ATOM      9  C   UNL     1       2.002   2.866  18.526  0.00  0.00    +0.000 C 
ENDROOT
BRANCH   1  16
ATOM     10  C   UNL     1       1.389   7.454  21.250  0.00  0.00    +0.000 C 
ATOM     11  C   UNL     1       1.555   8.238  19.974  0.00  0.00    +0.000 A 
ATOM     12  C   UNL     1       1.088   9.565  19.955  0.00  0.00    +0.000 A 
ATOM     13  C   UNL     1       1.270  10.381  18.838  0.00  0.00    +0.000 A 
ATOM     14  C   UNL     1       1.922   9.886  17.717  0.00  0.00    +0.000 A 
ATOM     15  C   UNL     1       2.386   8.569  17.706  0.00  0.00    +0.000 A 
ATOM     16  C   UNL     1       2.202   7.732  18.826  0.00  0.00    +0.000 A 
ENDBRANCH   1  16
BRANCH   5  17
ATOM     17  N   UNL     1       5.086   6.661  18.468  0.00  0.00    +0.000 N 
ATOM     18  C   UNL     1       5.908   6.949  17.328  0.00  0.00    +0.000 C 
ATOM     19  O   UNL     1       6.809   7.749  17.536  0.00  0.00    +0.000 OA
ATOM     20  H   UNL     1       5.252   7.282  19.258  0.00  0.00    +0.000 HD
BRANCH  18  21
ATOM     21  C   UNL     1       5.572   6.387  15.960  0.00  0.00    +0.000 C 
BRANCH  21  22
ATOM     22  O   UNL     1       6.722   5.953  15.268  0.00  0.00    +0.000 OA
BRANCH  22  23
ATOM     23  C   UNL     1       6.601   5.015  14.288  0.00  0.00    +0.000 A 
ATOM     24  C   UNL     1       7.437   4.883  13.182  0.00  0.00    +0.000 A 
ATOM     25  C   UNL     1       7.137   3.944  12.191  0.00  0.00    +0.000 A 
ATOM     26  C   UNL     1       6.017   3.125  12.316  0.00  0.00    +0.000 A 
ATOM     27 CL   UNL     1       5.634   2.007  11.070  0.00  0.00    +0.000 Cl
ATOM     28  C   UNL     1       5.199   3.223  13.437  0.00  0.00    +0.000 A 
ATOM     29  C   UNL     1       5.491   4.170  14.420  0.00  0.00    +0.000 A 
ENDBRANCH  22  23
ENDBRANCH  21  22
ENDBRANCH  18  21
ENDBRANCH   5  17
TORSDOF 5
ENDMDL
MODEL 8
REMARK VINA RESULT:      -6.9      4.914      8.632
REMARK  Name = 
REMARK  6 active torsions:
REMARK  status: ('A' for Active; 'I' for Inactive)
REMARK    1  A    between atoms: C_1  and  C_2
REMARK    2  A    between atoms: C_7  and  N_8
REMARK    3  A    between atoms: C_12  and  N_13
REMARK    4  A    between atoms: C_14  and  C_16
REMARK    5  A    between atoms: C_16  and  O_17
REMARK    6  A    between atoms: O_17  and  C_18
REMARK                            x       y       z     vdW  Elec       q    Type
REMARK                         _______ _______ _______ _____ _____    ______ ____
ROOT
ATOM      1  N   UNL     1       4.529   4.977  18.462  0.00  0.00    +0.000 N 
ATOM      2  N   UNL     1       4.394   3.827  17.744  0.00  0.00    +0.000 NA
ATOM      3  C   UNL     1       3.250   3.307  18.169  0.00  0.00    +0.000 A 
ATOM      4  C   UNL     1       2.592   4.099  19.116  0.00  0.00    +0.000 A 
ATOM      5  C   UNL     1       3.426   5.177  19.313  0.00  0.00    +0.000 A 
ATOM      6  C   UNL     1       1.252   3.625  19.483  0.00  0.00    +0.000 C 
ATOM      7  S   UNL     1       1.222   1.832  18.947  0.00  0.00    +0.000 S 
ATOM      8  O   UNL     1      -0.117   1.604  18.160  0.00  0.00    +0.000 OA
ATOM      9  C   UNL     1       2.598   2.063  17.716  0.00  0.00    +0.000 C 
ENDROOT
BRANCH   1  16
ATOM     10  C   UNL     1       4.939   7.024  16.318  0.00  0.00    +0.000 C 
ATOM     11  C   UNL     1       5.966   6.665  17.362  0.00  0.00    +0.000 A 
ATOM     12  C   UNL     1       7.202   7.334  17.321  0.00  0.00    +0.000 A 
ATOM     13  C   UNL     1       8.177   7.113  18.294  0.00  0.00    +0.000 A 
ATOM     14  C   UNL     1       7.936   6.217  19.327  0.00  0.00    +0.000 A 
ATOM     15  C   UNL     1       6.720   5.532  19.384  0.00  0.00    +0.000 A 
ATOM     16  C   UNL     1       5.730   5.741  18.403  0.00  0.00    +0.000 A 
ENDBRANCH   1  16
BRANCH   5  17
ATOM     17  N   UNL     1       3.168   6.327  20.043  0.00  0.00    +0.000 N 
ATOM     18  C   UNL     1       2.414   7.456  19.580  0.00  0.00    +0.000 C 
ATOM     19  O   UNL     1       2.190   8.305  20.430  0.00  0.00    +0.000 OA
ATOM     20  H   UNL     1       3.277   6.296  21.055  0.00  0.00    +0.000 HD
BRANCH  18  21
ATOM     21  C   UNL     1       1.846   7.492  18.174  0.00  0.00    +0.000 C 
BRANCH  21  22
ATOM     22  O   UNL     1       2.130   8.707  17.519  0.00  0.00    +0.000 OA
BRANCH  22  23
ATOM     23  C   UNL     1       1.470   9.840  17.888  0.00  0.00    +0.000 A 
ATOM     24  C   UNL     1       2.065  11.053  18.226  0.00  0.00    +0.000 A 
ATOM     25  C   UNL     1       1.276  12.108  18.694  0.00  0.00    +0.000 A 
ATOM     26  C   UNL     1      -0.105  11.957  18.803  0.00  0.00    +0.000 A 
ATOM     27 CL   UNL     1      -1.058  13.245  19.422  0.00  0.00    +0.000 Cl
ATOM     28  C   UNL     1      -0.711  10.763  18.430  0.00  0.00    +0.000 A 
ATOM     29  C   UNL     1       0.079   9.705  17.976  0.00  0.00    +0.000 A 
ENDBRANCH  22  23
ENDBRANCH  21  22
ENDBRANCH  18  21
ENDBRANCH   5  17
TORSDOF 5
ENDMDL
MODEL 9
REMARK VINA RESULT:      -6.9      1.028      1.154
REMARK  Name = 
REMARK  6 active torsions:
REMARK  status: ('A' for Active; 'I' for Inactive)
REMARK    1  A    between atoms: C_1  and  C_2
REMARK    2  A    between atoms: C_7  and  N_8
REMARK    3  A    between atoms: C_12  and  N_13
REMARK    4  A    between atoms: C_14  and  C_16
REMARK    5  A    between atoms: C_16  and  O_17
REMARK    6  A    between atoms: O_17  and  C_18
REMARK                            x       y       z     vdW  Elec       q    Type
REMARK                         _______ _______ _______ _____ _____    ______ ____
ROOT
ATOM      1  N   UNL     1       1.190  12.151  20.707  0.00  0.00    +0.000 N 
ATOM      2  N   UNL     1       2.087  13.054  21.192  0.00  0.00    +0.000 NA
ATOM      3  C   UNL     1       2.632  13.591  20.109  0.00  0.00    +0.000 A 
ATOM      4  C   UNL     1       2.093  13.108  18.912  0.00  0.00    +0.000 A 
ATOM      5  C   UNL     1       1.164  12.167  19.299  0.00  0.00    +0.000 A 
ATOM      6  C   UNL     1       2.566  13.800  17.706  0.00  0.00    +0.000 C 
ATOM      7  S   UNL     1       4.136  14.664  18.244  0.00  0.00    +0.000 S 
ATOM      8  O   UNL     1       4.056  16.142  17.721  0.00  0.00    +0.000 OA
ATOM      9  C   UNL     1       3.661  14.647  20.043  0.00  0.00    +0.000 C 
ENDROOT
BRANCH   1  16
ATOM     10  C   UNL     1      -1.335  12.959  22.095  0.00  0.00    +0.000 C 
ATOM     11  C   UNL     1      -0.642  11.635  22.288  0.00  0.00    +0.000 A 
ATOM     12  C   UNL     1      -1.219  10.719  23.187  0.00  0.00    +0.000 A 
ATOM     13  C   UNL     1      -0.681   9.445  23.367  0.00  0.00    +0.000 A 
ATOM     14  C   UNL     1       0.446   9.060  22.652  0.00  0.00    +0.000 A 
ATOM     15  C   UNL     1       1.044   9.955  21.762  0.00  0.00    +0.000 A 
ATOM     16  C   UNL     1       0.514  11.248  21.577  0.00  0.00    +0.000 A 
ENDBRANCH   1  16
BRANCH   5  17
ATOM     17  N   UNL     1       0.246  11.503  18.502  0.00  0.00    +0.000 N 
ATOM     18  C   UNL     1       0.444  10.216  17.899  0.00  0.00    +0.000 C 
ATOM     19  O   UNL     1      -0.543   9.751  17.348  0.00  0.00    +0.000 OA
ATOM     20  H   UNL     1      -0.730  11.790  18.539  0.00  0.00    +0.000 HD
BRANCH  18  21
ATOM     21  C   UNL     1       1.753   9.467  18.068  0.00  0.00    +0.000 C 
BRANCH  21  22
ATOM     22  O   UNL     1       1.673   8.480  19.072  0.00  0.00    +0.000 OA
BRANCH  22  23
ATOM     23  C   UNL     1       2.441   7.360  18.974  0.00  0.00    +0.000 A 
ATOM     24  C   UNL     1       3.308   7.058  17.926  0.00  0.00    +0.000 A 
ATOM     25  C   UNL     1       3.957   5.821  17.894  0.00  0.00    +0.000 A 
ATOM     26  C   UNL     1       3.757   4.897  18.917  0.00  0.00    +0.000 A 
ATOM     27 CL   UNL     1       4.525   3.363  18.844  0.00  0.00    +0.000 Cl
ATOM     28  C   UNL     1       2.925   5.206  19.988  0.00  0.00    +0.000 A 
ATOM     29  C   UNL     1       2.265   6.437  20.012  0.00  0.00    +0.000 A 
ENDBRANCH  22  23
ENDBRANCH  21  22
ENDBRANCH  18  21
ENDBRANCH   5  17
TORSDOF 5
ENDMDL
