MODEL 1
REMARK VINA RESULT:      -7.6      0.000      0.000
REMARK  Name = 
REMARK  16 active torsions:
REMARK  status: ('A' for Active; 'I' for Inactive)
REMARK    1  A    between atoms: C_1  and  C_2
REMARK    2  A    between atoms: C_2  and  O_3
REMARK    3  A    between atoms: O_3  and  P_4
REMARK    4  A    between atoms: P_4  and  O_6
REMARK    5  A    between atoms: P_4  and  C_9
REMARK    6  A    between atoms: O_6  and  C_7
REMARK    7  A    between atoms: C_7  and  C_8
REMARK    8  A    between atoms: C_9  and  N_10
REMARK    9  A    between atoms: C_9  and  C_31
REMARK   10  A    between atoms: N_10  and  C_11
REMARK   11  A    between atoms: C_14  and  C_15
REMARK   12  A    between atoms: C_15  and  N_16
REMARK   13  A    between atoms: C_17  and  C_19
REMARK   14  A    between atoms: C_31  and  C_32
REMARK   15  A    between atoms: C_31  and  C_33
REMARK   16  A    between atoms: C_31  and  C_34
REMARK                            x       y       z     vdW  Elec       q    Type
REMARK                         _______ _______ _______ _____ _____    ______ ____
ROOT
ATOM      1  C   UNL     1       2.328   7.579  18.913  0.00  0.00    +0.000 A 
ATOM      2  C   UNL     1       1.748   7.947  20.152  0.00  0.00    +0.000 A 
ATOM      3  C   UNL     1       1.029   9.140  20.287  0.00  0.00    +0.000 A 
ATOM      4  C   UNL     1       0.870  10.037  19.234  0.00  0.00    +0.000 A 
ATOM      5  C   UNL     1       1.437   9.682  18.004  0.00  0.00    +0.000 A 
ATOM      6  C   UNL     1       2.169   8.481  17.855  0.00  0.00    +0.000 A 
ENDROOT
BRANCH   1   7
ATOM      7  N   UNL     1       3.112   6.424  18.837  0.00  0.00    +0.000 N 
ATOM      8  H   UNL     1       3.354   5.993  19.729  0.00  0.00    +0.000 HD
BRANCH   7   9
ATOM      9  C   UNL     1       3.268   5.484  17.670  0.00  0.00    +0.000 C 
BRANCH   9  10
ATOM     10  C   UNL     1       4.841   5.484  17.302  0.00  0.00    +0.000 C 
ATOM     11  C   UNL     1       5.598   5.395  18.614  0.00  0.00    +0.000 C 
ATOM     12  C   UNL     1       5.411   4.213  16.624  0.00  0.00    +0.000 C 
ATOM     13  C   UNL     1       5.307   6.686  16.431  0.00  0.00    +0.000 C 
ENDBRANCH   9  10
BRANCH   9  14
ATOM     14  P   UNL     1       2.307   3.991  18.107  0.00  0.00    +0.000 P 
ATOM     15  O   UNL     1       1.102   4.501  17.318  0.00  0.00    +0.000 OA
BRANCH  14  16
ATOM     16  O   UNL     1       1.397   2.578  18.521  0.00  0.00    +0.000 OA
BRANCH  16  18
ATOM     17  C   UNL     1       3.643   1.695  18.479  0.00  0.00    +0.000 C 
ATOM     18  C   UNL     1       2.165   1.372  18.508  0.00  0.00    +0.000 C 
ENDBRANCH  16  18
ENDBRANCH  14  16
BRANCH  14  19
ATOM     19  O   UNL     1       2.222   4.491  19.698  0.00  0.00    +0.000 OA
BRANCH  19  20
ATOM     20  C   UNL     1       1.330   4.016  20.724  0.00  0.00    +0.000 C 
ATOM     21  C   UNL     1       1.937   3.127  21.817  0.00  0.00    +0.000 C 
ENDBRANCH  19  20
ENDBRANCH  14  19
ENDBRANCH   9  14
ENDBRANCH   7   9
ENDBRANCH   1   7
BRANCH   4  22
ATOM     22  C   UNL     1       0.129  11.336  19.380  0.00  0.00    +0.000 C 
BRANCH  22  23
ATOM     23  N   UNL     1       0.975  12.478  19.075  0.00  0.00    +0.000 N 
ATOM     24  C   UNL     1       1.735  13.101  20.054  0.00  0.00    +0.000 C 
ATOM     25  O   UNL     1       1.682  12.787  21.221  0.00  0.00    +0.000 OA
ATOM     26  H   UNL     1       1.106  12.710  18.099  0.00  0.00    +0.000 HD
BRANCH  24  27
ATOM     27  C   UNL     1       2.610  14.284  19.540  0.00  0.00    +0.000 C 
ATOM     28  C   UNL     1       3.767  14.560  20.534  0.00  0.00    +0.000 C 
ATOM     29  C   UNL     1       4.609  15.757  20.063  0.00  0.00    +0.000 C 
ATOM     30  C   UNL     1       5.221  15.449  18.687  0.00  0.00    +0.000 C 
ATOM     31  C   UNL     1       4.102  15.170  17.669  0.00  0.00    +0.000 C 
ATOM     32  C   UNL     1       3.211  16.416  17.552  0.00  0.00    +0.000 C 
ATOM     33  C   UNL     1       2.590  16.743  18.920  0.00  0.00    +0.000 C 
ATOM     34  C   UNL     1       3.704  16.994  19.949  0.00  0.00    +0.000 C 
ATOM     35  C   UNL     1       1.739  15.553  19.383  0.00  0.00    +0.000 C 
ATOM     36  C   UNL     1       3.253  13.975  18.156  0.00  0.00    +0.000 C 
ENDBRANCH  24  27
ENDBRANCH  22  23
ENDBRANCH   4  22
TORSDOF 11
ENDMDL
MODEL 2
REMARK VINA RESULT:      -7.6      1.778      3.698
REMARK  Name = 
REMARK  16 active torsions:
REMARK  status: ('A' for Active; 'I' for Inactive)
REMARK    1  A    between atoms: C_1  and  C_2
REMARK    2  A    between atoms: C_2  and  O_3
REMARK    3  A    between atoms: O_3  and  P_4
REMARK    4  A    between atoms: P_4  and  O_6
REMARK    5  A    between atoms: P_4  and  C_9
REMARK    6  A    between atoms: O_6  and  C_7
REMARK    7  A    between atoms: C_7  and  C_8
REMARK    8  A    between atoms: C_9  and  N_10
REMARK    9  A    between atoms: C_9  and  C_31
REMARK   10  A    between atoms: N_10  and  C_11
REMARK   11  A    between atoms: C_14  and  C_15
REMARK   12  A    between atoms: C_15  and  N_16
REMARK   13  A    between atoms: C_17  and  C_19
REMARK   14  A    between atoms: C_31  and  C_32
REMARK   15  A    between atoms: C_31  and  C_33
REMARK   16  A    between atoms: C_31  and  C_34
REMARK                            x       y       z     vdW  Elec       q    Type
REMARK                         _______ _______ _______ _____ _____    ______ ____
ROOT
ATOM      1  C   UNL     1       2.304   7.117  19.007  0.00  0.00    +0.000 A 
ATOM      2  C   UNL     1       2.079   8.185  18.103  0.00  0.00    +0.000 A 
ATOM      3  C   UNL     1       1.477   9.375  18.527  0.00  0.00    +0.000 A 
ATOM      4  C   UNL     1       1.042   9.565  19.836  0.00  0.00    +0.000 A 
ATOM      5  C   UNL     1       1.261   8.518  20.738  0.00  0.00    +0.000 A 
ATOM      6  C   UNL     1       1.866   7.308  20.322  0.00  0.00    +0.000 A 
ENDROOT
BRANCH   1   7
ATOM      7  N   UNL     1       2.827   5.911  18.531  0.00  0.00    +0.000 N 
ATOM      8  H   UNL     1       3.191   5.932  17.578  0.00  0.00    +0.000 HD
BRANCH   7   9
ATOM      9  C   UNL     1       3.344   4.745  19.331  0.00  0.00    +0.000 C 
BRANCH   9  10
ATOM     10  C   UNL     1       2.242   3.573  19.176  0.00  0.00    +0.000 C 
ATOM     11  C   UNL     1       2.992   2.255  19.243  0.00  0.00    +0.000 C 
ATOM     12  C   UNL     1       1.275   3.346  20.365  0.00  0.00    +0.000 C 
ATOM     13  C   UNL     1       1.349   3.682  17.907  0.00  0.00    +0.000 C 
ENDBRANCH   9  10
BRANCH   9  14
ATOM     14  P   UNL     1       5.106   4.574  18.875  0.00  0.00    +0.000 P 
ATOM     15  O   UNL     1       5.475   5.778  19.742  0.00  0.00    +0.000 OA
BRANCH  14  16
ATOM     16  O   UNL     1       6.775   4.415  18.444  0.00  0.00    +0.000 OA
BRANCH  16  18
ATOM     17  C   UNL     1       7.711   6.531  17.757  0.00  0.00    +0.000 C 
ATOM     18  C   UNL     1       7.589   5.511  18.868  0.00  0.00    +0.000 C 
ENDBRANCH  16  18
ENDBRANCH  14  16
BRANCH  14  19
ATOM     19  O   UNL     1       4.767   5.057  17.314  0.00  0.00    +0.000 OA
BRANCH  19  20
ATOM     20  C   UNL     1       4.878   4.280  16.107  0.00  0.00    +0.000 C 
ATOM     21  C   UNL     1       5.846   4.795  15.034  0.00  0.00    +0.000 C 
ENDBRANCH  19  20
ENDBRANCH  14  19
ENDBRANCH   9  14
ENDBRANCH   7   9
ENDBRANCH   1   7
BRANCH   4  22
ATOM     22  C   UNL     1       0.365  10.827  20.290  0.00  0.00    +0.000 C 
BRANCH  22  23
ATOM     23  N   UNL     1       1.210  11.994  20.095  0.00  0.00    +0.000 N 
ATOM     24  C   UNL     1       0.895  12.973  19.165  0.00  0.00    +0.000 C 
ATOM     25  O   UNL     1      -0.048  12.879  18.412  0.00  0.00    +0.000 OA
ATOM     26  H   UNL     1       1.955  12.142  20.763  0.00  0.00    +0.000 HD
BRANCH  24  27
ATOM     27  C   UNL     1       1.893  14.168  19.118  0.00  0.00    +0.000 C 
ATOM     28  C   UNL     1       1.127  15.491  18.866  0.00  0.00    +0.000 C 
ATOM     29  C   UNL     1       2.105  16.673  18.769  0.00  0.00    +0.000 C 
ATOM     30  C   UNL     1       2.881  16.811  20.089  0.00  0.00    +0.000 C 
ATOM     31  C   UNL     1       3.659  15.516  20.376  0.00  0.00    +0.000 C 
ATOM     32  C   UNL     1       4.656  15.269  19.233  0.00  0.00    +0.000 C 
ATOM     33  C   UNL     1       3.901  15.130  17.902  0.00  0.00    +0.000 C 
ATOM     34  C   UNL     1       3.097  16.411  17.625  0.00  0.00    +0.000 C 
ATOM     35  C   UNL     1       2.933  13.942  17.995  0.00  0.00    +0.000 C 
ATOM     36  C   UNL     1       2.670  14.332  20.458  0.00  0.00    +0.000 C 
ENDBRANCH  24  27
ENDBRANCH  22  23
ENDBRANCH   4  22
TORSDOF 11
ENDMDL
MODEL 3
REMARK VINA RESULT:      -7.6      1.793      3.459
REMARK  Name = 
REMARK  16 active torsions:
REMARK  status: ('A' for Active; 'I' for Inactive)
REMARK    1  A    between atoms: C_1  and  C_2
REMARK    2  A    between atoms: C_2  and  O_3
REMARK    3  A    between atoms: O_3  and  P_4
REMARK    4  A    between atoms: P_4  and  O_6
REMARK    5  A    between atoms: P_4  and  C_9
REMARK    6  A    between atoms: O_6  and  C_7
REMARK    7  A    between atoms: C_7  and  C_8
REMARK    8  A    between atoms: C_9  and  N_10
REMARK    9  A    between atoms: C_9  and  C_31
REMARK   10  A    between atoms: N_10  and  C_11
REMARK   11  A    between atoms: C_14  and  C_15
REMARK   12  A    between atoms: C_15  and  N_16
REMARK   13  A    between atoms: C_17  and  C_19
REMARK   14  A    between atoms: C_31  and  C_32
REMARK   15  A    between atoms: C_31  and  C_33
REMARK   16  A    between atoms: C_31  and  C_34
REMARK                            x       y       z     vdW  Elec       q    Type
REMARK                         _______ _______ _______ _____ _____    ______ ____
ROOT
ATOM      1  C   UNL     1       2.316   7.060  18.945  0.00  0.00    +0.000 A 
ATOM      2  C   UNL     1       2.079   8.125  18.042  0.00  0.00    +0.000 A 
ATOM      3  C   UNL     1       1.476   9.314  18.471  0.00  0.00    +0.000 A 
ATOM      4  C   UNL     1       1.053   9.504  19.784  0.00  0.00    +0.000 A 
ATOM      5  C   UNL     1       1.284   8.458  20.685  0.00  0.00    +0.000 A 
ATOM      6  C   UNL     1       1.889   7.250  20.264  0.00  0.00    +0.000 A 
ENDROOT
BRANCH   1   7
ATOM      7  N   UNL     1       2.839   5.855  18.465  0.00  0.00    +0.000 N 
ATOM      8  H   UNL     1       3.214   5.882  17.516  0.00  0.00    +0.000 HD
BRANCH   7   9
ATOM      9  C   UNL     1       3.342   4.680  19.261  0.00  0.00    +0.000 C 
BRANCH   9  10
ATOM     10  C   UNL     1       2.252   3.504  19.060  0.00  0.00    +0.000 C 
ATOM     11  C   UNL     1       3.018   2.194  19.049  0.00  0.00    +0.000 C 
ATOM     12  C   UNL     1       1.304   3.204  20.247  0.00  0.00    +0.000 C 
ATOM     13  C   UNL     1       1.341   3.667  17.809  0.00  0.00    +0.000 C 
ENDBRANCH   9  10
BRANCH   9  14
ATOM     14  P   UNL     1       5.117   4.527  18.849  0.00  0.00    +0.000 P 
ATOM     15  O   UNL     1       5.450   5.744  19.712  0.00  0.00    +0.000 OA
BRANCH  14  16
ATOM     16  O   UNL     1       6.797   4.384  18.460  0.00  0.00    +0.000 OA
BRANCH  16  18
ATOM     17  C   UNL     1       7.685   6.505  17.725  0.00  0.00    +0.000 C 
ATOM     18  C   UNL     1       7.581   5.510  18.861  0.00  0.00    +0.000 C 
ENDBRANCH  16  18
ENDBRANCH  14  16
BRANCH  14  19
ATOM     19  O   UNL     1       4.809   4.990  17.275  0.00  0.00    +0.000 OA
BRANCH  19  20
ATOM     20  C   UNL     1       5.066   4.244  16.071  0.00  0.00    +0.000 C 
ATOM     21  C   UNL     1       5.680   5.012  14.894  0.00  0.00    +0.000 C 
ENDBRANCH  19  20
ENDBRANCH  14  19
ENDBRANCH   9  14
ENDBRANCH   7   9
ENDBRANCH   1   7
BRANCH   4  22
ATOM     22  C   UNL     1       0.375  10.763  20.244  0.00  0.00    +0.000 C 
BRANCH  22  23
ATOM     23  N   UNL     1       1.212  11.933  20.035  0.00  0.00    +0.000 N 
ATOM     24  C   UNL     1       0.851  12.937  19.148  0.00  0.00    +0.000 C 
ATOM     25  O   UNL     1      -0.130  12.864  18.444  0.00  0.00    +0.000 OA
ATOM     26  H   UNL     1       1.991  12.064  20.667  0.00  0.00    +0.000 HD
BRANCH  24  27
ATOM     27  C   UNL     1       1.849  14.132  19.080  0.00  0.00    +0.000 C 
ATOM     28  C   UNL     1       2.657  14.224  20.399  0.00  0.00    +0.000 C 
ATOM     29  C   UNL     1       3.612  15.429  20.365  0.00  0.00    +0.000 C 
ATOM     30  C   UNL     1       4.605  15.269  19.203  0.00  0.00    +0.000 C 
ATOM     31  C   UNL     1       3.841  15.174  17.871  0.00  0.00    +0.000 C 
ATOM     32  C   UNL     1       3.035  16.467  17.665  0.00  0.00    +0.000 C 
ATOM     33  C   UNL     1       2.036  16.648  18.819  0.00  0.00    +0.000 C 
ATOM     34  C   UNL     1       2.793  16.713  20.156  0.00  0.00    +0.000 C 
ATOM     35  C   UNL     1       1.075  15.451  18.845  0.00  0.00    +0.000 C 
ATOM     36  C   UNL     1       2.874  13.970  17.920  0.00  0.00    +0.000 C 
ENDBRANCH  24  27
ENDBRANCH  22  23
ENDBRANCH   4  22
TORSDOF 11
ENDMDL
MODEL 4
REMARK VINA RESULT:      -7.6      1.981      3.648
REMARK  Name = 
REMARK  16 active torsions:
REMARK  status: ('A' for Active; 'I' for Inactive)
REMARK    1  A    between atoms: C_1  and  C_2
REMARK    2  A    between atoms: C_2  and  O_3
REMARK    3  A    between atoms: O_3  and  P_4
REMARK    4  A    between atoms: P_4  and  O_6
REMARK    5  A    between atoms: P_4  and  C_9
REMARK    6  A    between atoms: O_6  and  C_7
REMARK    7  A    between atoms: C_7  and  C_8
REMARK    8  A    between atoms: C_9  and  N_10
REMARK    9  A    between atoms: C_9  and  C_31
REMARK   10  A    between atoms: N_10  and  C_11
REMARK   11  A    between atoms: C_14  and  C_15
REMARK   12  A    between atoms: C_15  and  N_16
REMARK   13  A    between atoms: C_17  and  C_19
REMARK   14  A    between atoms: C_31  and  C_32
REMARK   15  A    between atoms: C_31  and  C_33
REMARK   16  A    between atoms: C_31  and  C_34
REMARK                            x       y       z     vdW  Elec       q    Type
REMARK                         _______ _______ _______ _____ _____    ______ ____
ROOT
ATOM      1  C   UNL     1       2.612   7.176  18.487  0.00  0.00    +0.000 A 
ATOM      2  C   UNL     1       2.278   8.304  17.697  0.00  0.00    +0.000 A 
ATOM      3  C   UNL     1       1.603   9.398  18.251  0.00  0.00    +0.000 A 
ATOM      4  C   UNL     1       1.197   9.427  19.583  0.00  0.00    +0.000 A 
ATOM      5  C   UNL     1       1.524   8.318  20.372  0.00  0.00    +0.000 A 
ATOM      6  C   UNL     1       2.204   7.205  19.824  0.00  0.00    +0.000 A 
ENDROOT
BRANCH   1   7
ATOM      7  N   UNL     1       3.209   6.066  17.881  0.00  0.00    +0.000 N 
ATOM      8  H   UNL     1       3.560   6.213  16.935  0.00  0.00    +0.000 HD
BRANCH   7   9
ATOM      9  C   UNL     1       3.810   4.857  18.550  0.00  0.00    +0.000 C 
BRANCH   9  10
ATOM     10  C   UNL     1       2.627   3.762  18.643  0.00  0.00    +0.000 C 
ATOM     11  C   UNL     1       1.534   4.215  17.691  0.00  0.00    +0.000 C 
ATOM     12  C   UNL     1       2.901   2.367  18.029  0.00  0.00    +0.000 C 
ATOM     13  C   UNL     1       2.089   3.504  20.080  0.00  0.00    +0.000 C 
ENDBRANCH   9  10
BRANCH   9  14
ATOM     14  P   UNL     1       5.414   4.579  17.716  0.00  0.00    +0.000 P 
ATOM     15  O   UNL     1       5.908   3.734  18.889  0.00  0.00    +0.000 OA
BRANCH  14  16
ATOM     16  O   UNL     1       6.932   4.315  16.928  0.00  0.00    +0.000 OA
BRANCH  16  18
ATOM     17  C   UNL     1       5.510   4.296  14.977  0.00  0.00    +0.000 C 
ATOM     18  C   UNL     1       6.900   4.554  15.518  0.00  0.00    +0.000 C 
ENDBRANCH  16  18
ENDBRANCH  14  16
BRANCH  14  19
ATOM     19  O   UNL     1       5.825   6.182  17.933  0.00  0.00    +0.000 OA
BRANCH  19  20
ATOM     20  C   UNL     1       7.104   6.719  18.318  0.00  0.00    +0.000 C 
ATOM     21  C   UNL     1       7.668   7.859  17.459  0.00  0.00    +0.000 C 
ENDBRANCH  19  20
ENDBRANCH  14  19
ENDBRANCH   9  14
ENDBRANCH   7   9
ENDBRANCH   1   7
BRANCH   4  22
ATOM     22  C   UNL     1       0.442  10.583  20.176  0.00  0.00    +0.000 C 
BRANCH  22  23
ATOM     23  N   UNL     1       1.169  11.833  20.033  0.00  0.00    +0.000 N 
ATOM     24  C   UNL     1       0.735  12.833  19.175  0.00  0.00    +0.000 C 
ATOM     25  O   UNL     1      -0.219  12.697  18.444  0.00  0.00    +0.000 OA
ATOM     26  H   UNL     1       1.919  12.010  20.689  0.00  0.00    +0.000 HD
BRANCH  24  27
ATOM     27  C   UNL     1       1.617  14.117  19.178  0.00  0.00    +0.000 C 
ATOM     28  C   UNL     1       2.705  14.017  18.078  0.00  0.00    +0.000 C 
ATOM     29  C   UNL     1       3.613  15.258  18.102  0.00  0.00    +0.000 C 
ATOM     30  C   UNL     1       2.774  16.517  17.834  0.00  0.00    +0.000 C 
ATOM     31  C   UNL     1       1.681  16.655  18.907  0.00  0.00    +0.000 C 
ATOM     32  C   UNL     1       2.348  16.782  20.286  0.00  0.00    +0.000 C 
ATOM     33  C   UNL     1       3.194  15.532  20.573  0.00  0.00    +0.000 C 
ATOM     34  C   UNL     1       4.270  15.373  19.486  0.00  0.00    +0.000 C 
ATOM     35  C   UNL     1       2.285  14.295  20.562  0.00  0.00    +0.000 C 
ATOM     36  C   UNL     1       0.782  15.399  18.886  0.00  0.00    +0.000 C 
ENDBRANCH  24  27
ENDBRANCH  22  23
ENDBRANCH   4  22
TORSDOF 11
ENDMDL
MODEL 5
REMARK VINA RESULT:      -7.6      2.003      3.675
REMARK  Name = 
REMARK  16 active torsions:
REMARK  status: ('A' for Active; 'I' for Inactive)
REMARK    1  A    between atoms: C_1  and  C_2
REMARK    2  A    between atoms: C_2  and  O_3
REMARK    3  A    between atoms: O_3  and  P_4
REMARK    4  A    between atoms: P_4  and  O_6
REMARK    5  A    between atoms: P_4  and  C_9
REMARK    6  A    between atoms: O_6  and  C_7
REMARK    7  A    between atoms: C_7  and  C_8
REMARK    8  A    between atoms: C_9  and  N_10
REMARK    9  A    between atoms: C_9  and  C_31
REMARK   10  A    between atoms: N_10  and  C_11
REMARK   11  A    between atoms: C_14  and  C_15
REMARK   12  A    between atoms: C_15  and  N_16
REMARK   13  A    between atoms: C_17  and  C_19
REMARK   14  A    between atoms: C_31  and  C_32
REMARK   15  A    between atoms: C_31  and  C_33
REMARK   16  A    between atoms: C_31  and  C_34
REMARK                            x       y       z     vdW  Elec       q    Type
REMARK                         _______ _______ _______ _____ _____    ______ ____
ROOT
ATOM      1  C   UNL     1       2.618   7.250  18.427  0.00  0.00    +0.000 A 
ATOM      2  C   UNL     1       2.309   8.390  17.645  0.00  0.00    +0.000 A 
ATOM      3  C   UNL     1       1.651   9.492  18.204  0.00  0.00    +0.000 A 
ATOM      4  C   UNL     1       1.238   9.517  19.534  0.00  0.00    +0.000 A 
ATOM      5  C   UNL     1       1.540   8.396  20.316  0.00  0.00    +0.000 A 
ATOM      6  C   UNL     1       2.203   7.275  19.762  0.00  0.00    +0.000 A 
ENDROOT
BRANCH   1   7
ATOM      7  N   UNL     1       3.197   6.133  17.815  0.00  0.00    +0.000 N 
ATOM      8  H   UNL     1       3.468   6.254  16.839  0.00  0.00    +0.000 HD
BRANCH   7   9
ATOM      9  C   UNL     1       3.885   4.968  18.476  0.00  0.00    +0.000 C 
BRANCH   9  10
ATOM     10  C   UNL     1       2.772   3.804  18.602  0.00  0.00    +0.000 C 
ATOM     11  C   UNL     1       1.629   4.189  17.681  0.00  0.00    +0.000 C 
ATOM     12  C   UNL     1       3.112   2.427  17.980  0.00  0.00    +0.000 C 
ATOM     13  C   UNL     1       2.290   3.517  20.053  0.00  0.00    +0.000 C 
ENDBRANCH   9  10
BRANCH   9  14
ATOM     14  P   UNL     1       5.483   4.781  17.606  0.00  0.00    +0.000 P 
ATOM     15  O   UNL     1       6.082   4.051  18.808  0.00  0.00    +0.000 OA
BRANCH  14  16
ATOM     16  O   UNL     1       6.997   4.603  16.785  0.00  0.00    +0.000 OA
BRANCH  16  18
ATOM     17  C   UNL     1       5.410   4.246  15.001  0.00  0.00    +0.000 C 
ATOM     18  C   UNL     1       6.867   4.235  15.410  0.00  0.00    +0.000 C 
ENDBRANCH  16  18
ENDBRANCH  14  16
BRANCH  14  19
ATOM     19  O   UNL     1       5.758   6.423  17.721  0.00  0.00    +0.000 OA
BRANCH  19  20
ATOM     20  C   UNL     1       6.950   7.145  17.358  0.00  0.00    +0.000 C 
ATOM     21  C   UNL     1       8.036   7.280  18.432  0.00  0.00    +0.000 C 
ENDBRANCH  19  20
ENDBRANCH  14  19
ENDBRANCH   9  14
ENDBRANCH   7   9
ENDBRANCH   1   7
BRANCH   4  22
ATOM     22  C   UNL     1       0.501  10.682  20.132  0.00  0.00    +0.000 C 
BRANCH  22  23
ATOM     23  N   UNL     1       1.250  11.921  19.998  0.00  0.00    +0.000 N 
ATOM     24  C   UNL     1       0.859  12.915  19.114  0.00  0.00    +0.000 C 
ATOM     25  O   UNL     1      -0.071  12.782  18.352  0.00  0.00    +0.000 OA
ATOM     26  H   UNL     1       1.979  12.097  20.677  0.00  0.00    +0.000 HD
BRANCH  24  27
ATOM     27  C   UNL     1       1.758  14.188  19.130  0.00  0.00    +0.000 C 
ATOM     28  C   UNL     1       0.891  15.453  18.903  0.00  0.00    +0.000 C 
ATOM     29  C   UNL     1       1.773  16.713  18.869  0.00  0.00    +0.000 C 
ATOM     30  C   UNL     1       2.506  16.866  20.211  0.00  0.00    +0.000 C 
ATOM     31  C   UNL     1       3.381  15.629  20.474  0.00  0.00    +0.000 C 
ATOM     32  C   UNL     1       4.419  15.503  19.348  0.00  0.00    +0.000 C 
ATOM     33  C   UNL     1       3.706  15.350  17.996  0.00  0.00    +0.000 C 
ATOM     34  C   UNL     1       2.807  16.571  17.741  0.00  0.00    +0.000 C 
ATOM     35  C   UNL     1       2.836  14.085  18.026  0.00  0.00    +0.000 C 
ATOM     36  C   UNL     1       2.490  14.367  20.493  0.00  0.00    +0.000 C 
ENDBRANCH  24  27
ENDBRANCH  22  23
ENDBRANCH   4  22
TORSDOF 11
ENDMDL
MODEL 6
REMARK VINA RESULT:      -7.5      3.611     10.378
REMARK  Name = 
REMARK  16 active torsions:
REMARK  status: ('A' for Active; 'I' for Inactive)
REMARK    1  A    between atoms: C_1  and  C_2
REMARK    2  A    between atoms: C_2  and  O_3
REMARK    3  A    between atoms: O_3  and  P_4
REMARK    4  A    between atoms: P_4  and  O_6
REMARK    5  A    between atoms: P_4  and  C_9
REMARK    6  A    between atoms: O_6  and  C_7
REMARK    7  A    between atoms: C_7  and  C_8
REMARK    8  A    between atoms: C_9  and  N_10
REMARK    9  A    between atoms: C_9  and  C_31
REMARK   10  A    between atoms: N_10  and  C_11
REMARK   11  A    between atoms: C_14  and  C_15
REMARK   12  A    between atoms: C_15  and  N_16
REMARK   13  A    between atoms: C_17  and  C_19
REMARK   14  A    between atoms: C_31  and  C_32
REMARK   15  A    between atoms: C_31  and  C_33
REMARK   16  A    between atoms: C_31  and  C_34
REMARK                            x       y       z     vdW  Elec       q    Type
REMARK                         _______ _______ _______ _____ _____    ______ ____
ROOT
ATOM      1  C   UNL     1      -0.299  10.934  19.991  0.00  0.00    +0.000 A 
ATOM      2  C   UNL     1      -0.085  11.049  18.594  0.00  0.00    +0.000 A 
ATOM      3  C   UNL     1       0.796  10.190  17.927  0.00  0.00    +0.000 A 
ATOM      4  C   UNL     1       1.528   9.210  18.591  0.00  0.00    +0.000 A 
ATOM      5  C   UNL     1       1.323   9.087  19.970  0.00  0.00    +0.000 A 
ATOM      6  C   UNL     1       0.437   9.950  20.658  0.00  0.00    +0.000 A 
ENDROOT
BRANCH   1   7
ATOM      7  N   UNL     1      -1.119  11.863  20.639  0.00  0.00    +0.000 N 
ATOM      8  H   UNL     1      -2.107  11.832  20.388  0.00  0.00    +0.000 HD
BRANCH   7   9
ATOM      9  C   UNL     1      -0.866  12.569  21.945  0.00  0.00    +0.000 C 
BRANCH   9  10
ATOM     10  C   UNL     1      -0.265  14.018  21.561  0.00  0.00    +0.000 C 
ATOM     11  C   UNL     1      -0.320  14.864  22.819  0.00  0.00    +0.000 C 
ATOM     12  C   UNL     1       1.258  14.106  21.294  0.00  0.00    +0.000 C 
ATOM     13  C   UNL     1      -0.957  14.712  20.352  0.00  0.00    +0.000 C 
ENDBRANCH   9  10
BRANCH   9  14
ATOM     14  P   UNL     1      -2.373  12.308  22.947  0.00  0.00    +0.000 P 
ATOM     15  O   UNL     1      -1.902  10.908  23.340  0.00  0.00    +0.000 OA
BRANCH  14  16
ATOM     16  O   UNL     1      -3.800  12.059  23.896  0.00  0.00    +0.000 OA
BRANCH  16  18
ATOM     17  C   UNL     1      -3.547  14.374  24.530  0.00  0.00    +0.000 C 
ATOM     18  C   UNL     1      -3.943  12.983  24.977  0.00  0.00    +0.000 C 
ENDBRANCH  16  18
ENDBRANCH  14  16
BRANCH  14  19
ATOM     19  O   UNL     1      -3.304  12.246  21.563  0.00  0.00    +0.000 OA
BRANCH  19  20
ATOM     20  C   UNL     1      -4.335  13.165  21.153  0.00  0.00    +0.000 C 
ATOM     21  C   UNL     1      -5.073  12.845  19.847  0.00  0.00    +0.000 C 
ENDBRANCH  19  20
ENDBRANCH  14  19
ENDBRANCH   9  14
ENDBRANCH   7   9
ENDBRANCH   1   7
BRANCH   4  22
ATOM     22  C   UNL     1       2.502   8.308  17.886  0.00  0.00    +0.000 C 
BRANCH  22  23
ATOM     23  N   UNL     1       2.300   6.913  18.242  0.00  0.00    +0.000 N 
ATOM     24  C   UNL     1       3.355   6.013  18.283  0.00  0.00    +0.000 C 
ATOM     25  O   UNL     1       4.480   6.310  17.952  0.00  0.00    +0.000 OA
ATOM     26  H   UNL     1       1.391   6.654  18.604  0.00  0.00    +0.000 HD
BRANCH  24  27
ATOM     27  C   UNL     1       2.960   4.571  18.720  0.00  0.00    +0.000 C 
ATOM     28  C   UNL     1       4.138   3.903  19.475  0.00  0.00    +0.000 C 
ATOM     29  C   UNL     1       3.779   2.461  19.870  0.00  0.00    +0.000 C 
ATOM     30  C   UNL     1       2.555   2.469  20.799  0.00  0.00    +0.000 C 
ATOM     31  C   UNL     1       1.360   3.124  20.085  0.00  0.00    +0.000 C 
ATOM     32  C   UNL     1       1.025   2.311  18.824  0.00  0.00    +0.000 C 
ATOM     33  C   UNL     1       2.238   2.288  17.881  0.00  0.00    +0.000 C 
ATOM     34  C   UNL     1       3.444   1.662  18.600  0.00  0.00    +0.000 C 
ATOM     35  C   UNL     1       2.588   3.727  17.477  0.00  0.00    +0.000 C 
ATOM     36  C   UNL     1       1.734   4.567  19.680  0.00  0.00    +0.000 C 
ENDBRANCH  24  27
ENDBRANCH  22  23
ENDBRANCH   4  22
TORSDOF 11
ENDMDL
MODEL 7
REMARK VINA RESULT:      -7.5      3.328      5.031
REMARK  Name = 
REMARK  16 active torsions:
REMARK  status: ('A' for Active; 'I' for Inactive)
REMARK    1  A    between atoms: C_1  and  C_2
REMARK    2  A    between atoms: C_2  and  O_3
REMARK    3  A    between atoms: O_3  and  P_4
REMARK    4  A    between atoms: P_4  and  O_6
REMARK    5  A    between atoms: P_4  and  C_9
REMARK    6  A    between atoms: O_6  and  C_7
REMARK    7  A    between atoms: C_7  and  C_8
REMARK    8  A    between atoms: C_9  and  N_10
REMARK    9  A    between atoms: C_9  and  C_31
REMARK   10  A    between atoms: N_10  and  C_11
REMARK   11  A    between atoms: C_14  and  C_15
REMARK   12  A    between atoms: C_15  and  N_16
REMARK   13  A    between atoms: C_17  and  C_19
REMARK   14  A    between atoms: C_31  and  C_32
REMARK   15  A    between atoms: C_31  and  C_33
REMARK   16  A    between atoms: C_31  and  C_34
REMARK                            x       y       z     vdW  Elec       q    Type
REMARK                         _______ _______ _______ _____ _____    ______ ____
ROOT
ATOM      1  C   UNL     1       2.645   6.831  19.486  0.00  0.00    +0.000 A 
ATOM      2  C   UNL     1       1.826   7.521  20.414  0.00  0.00    +0.000 A 
ATOM      3  C   UNL     1       1.198   8.723  20.067  0.00  0.00    +0.000 A 
ATOM      4  C   UNL     1       1.364   9.318  18.819  0.00  0.00    +0.000 A 
ATOM      5  C   UNL     1       2.170   8.644  17.894  0.00  0.00    +0.000 A 
ATOM      6  C   UNL     1       2.813   7.430  18.233  0.00  0.00    +0.000 A 
ENDROOT
BRANCH   1   7
ATOM      7  N   UNL     1       3.326   5.680  19.894  0.00  0.00    +0.000 N 
ATOM      8  H   UNL     1       3.435   5.564  20.901  0.00  0.00    +0.000 HD
BRANCH   7   9
ATOM      9  C   UNL     1       3.513   4.395  19.131  0.00  0.00    +0.000 C 
BRANCH   9  10
ATOM     10  C   UNL     1       2.070   3.670  19.113  0.00  0.00    +0.000 C 
ATOM     11  C   UNL     1       1.392   4.075  17.816  0.00  0.00    +0.000 C 
ATOM     12  C   UNL     1       2.049   2.135  18.912  0.00  0.00    +0.000 C 
ATOM     13  C   UNL     1       1.181   3.956  20.358  0.00  0.00    +0.000 C 
ENDBRANCH   9  10
BRANCH   9  14
ATOM     14  P   UNL     1       4.464   4.844  17.634  0.00  0.00    +0.000 P 
ATOM     15  O   UNL     1       4.604   3.372  17.249  0.00  0.00    +0.000 OA
BRANCH  14  16
ATOM     16  O   UNL     1       5.364   5.267  16.218  0.00  0.00    +0.000 OA
BRANCH  16  18
ATOM     17  C   UNL     1       6.672   4.468  14.353  0.00  0.00    +0.000 C 
ATOM     18  C   UNL     1       5.511   4.194  15.284  0.00  0.00    +0.000 C 
ENDBRANCH  16  18
ENDBRANCH  14  16
BRANCH  14  19
ATOM     19  O   UNL     1       5.753   5.328  18.578  0.00  0.00    +0.000 OA
BRANCH  19  20
ATOM     20  C   UNL     1       7.129   5.475  18.180  0.00  0.00    +0.000 C 
ATOM     21  C   UNL     1       7.707   6.896  18.182  0.00  0.00    +0.000 C 
ENDBRANCH  19  20
ENDBRANCH  14  19
ENDBRANCH   9  14
ENDBRANCH   7   9
ENDBRANCH   1   7
BRANCH   4  22
ATOM     22  C   UNL     1       0.721  10.626  18.452  0.00  0.00    +0.000 C 
BRANCH  22  23
ATOM     23  N   UNL     1       0.050  11.235  19.588  0.00  0.00    +0.000 N 
ATOM     24  C   UNL     1      -0.751  12.358  19.443  0.00  0.00    +0.000 C 
ATOM     25  O   UNL     1      -0.876  12.939  18.389  0.00  0.00    +0.000 OA
ATOM     26  H   UNL     1       0.066  10.726  20.463  0.00  0.00    +0.000 HD
BRANCH  24  27
ATOM     27  C   UNL     1      -1.420  12.852  20.761  0.00  0.00    +0.000 C 
ATOM     28  C   UNL     1      -0.856  12.065  21.970  0.00  0.00    +0.000 C 
ATOM     29  C   UNL     1      -1.543  12.509  23.273  0.00  0.00    +0.000 C 
ATOM     30  C   UNL     1      -1.283  14.005  23.509  0.00  0.00    +0.000 C 
ATOM     31  C   UNL     1      -1.830  14.824  22.329  0.00  0.00    +0.000 C 
ATOM     32  C   UNL     1      -3.346  14.592  22.219  0.00  0.00    +0.000 C 
ATOM     33  C   UNL     1      -3.628  13.100  21.984  0.00  0.00    +0.000 C 
ATOM     34  C   UNL     1      -3.057  12.273  23.147  0.00  0.00    +0.000 C 
ATOM     35  C   UNL     1      -2.953  12.660  20.677  0.00  0.00    +0.000 C 
ATOM     36  C   UNL     1      -1.145  14.362  21.023  0.00  0.00    +0.000 C 
ENDBRANCH  24  27
ENDBRANCH  22  23
ENDBRANCH   4  22
TORSDOF 11
ENDMDL
MODEL 8
REMARK VINA RESULT:      -7.5      1.713      3.177
REMARK  Name = 
REMARK  16 active torsions:
REMARK  status: ('A' for Active; 'I' for Inactive)
REMARK    1  A    between atoms: C_1  and  C_2
REMARK    2  A    between atoms: C_2  and  O_3
REMARK    3  A    between atoms: O_3  and  P_4
REMARK    4  A    between atoms: P_4  and  O_6
REMARK    5  A    between atoms: P_4  and  C_9
REMARK    6  A    between atoms: O_6  and  C_7
REMARK    7  A    between atoms: C_7  and  C_8
REMARK    8  A    between atoms: C_9  and  N_10
REMARK    9  A    between atoms: C_9  and  C_31
REMARK   10  A    between atoms: N_10  and  C_11
REMARK   11  A    between atoms: C_14  and  C_15
REMARK   12  A    between atoms: C_15  and  N_16
REMARK   13  A    between atoms: C_17  and  C_19
REMARK   14  A    between atoms: C_31  and  C_32
REMARK   15  A    between atoms: C_31  and  C_33
REMARK   16  A    between atoms: C_31  and  C_34
REMARK                            x       y       z     vdW  Elec       q    Type
REMARK                         _______ _______ _______ _____ _____    ______ ____
ROOT
ATOM      1  C   UNL     1       2.595   7.068  19.368  0.00  0.00    +0.000 A 
ATOM      2  C   UNL     1       1.842   7.704  20.386  0.00  0.00    +0.000 A 
ATOM      3  C   UNL     1       1.084   8.849  20.114  0.00  0.00    +0.000 A 
ATOM      4  C   UNL     1       1.053   9.441  18.854  0.00  0.00    +0.000 A 
ATOM      5  C   UNL     1       1.792   8.819  17.841  0.00  0.00    +0.000 A 
ATOM      6  C   UNL     1       2.564   7.663  18.102  0.00  0.00    +0.000 A 
ENDROOT
BRANCH   1   7
ATOM      7  N   UNL     1       3.409   5.978  19.694  0.00  0.00    +0.000 N 
ATOM      8  H   UNL     1       3.678   5.904  20.675  0.00  0.00    +0.000 HD
BRANCH   7   9
ATOM      9  C   UNL     1       3.566   4.682  18.943  0.00  0.00    +0.000 C 
BRANCH   9  10
ATOM     10  C   UNL     1       2.148   3.919  19.064  0.00  0.00    +0.000 C 
ATOM     11  C   UNL     1       1.374   4.227  17.796  0.00  0.00    +0.000 C 
ATOM     12  C   UNL     1       2.161   2.374  18.954  0.00  0.00    +0.000 C 
ATOM     13  C   UNL     1       1.335   4.254  20.348  0.00  0.00    +0.000 C 
ENDBRANCH   9  10
BRANCH   9  14
ATOM     14  P   UNL     1       4.371   5.124  17.361  0.00  0.00    +0.000 P 
ATOM     15  O   UNL     1       4.709   3.658  17.093  0.00  0.00    +0.000 OA
BRANCH  14  16
ATOM     16  O   UNL     1       5.134   5.541  15.864  0.00  0.00    +0.000 OA
BRANCH  16  18
ATOM     17  C   UNL     1       6.771   4.639  14.337  0.00  0.00    +0.000 C 
ATOM     18  C   UNL     1       5.452   4.413  15.045  0.00  0.00    +0.000 C 
ENDBRANCH  16  18
ENDBRANCH  14  16
BRANCH  14  19
ATOM     19  O   UNL     1       5.617   5.872  18.184  0.00  0.00    +0.000 OA
BRANCH  19  20
ATOM     20  C   UNL     1       6.671   6.686  17.636  0.00  0.00    +0.000 C 
ATOM     21  C   UNL     1       7.951   6.822  18.471  0.00  0.00    +0.000 C 
ENDBRANCH  19  20
ENDBRANCH  14  19
ENDBRANCH   9  14
ENDBRANCH   7   9
ENDBRANCH   1   7
BRANCH   4  22
ATOM     22  C   UNL     1       0.269  10.689  18.563  0.00  0.00    +0.000 C 
BRANCH  22  23
ATOM     23  N   UNL     1       1.128  11.860  18.490  0.00  0.00    +0.000 N 
ATOM     24  C   UNL     1       1.165  12.800  19.510  0.00  0.00    +0.000 C 
ATOM     25  O   UNL     1       0.436  12.745  20.474  0.00  0.00    +0.000 OA
ATOM     26  H   UNL     1       1.807  11.890  17.740  0.00  0.00    +0.000 HD
BRANCH  24  27
ATOM     27  C   UNL     1       2.168  13.969  19.278  0.00  0.00    +0.000 C 
ATOM     28  C   UNL     1       2.986  14.231  20.569  0.00  0.00    +0.000 C 
ATOM     29  C   UNL     1       3.947  15.415  20.369  0.00  0.00    +0.000 C 
ATOM     30  C   UNL     1       4.931  15.095  19.233  0.00  0.00    +0.000 C 
ATOM     31  C   UNL     1       4.158  14.829  17.930  0.00  0.00    +0.000 C 
ATOM     32  C   UNL     1       3.358  16.088  17.559  0.00  0.00    +0.000 C 
ATOM     33  C   UNL     1       2.368  16.427  18.684  0.00  0.00    +0.000 C 
ATOM     34  C   UNL     1       3.133  16.664  19.996  0.00  0.00    +0.000 C 
ATOM     35  C   UNL     1       1.401  15.250  18.874  0.00  0.00    +0.000 C 
ATOM     36  C   UNL     1       3.186  13.648  18.144  0.00  0.00    +0.000 C 
ENDBRANCH  24  27
ENDBRANCH  22  23
ENDBRANCH   4  22
TORSDOF 11
ENDMDL
MODEL 9
REMARK VINA RESULT:      -7.5      1.888      3.651
REMARK  Name = 
REMARK  16 active torsions:
REMARK  status: ('A' for Active; 'I' for Inactive)
REMARK    1  A    between atoms: C_1  and  C_2
REMARK    2  A    between atoms: C_2  and  O_3
REMARK    3  A    between atoms: O_3  and  P_4
REMARK    4  A    between atoms: P_4  and  O_6
REMARK    5  A    between atoms: P_4  and  C_9
REMARK    6  A    between atoms: O_6  and  C_7
REMARK    7  A    between atoms: C_7  and  C_8
REMARK    8  A    between atoms: C_9  and  N_10
REMARK    9  A    between atoms: C_9  and  C_31
REMARK   10  A    between atoms: N_10  and  C_11
REMARK   11  A    between atoms: C_14  and  C_15
REMARK   12  A    between atoms: C_15  and  N_16
REMARK   13  A    between atoms: C_17  and  C_19
REMARK   14  A    between atoms: C_31  and  C_32
REMARK   15  A    between atoms: C_31  and  C_33
REMARK   16  A    between atoms: C_31  and  C_34
REMARK                            x       y       z     vdW  Elec       q    Type
REMARK                         _______ _______ _______ _____ _____    ______ ____
ROOT
ATOM      1  C   UNL     1       2.692   7.146  18.341  0.00  0.00    +0.000 A 
ATOM      2  C   UNL     1       2.471   8.282  17.523  0.00  0.00    +0.000 A 
ATOM      3  C   UNL     1       1.853   9.430  18.033  0.00  0.00    +0.000 A 
ATOM      4  C   UNL     1       1.397   9.509  19.346  0.00  0.00    +0.000 A 
ATOM      5  C   UNL     1       1.612   8.394  20.164  0.00  0.00    +0.000 A 
ATOM      6  C   UNL     1       2.233   7.226  19.660  0.00  0.00    +0.000 A 
ENDROOT
BRANCH   1   7
ATOM      7  N   UNL     1       3.233   5.987  17.776  0.00  0.00    +0.000 N 
ATOM      8  H   UNL     1       3.490   6.053  16.791  0.00  0.00    +0.000 HD
BRANCH   7   9
ATOM      9  C   UNL     1       3.902   4.837  18.482  0.00  0.00    +0.000 C 
BRANCH   9  10
ATOM     10  C   UNL     1       2.785   3.677  18.607  0.00  0.00    +0.000 C 
ATOM     11  C   UNL     1       2.410   3.585  20.075  0.00  0.00    +0.000 C 
ATOM     12  C   UNL     1       1.379   3.981  18.032  0.00  0.00    +0.000 C 
ATOM     13  C   UNL     1       3.206   2.300  18.017  0.00  0.00    +0.000 C 
ENDBRANCH   9  10
BRANCH   9  14
ATOM     14  P   UNL     1       5.522   4.629  17.660  0.00  0.00    +0.000 P 
ATOM     15  O   UNL     1       5.988   3.675  18.758  0.00  0.00    +0.000 OA
BRANCH  14  16
ATOM     16  O   UNL     1       7.056   4.431  16.882  0.00  0.00    +0.000 OA
BRANCH  16  18
ATOM     17  C   UNL     1       5.651   4.858  14.967  0.00  0.00    +0.000 C 
ATOM     18  C   UNL     1       6.971   4.307  15.460  0.00  0.00    +0.000 C 
ENDBRANCH  16  18
ENDBRANCH  14  16
BRANCH  14  19
ATOM     19  O   UNL     1       5.935   6.202  18.035  0.00  0.00    +0.000 OA
BRANCH  19  20
ATOM     20  C   UNL     1       7.253   6.741  18.248  0.00  0.00    +0.000 C 
ATOM     21  C   UNL     1       7.620   8.011  17.472  0.00  0.00    +0.000 C 
ENDBRANCH  19  20
ENDBRANCH  14  19
ENDBRANCH   9  14
ENDBRANCH   7   9
ENDBRANCH   1   7
BRANCH   4  22
ATOM     22  C   UNL     1       0.702  10.725  19.891  0.00  0.00    +0.000 C 
BRANCH  22  23
ATOM     23  N   UNL     1       1.373  11.952  19.496  0.00  0.00    +0.000 N 
ATOM     24  C   UNL     1       1.531  13.011  20.378  0.00  0.00    +0.000 C 
ATOM     25  O   UNL     1       1.058  13.009  21.492  0.00  0.00    +0.000 OA
ATOM     26  H   UNL     1       1.852  11.953  18.604  0.00  0.00    +0.000 HD
BRANCH  24  27
ATOM     27  C   UNL     1       2.306  14.230  19.796  0.00  0.00    +0.000 C 
ATOM     28  C   UNL     1       2.506  14.053  18.269  0.00  0.00    +0.000 C 
ATOM     29  C   UNL     1       3.313  15.227  17.689  0.00  0.00    +0.000 C 
ATOM     30  C   UNL     1       2.553  16.542  17.925  0.00  0.00    +0.000 C 
ATOM     31  C   UNL     1       2.334  16.757  19.432  0.00  0.00    +0.000 C 
ATOM     32  C   UNL     1       3.702  16.839  20.128  0.00  0.00    +0.000 C 
ATOM     33  C   UNL     1       4.480  15.533  19.903  0.00  0.00    +0.000 C 
ATOM     34  C   UNL     1       4.675  15.297  18.396  0.00  0.00    +0.000 C 
ATOM     35  C   UNL     1       3.681  14.363  20.493  0.00  0.00    +0.000 C 
ATOM     36  C   UNL     1       1.536  15.567  20.009  0.00  0.00    +0.000 C 
ENDBRANCH  24  27
ENDBRANCH  22  23
ENDBRANCH   4  22
TORSDOF 11
ENDMDL
