MODEL 1
REMARK VINA RESULT:      -7.4      0.000      0.000
REMARK  Name = 
REMARK  6 active torsions:
REMARK  status: ('A' for Active; 'I' for Inactive)
REMARK    1  A    between atoms: C_2  and  C_3
REMARK    2  A    between atoms: C_3  and  C_4
REMARK    3  A    between atoms: C_4  and  C_5
REMARK    4  A    between atoms: C_5  and  N_6
REMARK    5  A    between atoms: C_7  and  S_8
REMARK    6  A    between atoms: S_8  and  C_9
REMARK                            x       y       z     vdW  Elec       q    Type
REMARK                         _______ _______ _______ _____ _____    ______ ____
ROOT
ATOM      1  N   UNL     1       3.945   5.188  17.714  0.00  0.00    +0.000 N 
ATOM      2  C   UNL     1       3.007   6.134  18.082  0.00  0.00    +0.000 A 
ATOM      3  N   UNL     1       1.999   5.600  18.741  0.00  0.00    +0.000 NA
ATOM      4  C   UNL     1       2.278   4.247  18.793  0.00  0.00    +0.000 A 
ATOM      5  C   UNL     1       1.610   3.140  19.345  0.00  0.00    +0.000 A 
ATOM      6  N   UNL     1       0.407   3.228  20.030  0.00  0.00    +0.000 N 
ATOM      7  N   UNL     1       2.165   1.911  19.237  0.00  0.00    +0.000 NA
ATOM      8  C   UNL     1       3.338   1.790  18.589  0.00  0.00    +0.000 A 
ATOM      9  N   UNL     1       4.054   2.770  18.036  0.00  0.00    +0.000 NA
ATOM     10  C   UNL     1       3.478   3.976  18.167  0.00  0.00    +0.000 A 
ATOM     11  H   UNL     1       0.239   4.142  20.433  0.00  0.00    +0.000 HD
ATOM     12  H   UNL     1       0.278   2.421  20.628  0.00  0.00    +0.000 HD
ENDROOT
BRANCH   1  13
ATOM     13  C   UNL     1       5.180   5.398  16.962  0.00  0.00    +0.000 C 
BRANCH  13  14
ATOM     14  C   UNL     1       5.067   5.088  15.466  0.00  0.00    +0.000 C 
BRANCH  14  15
ATOM     15  C   UNL     1       6.110   4.144  14.931  0.00  0.00    +0.000 C 
BRANCH  15  17
ATOM     16  N   UNL     1       8.053   5.595  13.570  0.00  0.00    +0.000 NA
ATOM     17  C   UNL     1       7.171   4.937  14.187  0.00  0.00    +0.000 C 
ENDBRANCH  15  17
ENDBRANCH  14  15
ENDBRANCH  13  14
ENDBRANCH   1  13
BRANCH   2  18
ATOM     18  S   UNL     1       3.214   7.836  17.792  0.00  0.00    +0.000 S 
BRANCH  18  19
ATOM     19  C   UNL     1       1.820   8.565  18.655  0.00  0.00    +0.000 A 
ATOM     20  C   UNL     1       1.770   8.480  20.056  0.00  0.00    +0.000 A 
ATOM     21  C   UNL     1       0.782   9.165  20.774  0.00  0.00    +0.000 A 
ATOM     22 CL   UNL     1       0.752   9.076  22.494  0.00  0.00    +0.000 Cl
ATOM     23  C   UNL     1      -0.161   9.948  20.117  0.00  0.00    +0.000 A 
ATOM     24  C   UNL     1      -0.122  10.022  18.730  0.00  0.00    +0.000 A 
ATOM     25 CL   UNL     1      -1.265  11.006  17.899  0.00  0.00    +0.000 Cl
ATOM     26  C   UNL     1       0.854   9.338  17.999  0.00  0.00    +0.000 A 
ENDBRANCH  18  19
ENDBRANCH   2  18
TORSDOF 6
ENDMDL
MODEL 2
REMARK VINA RESULT:      -7.4      3.625      6.817
REMARK  Name = 
REMARK  6 active torsions:
REMARK  status: ('A' for Active; 'I' for Inactive)
REMARK    1  A    between atoms: C_2  and  C_3
REMARK    2  A    between atoms: C_3  and  C_4
REMARK    3  A    between atoms: C_4  and  C_5
REMARK    4  A    between atoms: C_5  and  N_6
REMARK    5  A    between atoms: C_7  and  S_8
REMARK    6  A    between atoms: S_8  and  C_9
REMARK                            x       y       z     vdW  Elec       q    Type
REMARK                         _______ _______ _______ _____ _____    ______ ____
ROOT
ATOM      1  N   UNL     1       2.148   6.194  19.800  0.00  0.00    +0.000 N 
ATOM      2  C   UNL     1       2.413   6.111  18.446  0.00  0.00    +0.000 A 
ATOM      3  N   UNL     1       2.254   7.270  17.839  0.00  0.00    +0.000 NA
ATOM      4  C   UNL     1       1.854   8.145  18.831  0.00  0.00    +0.000 A 
ATOM      5  C   UNL     1       1.524   9.511  18.843  0.00  0.00    +0.000 A 
ATOM      6  N   UNL     1       1.559  10.323  17.718  0.00  0.00    +0.000 N 
ATOM      7  N   UNL     1       1.172  10.097  20.010  0.00  0.00    +0.000 NA
ATOM      8  C   UNL     1       1.140   9.342  21.124  0.00  0.00    +0.000 A 
ATOM      9  N   UNL     1       1.436   8.046  21.224  0.00  0.00    +0.000 NA
ATOM     10  C   UNL     1       1.786   7.498  20.049  0.00  0.00    +0.000 A 
ATOM     11  H   UNL     1       2.185   9.985  16.997  0.00  0.00    +0.000 HD
ATOM     12  H   UNL     1       1.635  11.297  17.985  0.00  0.00    +0.000 HD
ENDROOT
BRANCH   1  13
ATOM     13  C   UNL     1       2.199   5.121  20.789  0.00  0.00    +0.000 C 
BRANCH  13  14
ATOM     14  C   UNL     1       1.048   4.114  20.686  0.00  0.00    +0.000 C 
BRANCH  14  15
ATOM     15  C   UNL     1       1.445   2.674  20.869  0.00  0.00    +0.000 C 
BRANCH  15  17
ATOM     16  N   UNL     1       4.182   2.415  20.457  0.00  0.00    +0.000 NA
ATOM     17  C   UNL     1       2.941   2.532  20.644  0.00  0.00    +0.000 C 
ENDBRANCH  15  17
ENDBRANCH  14  15
ENDBRANCH  13  14
ENDBRANCH   1  13
BRANCH   2  18
ATOM     18  S   UNL     1       2.991   4.660  17.682  0.00  0.00    +0.000 S 
BRANCH  18  19
ATOM     19  C   UNL     1       4.701   5.056  17.304  0.00  0.00    +0.000 A 
ATOM     20  C   UNL     1       5.583   5.331  18.362  0.00  0.00    +0.000 A 
ATOM     21  C   UNL     1       6.952   5.494  18.121  0.00  0.00    +0.000 A 
ATOM     22 CL   UNL     1       8.026   5.800  19.432  0.00  0.00    +0.000 Cl
ATOM     23  C   UNL     1       7.466   5.379  16.834  0.00  0.00    +0.000 A 
ATOM     24  C   UNL     1       6.593   5.120  15.784  0.00  0.00    +0.000 A 
ATOM     25 CL   UNL     1       7.213   4.949  14.186  0.00  0.00    +0.000 Cl
ATOM     26  C   UNL     1       5.222   4.962  16.009  0.00  0.00    +0.000 A 
ENDBRANCH  18  19
ENDBRANCH   2  18
TORSDOF 6
ENDMDL
MODEL 3
REMARK VINA RESULT:      -7.3      2.002      4.296
REMARK  Name = 
REMARK  6 active torsions:
REMARK  status: ('A' for Active; 'I' for Inactive)
REMARK    1  A    between atoms: C_2  and  C_3
REMARK    2  A    between atoms: C_3  and  C_4
REMARK    3  A    between atoms: C_4  and  C_5
REMARK    4  A    between atoms: C_5  and  N_6
REMARK    5  A    between atoms: C_7  and  S_8
REMARK    6  A    between atoms: S_8  and  C_9
REMARK                            x       y       z     vdW  Elec       q    Type
REMARK                         _______ _______ _______ _____ _____    ______ ____
ROOT
ATOM      1  N   UNL     1       3.706   4.540  17.941  0.00  0.00    +0.000 N 
ATOM      2  C   UNL     1       3.840   5.102  19.197  0.00  0.00    +0.000 A 
ATOM      3  N   UNL     1       5.007   5.694  19.352  0.00  0.00    +0.000 NA
ATOM      4  C   UNL     1       5.672   5.499  18.156  0.00  0.00    +0.000 A 
ATOM      5  C   UNL     1       6.941   5.874  17.680  0.00  0.00    +0.000 A 
ATOM      6  N   UNL     1       7.857   6.606  18.421  0.00  0.00    +0.000 N 
ATOM      7  N   UNL     1       7.303   5.532  16.423  0.00  0.00    +0.000 NA
ATOM      8  C   UNL     1       6.434   4.830  15.671  0.00  0.00    +0.000 A 
ATOM      9  N   UNL     1       5.211   4.431  16.022  0.00  0.00    +0.000 NA
ATOM     10  C   UNL     1       4.882   4.791  17.272  0.00  0.00    +0.000 A 
ATOM     11  H   UNL     1       7.429   7.169  19.146  0.00  0.00    +0.000 HD
ATOM     12  H   UNL     1       8.526   7.059  17.811  0.00  0.00    +0.000 HD
ENDROOT
BRANCH   1  13
ATOM     13  C   UNL     1       2.569   3.792  17.413  0.00  0.00    +0.000 C 
BRANCH  13  14
ATOM     14  C   UNL     1       2.338   2.436  18.088  0.00  0.00    +0.000 C 
BRANCH  14  15
ATOM     15  C   UNL     1       3.540   1.531  18.126  0.00  0.00    +0.000 C 
BRANCH  15  17
ATOM     16  N   UNL     1       4.901   1.910  20.521  0.00  0.00    +0.000 NA
ATOM     17  C   UNL     1       4.284   1.738  19.435  0.00  0.00    +0.000 C 
ENDBRANCH  15  17
ENDBRANCH  14  15
ENDBRANCH  13  14
ENDBRANCH   1  13
BRANCH   2  18
ATOM     18  S   UNL     1       2.559   5.106  20.374  0.00  0.00    +0.000 S 
BRANCH  18  19
ATOM     19  C   UNL     1       1.857   6.749  20.201  0.00  0.00    +0.000 A 
ATOM     20  C   UNL     1       1.138   7.296  21.276  0.00  0.00    +0.000 A 
ATOM     21  C   UNL     1       0.707   8.627  21.238  0.00  0.00    +0.000 A 
ATOM     22 CL   UNL     1      -0.147   9.294  22.577  0.00  0.00    +0.000 Cl
ATOM     23  C   UNL     1       0.988   9.435  20.141  0.00  0.00    +0.000 A 
ATOM     24  C   UNL     1       1.688   8.891  19.070  0.00  0.00    +0.000 A 
ATOM     25 CL   UNL     1       2.068   9.882  17.714  0.00  0.00    +0.000 Cl
ATOM     26  C   UNL     1       2.118   7.562  19.091  0.00  0.00    +0.000 A 
ENDBRANCH  18  19
ENDBRANCH   2  18
TORSDOF 6
ENDMDL
MODEL 4
REMARK VINA RESULT:      -7.3      1.975      4.621
REMARK  Name = 
REMARK  6 active torsions:
REMARK  status: ('A' for Active; 'I' for Inactive)
REMARK    1  A    between atoms: C_2  and  C_3
REMARK    2  A    between atoms: C_3  and  C_4
REMARK    3  A    between atoms: C_4  and  C_5
REMARK    4  A    between atoms: C_5  and  N_6
REMARK    5  A    between atoms: C_7  and  S_8
REMARK    6  A    between atoms: S_8  and  C_9
REMARK                            x       y       z     vdW  Elec       q    Type
REMARK                         _______ _______ _______ _____ _____    ______ ____
ROOT
ATOM      1  N   UNL     1       3.806   4.662  17.786  0.00  0.00    +0.000 N 
ATOM      2  C   UNL     1       3.917   5.276  19.019  0.00  0.00    +0.000 A 
ATOM      3  N   UNL     1       5.038   5.960  19.131  0.00  0.00    +0.000 NA
ATOM      4  C   UNL     1       5.696   5.774  17.930  0.00  0.00    +0.000 A 
ATOM      5  C   UNL     1       6.924   6.226  17.418  0.00  0.00    +0.000 A 
ATOM      6  N   UNL     1       7.794   7.052  18.115  0.00  0.00    +0.000 N 
ATOM      7  N   UNL     1       7.291   5.868  16.166  0.00  0.00    +0.000 NA
ATOM      8  C   UNL     1       6.466   5.077  15.455  0.00  0.00    +0.000 A 
ATOM      9  N   UNL     1       5.282   4.599  15.843  0.00  0.00    +0.000 NA
ATOM     10  C   UNL     1       4.948   4.977  17.086  0.00  0.00    +0.000 A 
ATOM     11  H   UNL     1       7.337   7.607  18.829  0.00  0.00    +0.000 HD
ATOM     12  H   UNL     1       8.417   7.532  17.477  0.00  0.00    +0.000 HD
ENDROOT
BRANCH   1  13
ATOM     13  C   UNL     1       2.720   3.811  17.306  0.00  0.00    +0.000 C 
BRANCH  13  14
ATOM     14  C   UNL     1       2.977   2.310  17.469  0.00  0.00    +0.000 C 
BRANCH  14  15
ATOM     15  C   UNL     1       2.701   1.763  18.844  0.00  0.00    +0.000 C 
BRANCH  15  17
ATOM     16  N   UNL     1       5.027   1.874  20.363  0.00  0.00    +0.000 NA
ATOM     17  C   UNL     1       3.972   1.823  19.674  0.00  0.00    +0.000 C 
ENDBRANCH  15  17
ENDBRANCH  14  15
ENDBRANCH  13  14
ENDBRANCH   1  13
BRANCH   2  18
ATOM     18  S   UNL     1       2.660   5.226  20.220  0.00  0.00    +0.000 S 
BRANCH  18  19
ATOM     19  C   UNL     1       2.043   6.911  20.230  0.00  0.00    +0.000 A 
ATOM     20  C   UNL     1       2.231   7.709  19.090  0.00  0.00    +0.000 A 
ATOM     21  C   UNL     1       1.634   8.972  19.001  0.00  0.00    +0.000 A 
ATOM     22 CL   UNL     1       1.849   9.927  17.584  0.00  0.00    +0.000 Cl
ATOM     23  C   UNL     1       0.837   9.457  20.034  0.00  0.00    +0.000 A 
ATOM     24  C   UNL     1       0.661   8.674  21.168  0.00  0.00    +0.000 A 
ATOM     25 CL   UNL     1      -0.342   9.245  22.446  0.00  0.00    +0.000 Cl
ATOM     26  C   UNL     1       1.257   7.414  21.274  0.00  0.00    +0.000 A 
ENDBRANCH  18  19
ENDBRANCH   2  18
TORSDOF 6
ENDMDL
MODEL 5
REMARK VINA RESULT:      -7.3      1.919      4.676
REMARK  Name = 
REMARK  6 active torsions:
REMARK  status: ('A' for Active; 'I' for Inactive)
REMARK    1  A    between atoms: C_2  and  C_3
REMARK    2  A    between atoms: C_3  and  C_4
REMARK    3  A    between atoms: C_4  and  C_5
REMARK    4  A    between atoms: C_5  and  N_6
REMARK    5  A    between atoms: C_7  and  S_8
REMARK    6  A    between atoms: S_8  and  C_9
REMARK                            x       y       z     vdW  Elec       q    Type
REMARK                         _______ _______ _______ _____ _____    ______ ____
ROOT
ATOM      1  N   UNL     1       4.104   4.596  17.693  0.00  0.00    +0.000 N 
ATOM      2  C   UNL     1       4.160   5.259  18.903  0.00  0.00    +0.000 A 
ATOM      3  N   UNL     1       5.216   6.043  18.989  0.00  0.00    +0.000 NA
ATOM      4  C   UNL     1       5.888   5.874  17.793  0.00  0.00    +0.000 A 
ATOM      5  C   UNL     1       7.071   6.416  17.262  0.00  0.00    +0.000 A 
ATOM      6  N   UNL     1       7.865   7.339  17.928  0.00  0.00    +0.000 N 
ATOM      7  N   UNL     1       7.469   6.050  16.022  0.00  0.00    +0.000 NA
ATOM      8  C   UNL     1       6.716   5.165  15.341  0.00  0.00    +0.000 A 
ATOM      9  N   UNL     1       5.580   4.597  15.748  0.00  0.00    +0.000 NA
ATOM     10  C   UNL     1       5.213   4.987  16.979  0.00  0.00    +0.000 A 
ATOM     11  H   UNL     1       7.361   7.875  18.625  0.00  0.00    +0.000 HD
ATOM     12  H   UNL     1       8.443   7.850  17.273  0.00  0.00    +0.000 HD
ENDROOT
BRANCH   1  13
ATOM     13  C   UNL     1       3.097   3.637  17.244  0.00  0.00    +0.000 C 
BRANCH  13  14
ATOM     14  C   UNL     1       3.445   2.174  17.540  0.00  0.00    +0.000 C 
BRANCH  14  15
ATOM     15  C   UNL     1       2.861   1.627  18.815  0.00  0.00    +0.000 C 
BRANCH  15  17
ATOM     16  N   UNL     1       0.189   2.376  18.999  0.00  0.00    +0.000 NA
ATOM     17  C   UNL     1       1.401   2.036  18.916  0.00  0.00    +0.000 C 
ENDBRANCH  15  17
ENDBRANCH  14  15
ENDBRANCH  13  14
ENDBRANCH   1  13
BRANCH   2  18
ATOM     18  S   UNL     1       2.912   5.139  20.109  0.00  0.00    +0.000 S 
BRANCH  18  19
ATOM     19  C   UNL     1       2.085   6.727  19.995  0.00  0.00    +0.000 A 
ATOM     20  C   UNL     1       1.348   7.189  21.098  0.00  0.00    +0.000 A 
ATOM     21  C   UNL     1       0.817   8.484  21.105  0.00  0.00    +0.000 A 
ATOM     22 CL   UNL     1      -0.059   9.047  22.477  0.00  0.00    +0.000 Cl
ATOM     23  C   UNL     1       1.015   9.340  20.027  0.00  0.00    +0.000 A 
ATOM     24  C   UNL     1       1.733   8.881  18.929  0.00  0.00    +0.000 A 
ATOM     25 CL   UNL     1       2.011   9.934  17.595  0.00  0.00    +0.000 Cl
ATOM     26  C   UNL     1       2.263   7.587  18.905  0.00  0.00    +0.000 A 
ENDBRANCH  18  19
ENDBRANCH   2  18
TORSDOF 6
ENDMDL
MODEL 6
REMARK VINA RESULT:      -7.3      1.241      2.228
REMARK  Name = 
REMARK  6 active torsions:
REMARK  status: ('A' for Active; 'I' for Inactive)
REMARK    1  A    between atoms: C_2  and  C_3
REMARK    2  A    between atoms: C_3  and  C_4
REMARK    3  A    between atoms: C_4  and  C_5
REMARK    4  A    between atoms: C_5  and  N_6
REMARK    5  A    between atoms: C_7  and  S_8
REMARK    6  A    between atoms: S_8  and  C_9
REMARK                            x       y       z     vdW  Elec       q    Type
REMARK                         _______ _______ _______ _____ _____    ______ ____
ROOT
ATOM      1  N   UNL     1       4.027   6.035  18.159  0.00  0.00    +0.000 N 
ATOM      2  C   UNL     1       2.865   6.775  18.273  0.00  0.00    +0.000 A 
ATOM      3  N   UNL     1       1.933   6.130  18.946  0.00  0.00    +0.000 NA
ATOM      4  C   UNL     1       2.500   4.913  19.273  0.00  0.00    +0.000 A 
ATOM      5  C   UNL     1       2.039   3.786  19.975  0.00  0.00    +0.000 A 
ATOM      6  N   UNL     1       0.776   3.694  20.541  0.00  0.00    +0.000 N 
ATOM      7  N   UNL     1       2.864   2.726  20.141  0.00  0.00    +0.000 NA
ATOM      8  C   UNL     1       4.101   2.786  19.615  0.00  0.00    +0.000 A 
ATOM      9  N   UNL     1       4.637   3.804  18.939  0.00  0.00    +0.000 NA
ATOM     10  C   UNL     1       3.795   4.839  18.798  0.00  0.00    +0.000 A 
ATOM     11  H   UNL     1       0.362   4.594  20.752  0.00  0.00    +0.000 HD
ATOM     12  H   UNL     1       0.764   2.991  21.271  0.00  0.00    +0.000 HD
ENDROOT
BRANCH   1  13
ATOM     13  C   UNL     1       5.261   6.409  17.472  0.00  0.00    +0.000 C 
BRANCH  13  14
ATOM     14  C   UNL     1       5.233   6.179  15.958  0.00  0.00    +0.000 C 
BRANCH  14  15
ATOM     15  C   UNL     1       5.863   4.892  15.498  0.00  0.00    +0.000 C 
BRANCH  15  17
ATOM     16  N   UNL     1       8.016   4.279  17.147  0.00  0.00    +0.000 NA
ATOM     17  C   UNL     1       7.039   4.557  16.399  0.00  0.00    +0.000 C 
ENDBRANCH  15  17
ENDBRANCH  14  15
ENDBRANCH  13  14
ENDBRANCH   1  13
BRANCH   2  18
ATOM     18  S   UNL     1       2.717   8.404  17.682  0.00  0.00    +0.000 S 
BRANCH  18  19
ATOM     19  C   UNL     1       1.497   9.124  18.784  0.00  0.00    +0.000 A 
ATOM     20  C   UNL     1       0.359   9.734  18.231  0.00  0.00    +0.000 A 
ATOM     21  C   UNL     1      -0.684  10.170  19.055  0.00  0.00    +0.000 A 
ATOM     22 CL   UNL     1      -2.087  10.890  18.361  0.00  0.00    +0.000 Cl
ATOM     23  C   UNL     1      -0.620  10.001  20.435  0.00  0.00    +0.000 A 
ATOM     24  C   UNL     1       0.511   9.409  20.985  0.00  0.00    +0.000 A 
ATOM     25 CL   UNL     1       0.599   9.167  22.688  0.00  0.00    +0.000 Cl
ATOM     26  C   UNL     1       1.564   8.975  20.175  0.00  0.00    +0.000 A 
ENDBRANCH  18  19
ENDBRANCH   2  18
TORSDOF 6
ENDMDL
MODEL 7
REMARK VINA RESULT:      -7.3      3.546      6.966
REMARK  Name = 
REMARK  6 active torsions:
REMARK  status: ('A' for Active; 'I' for Inactive)
REMARK    1  A    between atoms: C_2  and  C_3
REMARK    2  A    between atoms: C_3  and  C_4
REMARK    3  A    between atoms: C_4  and  C_5
REMARK    4  A    between atoms: C_5  and  N_6
REMARK    5  A    between atoms: C_7  and  S_8
REMARK    6  A    between atoms: S_8  and  C_9
REMARK                            x       y       z     vdW  Elec       q    Type
REMARK                         _______ _______ _______ _____ _____    ______ ____
ROOT
ATOM      1  N   UNL     1       2.218   6.117  19.840  0.00  0.00    +0.000 N 
ATOM      2  C   UNL     1       2.512   5.963  18.499  0.00  0.00    +0.000 A 
ATOM      3  N   UNL     1       2.380   7.093  17.831  0.00  0.00    +0.000 NA
ATOM      4  C   UNL     1       1.968   8.020  18.769  0.00  0.00    +0.000 A 
ATOM      5  C   UNL     1       1.654   9.389  18.706  0.00  0.00    +0.000 A 
ATOM      6  N   UNL     1       1.723  10.143  17.544  0.00  0.00    +0.000 N 
ATOM      7  N   UNL     1       1.283  10.035  19.835  0.00  0.00    +0.000 NA
ATOM      8  C   UNL     1       1.216   9.337  20.983  0.00  0.00    +0.000 A 
ATOM      9  N   UNL     1       1.496   8.044  21.154  0.00  0.00    +0.000 NA
ATOM     10  C   UNL     1       1.866   7.435  20.016  0.00  0.00    +0.000 A 
ATOM     11  H   UNL     1       2.361   9.763  16.855  0.00  0.00    +0.000 HD
ATOM     12  H   UNL     1       1.804  11.128  17.763  0.00  0.00    +0.000 HD
ENDROOT
BRANCH   1  13
ATOM     13  C   UNL     1       2.234   5.093  20.882  0.00  0.00    +0.000 C 
BRANCH  13  14
ATOM     14  C   UNL     1       1.150   4.021  20.729  0.00  0.00    +0.000 C 
BRANCH  14  15
ATOM     15  C   UNL     1       1.559   2.637  21.157  0.00  0.00    +0.000 C 
BRANCH  15  17
ATOM     16  N   UNL     1       4.235   2.230  20.521  0.00  0.00    +0.000 NA
ATOM     17  C   UNL     1       3.021   2.415  20.809  0.00  0.00    +0.000 C 
ENDBRANCH  15  17
ENDBRANCH  14  15
ENDBRANCH  13  14
ENDBRANCH   1  13
BRANCH   2  18
ATOM     18  S   UNL     1       3.091   4.471  17.820  0.00  0.00    +0.000 S 
BRANCH  18  19
ATOM     19  C   UNL     1       4.754   4.886  17.289  0.00  0.00    +0.000 A 
ATOM     20  C   UNL     1       5.147   4.569  15.979  0.00  0.00    +0.000 A 
ATOM     21  C   UNL     1       6.378   5.011  15.480  0.00  0.00    +0.000 A 
ATOM     22 CL   UNL     1       6.833   4.641  13.861  0.00  0.00    +0.000 Cl
ATOM     23  C   UNL     1       7.231   5.777  16.268  0.00  0.00    +0.000 A 
ATOM     24  C   UNL     1       6.850   6.080  17.570  0.00  0.00    +0.000 A 
ATOM     25 CL   UNL     1       7.880   7.049  18.552  0.00  0.00    +0.000 Cl
ATOM     26  C   UNL     1       5.627   5.640  18.083  0.00  0.00    +0.000 A 
ENDBRANCH  18  19
ENDBRANCH   2  18
TORSDOF 6
ENDMDL
MODEL 8
REMARK VINA RESULT:      -7.3      1.491      1.846
REMARK  Name = 
REMARK  6 active torsions:
REMARK  status: ('A' for Active; 'I' for Inactive)
REMARK    1  A    between atoms: C_2  and  C_3
REMARK    2  A    between atoms: C_3  and  C_4
REMARK    3  A    between atoms: C_4  and  C_5
REMARK    4  A    between atoms: C_5  and  N_6
REMARK    5  A    between atoms: C_7  and  S_8
REMARK    6  A    between atoms: S_8  and  C_9
REMARK                            x       y       z     vdW  Elec       q    Type
REMARK                         _______ _______ _______ _____ _____    ______ ____
ROOT
ATOM      1  N   UNL     1       3.761   5.349  17.437  0.00  0.00    +0.000 N 
ATOM      2  C   UNL     1       2.933   6.284  18.028  0.00  0.00    +0.000 A 
ATOM      3  N   UNL     1       2.055   5.726  18.838  0.00  0.00    +0.000 NA
ATOM      4  C   UNL     1       2.306   4.369  18.761  0.00  0.00    +0.000 A 
ATOM      5  C   UNL     1       1.729   3.241  19.369  0.00  0.00    +0.000 A 
ATOM      6  N   UNL     1       0.680   3.304  20.274  0.00  0.00    +0.000 N 
ATOM      7  N   UNL     1       2.223   2.012  19.090  0.00  0.00    +0.000 NA
ATOM      8  C   UNL     1       3.249   1.914  18.224  0.00  0.00    +0.000 A 
ATOM      9  N   UNL     1       3.870   2.915  17.599  0.00  0.00    +0.000 NA
ATOM     10  C   UNL     1       3.359   4.119  17.903  0.00  0.00    +0.000 A 
ATOM     11  H   UNL     1       0.614   4.195  20.752  0.00  0.00    +0.000 HD
ATOM     12  H   UNL     1       0.647   2.466  20.842  0.00  0.00    +0.000 HD
ENDROOT
BRANCH   1  13
ATOM     13  C   UNL     1       4.835   5.586  16.476  0.00  0.00    +0.000 C 
BRANCH  13  14
ATOM     14  C   UNL     1       6.123   6.138  17.095  0.00  0.00    +0.000 C 
BRANCH  14  15
ATOM     15  C   UNL     1       7.133   5.096  17.496  0.00  0.00    +0.000 C 
BRANCH  15  17
ATOM     16  N   UNL     1       7.779   5.427  20.181  0.00  0.00    +0.000 NA
ATOM     17  C   UNL     1       7.486   5.277  18.963  0.00  0.00    +0.000 C 
ENDBRANCH  15  17
ENDBRANCH  14  15
ENDBRANCH  13  14
ENDBRANCH   1  13
BRANCH   2  18
ATOM     18  S   UNL     1       3.122   7.997  17.798  0.00  0.00    +0.000 S 
BRANCH  18  19
ATOM     19  C   UNL     1       1.708   8.680  18.666  0.00  0.00    +0.000 A 
ATOM     20  C   UNL     1       1.656   8.575  20.066  0.00  0.00    +0.000 A 
ATOM     21  C   UNL     1       0.649   9.225  20.790  0.00  0.00    +0.000 A 
ATOM     22 CL   UNL     1       0.615   9.112  22.508  0.00  0.00    +0.000 Cl
ATOM     23  C   UNL     1      -0.311   9.994  20.140  0.00  0.00    +0.000 A 
ATOM     24  C   UNL     1      -0.269  10.089  18.754  0.00  0.00    +0.000 A 
ATOM     25 CL   UNL     1      -1.433  11.056  17.933  0.00  0.00    +0.000 Cl
ATOM     26  C   UNL     1       0.726   9.439  18.017  0.00  0.00    +0.000 A 
ENDBRANCH  18  19
ENDBRANCH   2  18
TORSDOF 6
ENDMDL
MODEL 9
REMARK VINA RESULT:      -7.3      3.550      6.896
REMARK  Name = 
REMARK  6 active torsions:
REMARK  status: ('A' for Active; 'I' for Inactive)
REMARK    1  A    between atoms: C_2  and  C_3
REMARK    2  A    between atoms: C_3  and  C_4
REMARK    3  A    between atoms: C_4  and  C_5
REMARK    4  A    between atoms: C_5  and  N_6
REMARK    5  A    between atoms: C_7  and  S_8
REMARK    6  A    between atoms: S_8  and  C_9
REMARK                            x       y       z     vdW  Elec       q    Type
REMARK                         _______ _______ _______ _____ _____    ______ ____
ROOT
ATOM      1  N   UNL     1       2.263   6.219  19.839  0.00  0.00    +0.000 N 
ATOM      2  C   UNL     1       2.535   6.115  18.488  0.00  0.00    +0.000 A 
ATOM      3  N   UNL     1       2.327   7.251  17.853  0.00  0.00    +0.000 NA
ATOM      4  C   UNL     1       1.886   8.131  18.823  0.00  0.00    +0.000 A 
ATOM      5  C   UNL     1       1.498   9.482  18.801  0.00  0.00    +0.000 A 
ATOM      6  N   UNL     1       1.499  10.267  17.657  0.00  0.00    +0.000 N 
ATOM      7  N   UNL     1       1.117  10.080  19.953  0.00  0.00    +0.000 NA
ATOM      8  C   UNL     1       1.115   9.351  21.085  0.00  0.00    +0.000 A 
ATOM      9  N   UNL     1       1.468   8.072  21.217  0.00  0.00    +0.000 NA
ATOM     10  C   UNL     1       1.844   7.512  20.056  0.00  0.00    +0.000 A 
ATOM     11  H   UNL     1       2.141   9.939  16.945  0.00  0.00    +0.000 HD
ATOM     12  H   UNL     1       1.532  11.249  17.900  0.00  0.00    +0.000 HD
ENDROOT
BRANCH   1  13
ATOM     13  C   UNL     1       2.359   5.173  20.854  0.00  0.00    +0.000 C 
BRANCH  13  14
ATOM     14  C   UNL     1       1.136   4.253  20.928  0.00  0.00    +0.000 C 
BRANCH  14  15
ATOM     15  C   UNL     1       1.423   2.794  20.698  0.00  0.00    +0.000 C 
BRANCH  15  17
ATOM     16  N   UNL     1       0.367   2.024  18.243  0.00  0.00    +0.000 NA
ATOM     17  C   UNL     1       0.845   2.373  19.357  0.00  0.00    +0.000 C 
ENDBRANCH  15  17
ENDBRANCH  14  15
ENDBRANCH  13  14
ENDBRANCH   1  13
BRANCH   2  18
ATOM     18  S   UNL     1       3.178   4.672  17.760  0.00  0.00    +0.000 S 
BRANCH  18  19
ATOM     19  C   UNL     1       4.763   5.216  17.118  0.00  0.00    +0.000 A 
ATOM     20  C   UNL     1       5.663   5.857  17.985  0.00  0.00    +0.000 A 
ATOM     21  C   UNL     1       6.963   6.159  17.563  0.00  0.00    +0.000 A 
ATOM     22 CL   UNL     1       8.065   6.918  18.648  0.00  0.00    +0.000 Cl
ATOM     23  C   UNL     1       7.391   5.824  16.283  0.00  0.00    +0.000 A 
ATOM     24  C   UNL     1       6.498   5.202  15.418  0.00  0.00    +0.000 A 
ATOM     25 CL   UNL     1       7.017   4.755  13.838  0.00  0.00    +0.000 Cl
ATOM     26  C   UNL     1       5.195   4.901  15.824  0.00  0.00    +0.000 A 
ENDBRANCH  18  19
ENDBRANCH   2  18
TORSDOF 6
ENDMDL
