MODEL 1
REMARK VINA RESULT:      -7.9      0.000      0.000
REMARK  Name = 
REMARK  6 active torsions:
REMARK  status: ('A' for Active; 'I' for Inactive)
REMARK    1  A    between atoms: C_1  and  C_2
REMARK    2  A    between atoms: C_2  and  C_3
REMARK    3  A    between atoms: C_3  and  C_4
REMARK    4  A    between atoms: C_8  and  C_9
REMARK    5  A    between atoms: N_11  and  C_12
REMARK    6  A    between atoms: C_12  and  C_13
REMARK                            x       y       z     vdW  Elec       q    Type
REMARK                         _______ _______ _______ _____ _____    ______ ____
ROOT
ATOM      1  C   UNL     1       3.281   3.398  18.949  0.00  0.00    +0.000 C 
ENDROOT
BRANCH   1   2
ATOM      2  C   UNL     1       1.858   3.951  18.762  0.00  0.00    +0.000 C 
ATOM      3  C   UNL     1       1.800   5.232  17.910  0.00  0.00    +0.000 C 
ATOM      4  C   UNL     1       2.362   6.465  18.619  0.00  0.00    +0.000 C 
ATOM      5  N   UNL     1       1.844   6.581  19.978  0.00  0.00    +0.000 N 
ATOM      6  C   UNL     1       1.510   7.837  20.440  0.00  0.00    +0.000 A 
ATOM      7  C   UNL     1       1.783   8.249  21.745  0.00  0.00    +0.000 A 
ATOM      8  C   UNL     1       1.391   9.517  22.179  0.00  0.00    +0.000 A 
ATOM      9  C   UNL     1       0.710  10.350  21.306  0.00  0.00    +0.000 A 
ATOM     10  C   UNL     1       0.476   9.881  20.030  0.00  0.00    +0.000 A 
ATOM     11  N   UNL     1       0.876   8.670  19.585  0.00  0.00    +0.000 NA
ATOM     12  C   UNL     1       1.848   5.418  20.849  0.00  0.00    +0.000 C 
ATOM     13  C   UNL     1       1.197   4.239  20.120  0.00  0.00    +0.000 C 
ENDBRANCH   1   2
BRANCH   1  16
ATOM     14  C   UNL     1       5.453   4.442  18.352  0.00  0.00    +0.000 C 
ATOM     15  O   UNL     1       5.777   4.459  19.539  0.00  0.00    +0.000 OA
ATOM     16  N   UNL     1       4.233   3.911  17.976  0.00  0.00    +0.000 N 
ATOM     17  H   UNL     1       3.903   4.014  17.029  0.00  0.00    +0.000 HD
BRANCH  14  22
ATOM     18  C   UNL     1       7.233   5.983  17.151  0.00  0.00    +0.000 A 
ATOM     19  N   UNL     1       7.785   6.095  15.872  0.00  0.00    +0.000 NA
ATOM     20  N   UNL     1       7.319   5.187  15.041  0.00  0.00    +0.000 NA
ATOM     21  S   UNL     1       6.197   4.183  15.747  0.00  0.00    +0.000 S 
ATOM     22  C   UNL     1       6.300   4.957  17.288  0.00  0.00    +0.000 A 
BRANCH  18  23
ATOM     23  C   UNL     1       7.708   7.010  18.128  0.00  0.00    +0.000 C 
BRANCH  23  25
ATOM     24  C   UNL     1       8.581   9.408  18.362  0.00  0.00    +0.000 C 
ATOM     25  C   UNL     1       7.695   8.442  17.580  0.00  0.00    +0.000 C 
ENDBRANCH  23  25
ENDBRANCH  18  23
ENDBRANCH  14  22
ENDBRANCH   1  16
TORSDOF 5
ENDMDL
MODEL 2
REMARK VINA RESULT:      -7.5      1.073      1.098
REMARK  Name = 
REMARK  6 active torsions:
REMARK  status: ('A' for Active; 'I' for Inactive)
REMARK    1  A    between atoms: C_1  and  C_2
REMARK    2  A    between atoms: C_2  and  C_3
REMARK    3  A    between atoms: C_3  and  C_4
REMARK    4  A    between atoms: C_8  and  C_9
REMARK    5  A    between atoms: N_11  and  C_12
REMARK    6  A    between atoms: C_12  and  C_13
REMARK                            x       y       z     vdW  Elec       q    Type
REMARK                         _______ _______ _______ _____ _____    ______ ____
ROOT
ATOM      1  C   UNL     1       3.685   4.474  19.409  0.00  0.00    +0.000 C 
ENDROOT
BRANCH   1   2
ATOM      2  C   UNL     1       2.244   4.841  19.015  0.00  0.00    +0.000 C 
ATOM      3  C   UNL     1       2.138   6.149  18.211  0.00  0.00    +0.000 C 
ATOM      4  C   UNL     1       2.404   7.404  19.043  0.00  0.00    +0.000 C 
ATOM      5  N   UNL     1       1.672   7.372  20.304  0.00  0.00    +0.000 N 
ATOM      6  C   UNL     1       1.097   8.544  20.750  0.00  0.00    +0.000 A 
ATOM      7  C   UNL     1       1.105   8.914  22.096  0.00  0.00    +0.000 A 
ATOM      8  C   UNL     1       0.476  10.092  22.505  0.00  0.00    +0.000 A 
ATOM      9  C   UNL     1      -0.174  10.874  21.563  0.00  0.00    +0.000 A 
ATOM     10  C   UNL     1      -0.140  10.451  20.251  0.00  0.00    +0.000 A 
ATOM     11  N   UNL     1       0.491   9.332  19.834  0.00  0.00    +0.000 NA
ATOM     12  C   UNL     1       1.706   6.172  21.123  0.00  0.00    +0.000 C 
ATOM     13  C   UNL     1       1.348   4.960  20.260  0.00  0.00    +0.000 C 
ENDBRANCH   1   2
BRANCH   1  16
ATOM     14  C   UNL     1       4.989   4.168  17.318  0.00  0.00    +0.000 C 
ATOM     15  O   UNL     1       4.394   3.113  17.096  0.00  0.00    +0.000 OA
ATOM     16  N   UNL     1       4.678   4.913  18.441  0.00  0.00    +0.000 N 
ATOM     17  H   UNL     1       5.248   5.702  18.701  0.00  0.00    +0.000 HD
BRANCH  14  22
ATOM     18  C   UNL     1       7.061   5.623  16.560  0.00  0.00    +0.000 A 
ATOM     19  N   UNL     1       7.804   5.804  15.389  0.00  0.00    +0.000 NA
ATOM     20  N   UNL     1       7.383   5.040  14.402  0.00  0.00    +0.000 NA
ATOM     21  S   UNL     1       6.082   4.096  14.828  0.00  0.00    +0.000 S 
ATOM     22  C   UNL     1       6.027   4.695  16.448  0.00  0.00    +0.000 A 
BRANCH  18  23
ATOM     23  C   UNL     1       7.478   6.488  17.704  0.00  0.00    +0.000 C 
BRANCH  23  25
ATOM     24  C   UNL     1       8.359   8.854  18.143  0.00  0.00    +0.000 C 
ATOM     25  C   UNL     1       7.316   7.990  17.440  0.00  0.00    +0.000 C 
ENDBRANCH  23  25
ENDBRANCH  18  23
ENDBRANCH  14  22
ENDBRANCH   1  16
TORSDOF 5
ENDMDL
MODEL 3
REMARK VINA RESULT:      -7.5      1.584      2.544
REMARK  Name = 
REMARK  6 active torsions:
REMARK  status: ('A' for Active; 'I' for Inactive)
REMARK    1  A    between atoms: C_1  and  C_2
REMARK    2  A    between atoms: C_2  and  C_3
REMARK    3  A    between atoms: C_3  and  C_4
REMARK    4  A    between atoms: C_8  and  C_9
REMARK    5  A    between atoms: N_11  and  C_12
REMARK    6  A    between atoms: C_12  and  C_13
REMARK                            x       y       z     vdW  Elec       q    Type
REMARK                         _______ _______ _______ _____ _____    ______ ____
ROOT
ATOM      1  C   UNL     1       3.240   3.219  18.744  0.00  0.00    +0.000 C 
ENDROOT
BRANCH   1   2
ATOM      2  C   UNL     1       1.820   3.794  18.607  0.00  0.00    +0.000 C 
ATOM      3  C   UNL     1       1.757   5.098  17.792  0.00  0.00    +0.000 C 
ATOM      4  C   UNL     1       2.352   6.304  18.519  0.00  0.00    +0.000 C 
ATOM      5  N   UNL     1       1.869   6.389  19.894  0.00  0.00    +0.000 N 
ATOM      6  C   UNL     1       1.562   7.636  20.398  0.00  0.00    +0.000 A 
ATOM      7  C   UNL     1       1.872   8.009  21.706  0.00  0.00    +0.000 A 
ATOM      8  C   UNL     1       1.507   9.269  22.183  0.00  0.00    +0.000 A 
ATOM      9  C   UNL     1       0.815  10.133  21.350  0.00  0.00    +0.000 A 
ATOM     10  C   UNL     1       0.543   9.702  20.069  0.00  0.00    +0.000 A 
ATOM     11  N   UNL     1       0.917   8.500  19.581  0.00  0.00    +0.000 NA
ATOM     12  C   UNL     1       1.880   5.203  20.733  0.00  0.00    +0.000 C 
ATOM     13  C   UNL     1       1.196   4.052  19.989  0.00  0.00    +0.000 C 
ENDBRANCH   1   2
BRANCH   1  16
ATOM     14  C   UNL     1       5.404   4.364  18.327  0.00  0.00    +0.000 C 
ATOM     15  O   UNL     1       5.693   4.260  19.519  0.00  0.00    +0.000 OA
ATOM     16  N   UNL     1       4.207   3.852  17.860  0.00  0.00    +0.000 N 
ATOM     17  H   UNL     1       3.902   4.050  16.920  0.00  0.00    +0.000 HD
BRANCH  14  22
ATOM     18  C   UNL     1       6.626   4.786  16.022  0.00  0.00    +0.000 A 
ATOM     19  N   UNL     1       7.543   5.709  15.511  0.00  0.00    +0.000 NA
ATOM     20  N   UNL     1       7.881   6.627  16.393  0.00  0.00    +0.000 NA
ATOM     21  S   UNL     1       7.133   6.412  17.863  0.00  0.00    +0.000 S 
ATOM     22  C   UNL     1       6.268   5.007  17.351  0.00  0.00    +0.000 A 
BRANCH  18  23
ATOM     23  C   UNL     1       6.232   3.705  15.070  0.00  0.00    +0.000 C 
BRANCH  23  25
ATOM     24  C   UNL     1       6.051   3.299  12.546  0.00  0.00    +0.000 C 
ATOM     25  C   UNL     1       5.725   4.220  13.718  0.00  0.00    +0.000 C 
ENDBRANCH  23  25
ENDBRANCH  18  23
ENDBRANCH  14  22
ENDBRANCH   1  16
TORSDOF 5
ENDMDL
MODEL 4
REMARK VINA RESULT:      -7.2      3.058      7.891
REMARK  Name = 
REMARK  6 active torsions:
REMARK  status: ('A' for Active; 'I' for Inactive)
REMARK    1  A    between atoms: C_1  and  C_2
REMARK    2  A    between atoms: C_2  and  C_3
REMARK    3  A    between atoms: C_3  and  C_4
REMARK    4  A    between atoms: C_8  and  C_9
REMARK    5  A    between atoms: N_11  and  C_12
REMARK    6  A    between atoms: C_12  and  C_13
REMARK                            x       y       z     vdW  Elec       q    Type
REMARK                         _______ _______ _______ _____ _____    ______ ____
ROOT
ATOM      1  C   UNL     1       3.027   5.489  18.445  0.00  0.00    +0.000 C 
ENDROOT
BRANCH   1   2
ATOM      2  C   UNL     1       4.557   5.331  18.424  0.00  0.00    +0.000 C 
ATOM      3  C   UNL     1       5.278   6.413  17.601  0.00  0.00    +0.000 C 
ATOM      4  C   UNL     1       5.078   6.271  16.092  0.00  0.00    +0.000 C 
ATOM      5  N   UNL     1       5.287   4.895  15.654  0.00  0.00    +0.000 N 
ATOM      6  C   UNL     1       5.957   4.687  14.466  0.00  0.00    +0.000 A 
ATOM      7  C   UNL     1       5.577   3.697  13.559  0.00  0.00    +0.000 A 
ATOM      8  C   UNL     1       6.309   3.498  12.387  0.00  0.00    +0.000 A 
ATOM      9  C   UNL     1       7.429   4.279  12.149  0.00  0.00    +0.000 A 
ATOM     10  C   UNL     1       7.746   5.241  13.085  0.00  0.00    +0.000 A 
ATOM     11  N   UNL     1       7.030   5.467  14.208  0.00  0.00    +0.000 NA
ATOM     12  C   UNL     1       4.654   3.807  16.380  0.00  0.00    +0.000 C 
ATOM     13  C   UNL     1       4.958   3.952  17.874  0.00  0.00    +0.000 C 
ENDBRANCH   1   2
BRANCH   1  16
ATOM     14  C   UNL     1       1.938   7.320  19.721  0.00  0.00    +0.000 C 
ATOM     15  O   UNL     1       1.740   6.552  20.663  0.00  0.00    +0.000 OA
ATOM     16  N   UNL     1       2.591   6.870  18.588  0.00  0.00    +0.000 N 
ATOM     17  H   UNL     1       2.637   7.449  17.765  0.00  0.00    +0.000 HD
BRANCH  14  22
ATOM     18  C   UNL     1       1.098   9.634  20.684  0.00  0.00    +0.000 A 
ATOM     19  N   UNL     1       0.773  10.893  20.170  0.00  0.00    +0.000 NA
ATOM     20  N   UNL     1       0.944  10.964  18.866  0.00  0.00    +0.000 NA
ATOM     21  S   UNL     1       1.479   9.534  18.208  0.00  0.00    +0.000 S 
ATOM     22  C   UNL     1       1.518   8.712  19.727  0.00  0.00    +0.000 A 
BRANCH  18  23
ATOM     23  C   UNL     1       0.894   9.489  22.157  0.00  0.00    +0.000 C 
BRANCH  23  25
ATOM     24  C   UNL     1      -1.108  10.742  23.151  0.00  0.00    +0.000 C 
ATOM     25  C   UNL     1      -0.579   9.431  22.579  0.00  0.00    +0.000 C 
ENDBRANCH  23  25
ENDBRANCH  18  23
ENDBRANCH  14  22
ENDBRANCH   1  16
TORSDOF 5
ENDMDL
MODEL 5
REMARK VINA RESULT:      -7.1      2.174      3.091
REMARK  Name = 
REMARK  6 active torsions:
REMARK  status: ('A' for Active; 'I' for Inactive)
REMARK    1  A    between atoms: C_1  and  C_2
REMARK    2  A    between atoms: C_2  and  C_3
REMARK    3  A    between atoms: C_3  and  C_4
REMARK    4  A    between atoms: C_8  and  C_9
REMARK    5  A    between atoms: N_11  and  C_12
REMARK    6  A    between atoms: C_12  and  C_13
REMARK                            x       y       z     vdW  Elec       q    Type
REMARK                         _______ _______ _______ _____ _____    ______ ____
ROOT
ATOM      1  C   UNL     1       3.607   4.213  19.221  0.00  0.00    +0.000 C 
ENDROOT
BRANCH   1   2
ATOM      2  C   UNL     1       2.165   4.632  18.890  0.00  0.00    +0.000 C 
ATOM      3  C   UNL     1       2.071   5.945  18.093  0.00  0.00    +0.000 C 
ATOM      4  C   UNL     1       2.419   7.188  18.914  0.00  0.00    +0.000 C 
ATOM      5  N   UNL     1       1.741   7.179  20.206  0.00  0.00    +0.000 N 
ATOM      6  C   UNL     1       1.228   8.369  20.678  0.00  0.00    +0.000 A 
ATOM      7  C   UNL     1       1.307   8.735  22.022  0.00  0.00    +0.000 A 
ATOM      8  C   UNL     1       0.739   9.933  22.459  0.00  0.00    +0.000 A 
ATOM      9  C   UNL     1       0.079  10.741  21.548  0.00  0.00    +0.000 A 
ATOM     10  C   UNL     1       0.040  10.321  20.234  0.00  0.00    +0.000 A 
ATOM     11  N   UNL     1       0.612   9.181  19.789  0.00  0.00    +0.000 NA
ATOM     12  C   UNL     1       1.767   5.976  21.021  0.00  0.00    +0.000 C 
ATOM     13  C   UNL     1       1.328   4.780  20.172  0.00  0.00    +0.000 C 
ENDBRANCH   1   2
BRANCH   1  16
ATOM     14  C   UNL     1       4.772   4.055  17.034  0.00  0.00    +0.000 C 
ATOM     15  O   UNL     1       4.079   3.083  16.730  0.00  0.00    +0.000 OA
ATOM     16  N   UNL     1       4.583   4.684  18.250  0.00  0.00    +0.000 N 
ATOM     17  H   UNL     1       5.231   5.390  18.563  0.00  0.00    +0.000 HD
BRANCH  14  22
ATOM     18  C   UNL     1       6.094   4.570  14.804  0.00  0.00    +0.000 A 
ATOM     19  N   UNL     1       7.258   5.257  14.446  0.00  0.00    +0.000 NA
ATOM     20  N   UNL     1       7.852   5.815  15.481  0.00  0.00    +0.000 NA
ATOM     21  S   UNL     1       7.057   5.527  16.912  0.00  0.00    +0.000 S 
ATOM     22  C   UNL     1       5.805   4.598  16.167  0.00  0.00    +0.000 A 
BRANCH  18  23
ATOM     23  C   UNL     1       5.396   3.893  13.670  0.00  0.00    +0.000 C 
BRANCH  23  25
ATOM     24  C   UNL     1       5.873   2.324  11.701  0.00  0.00    +0.000 C 
ATOM     25  C   UNL     1       6.311   3.556  12.487  0.00  0.00    +0.000 C 
ENDBRANCH  23  25
ENDBRANCH  18  23
ENDBRANCH  14  22
ENDBRANCH   1  16
TORSDOF 5
ENDMDL
MODEL 6
REMARK VINA RESULT:      -6.9      1.348      1.880
REMARK  Name = 
REMARK  6 active torsions:
REMARK  status: ('A' for Active; 'I' for Inactive)
REMARK    1  A    between atoms: C_1  and  C_2
REMARK    2  A    between atoms: C_2  and  C_3
REMARK    3  A    between atoms: C_3  and  C_4
REMARK    4  A    between atoms: C_8  and  C_9
REMARK    5  A    between atoms: N_11  and  C_12
REMARK    6  A    between atoms: C_12  and  C_13
REMARK                            x       y       z     vdW  Elec       q    Type
REMARK                         _______ _______ _______ _____ _____    ______ ____
ROOT
ATOM      1  C   UNL     1       3.501   5.324  19.907  0.00  0.00    +0.000 C 
ENDROOT
BRANCH   1   2
ATOM      2  C   UNL     1       2.063   5.555  19.411  0.00  0.00    +0.000 C 
ATOM      3  C   UNL     1       1.967   6.552  18.242  0.00  0.00    +0.000 C 
ATOM      4  C   UNL     1       2.235   8.002  18.649  0.00  0.00    +0.000 C 
ATOM      5  N   UNL     1       1.497   8.362  19.855  0.00  0.00    +0.000 N 
ATOM      6  C   UNL     1       0.924   9.616  19.915  0.00  0.00    +0.000 A 
ATOM      7  C   UNL     1       0.927  10.382  21.081  0.00  0.00    +0.000 A 
ATOM      8  C   UNL     1       0.302  11.630  21.103  0.00  0.00    +0.000 A 
ATOM      9  C   UNL     1      -0.339  12.086  19.963  0.00  0.00    +0.000 A 
ATOM     10  C   UNL     1      -0.302  11.280  18.845  0.00  0.00    +0.000 A 
ATOM     11  N   UNL     1       0.327  10.085  18.797  0.00  0.00    +0.000 NA
ATOM     12  C   UNL     1       1.521   7.473  21.004  0.00  0.00    +0.000 C 
ATOM     13  C   UNL     1       1.162   6.054  20.553  0.00  0.00    +0.000 C 
ENDBRANCH   1   2
BRANCH   1  16
ATOM     14  C   UNL     1       4.727   4.228  18.047  0.00  0.00    +0.000 C 
ATOM     15  O   UNL     1       4.068   3.201  18.212  0.00  0.00    +0.000 OA
ATOM     16  N   UNL     1       4.490   5.336  18.840  0.00  0.00    +0.000 N 
ATOM     17  H   UNL     1       5.110   6.129  18.805  0.00  0.00    +0.000 HD
BRANCH  14  22
ATOM     18  C   UNL     1       7.140   4.601  17.035  0.00  0.00    +0.000 A 
ATOM     19  N   UNL     1       7.713   4.647  15.761  0.00  0.00    +0.000 NA
ATOM     20  N   UNL     1       6.835   4.428  14.805  0.00  0.00    +0.000 NA
ATOM     21  S   UNL     1       5.298   4.180  15.387  0.00  0.00    +0.000 S 
ATOM     22  C   UNL     1       5.768   4.353  17.041  0.00  0.00    +0.000 A 
BRANCH  18  23
ATOM     23  C   UNL     1       8.089   4.872  18.157  0.00  0.00    +0.000 C 
BRANCH  23  25
ATOM     24  C   UNL     1       7.723   7.391  17.860  0.00  0.00    +0.000 C 
ATOM     25  C   UNL     1       7.878   6.229  18.837  0.00  0.00    +0.000 C 
ENDBRANCH  23  25
ENDBRANCH  18  23
ENDBRANCH  14  22
ENDBRANCH   1  16
TORSDOF 5
ENDMDL
MODEL 7
REMARK VINA RESULT:      -6.9      4.169      6.698
REMARK  Name = 
REMARK  6 active torsions:
REMARK  status: ('A' for Active; 'I' for Inactive)
REMARK    1  A    between atoms: C_1  and  C_2
REMARK    2  A    between atoms: C_2  and  C_3
REMARK    3  A    between atoms: C_3  and  C_4
REMARK    4  A    between atoms: C_8  and  C_9
REMARK    5  A    between atoms: N_11  and  C_12
REMARK    6  A    between atoms: C_12  and  C_13
REMARK                            x       y       z     vdW  Elec       q    Type
REMARK                         _______ _______ _______ _____ _____    ______ ____
ROOT
ATOM      1  C   UNL     1       7.417   8.072  17.576  0.00  0.00    +0.000 C 
ENDROOT
BRANCH   1   2
ATOM      2  C   UNL     1       7.782   6.580  17.503  0.00  0.00    +0.000 C 
ATOM      3  C   UNL     1       6.977   5.798  16.450  0.00  0.00    +0.000 C 
ATOM      4  C   UNL     1       5.511   5.589  16.829  0.00  0.00    +0.000 C 
ATOM      5  N   UNL     1       5.378   5.123  18.205  0.00  0.00    +0.000 N 
ATOM      6  C   UNL     1       4.434   4.153  18.473  0.00  0.00    +0.000 A 
ATOM      7  C   UNL     1       3.647   4.177  19.626  0.00  0.00    +0.000 A 
ATOM      8  C   UNL     1       2.731   3.152  19.872  0.00  0.00    +0.000 A 
ATOM      9  C   UNL     1       2.631   2.103  18.973  0.00  0.00    +0.000 A 
ATOM     10  C   UNL     1       3.436   2.145  17.853  0.00  0.00    +0.000 A 
ATOM     11  N   UNL     1       4.303   3.144  17.584  0.00  0.00    +0.000 NA
ATOM     12  C   UNL     1       6.111   5.795  19.264  0.00  0.00    +0.000 C 
ATOM     13  C   UNL     1       7.587   5.900  18.869  0.00  0.00    +0.000 C 
ENDBRANCH   1   2
BRANCH   1  16
ATOM     14  C   UNL     1       8.505  10.223  18.172  0.00  0.00    +0.000 C 
ATOM     15  O   UNL     1       7.801  10.812  17.351  0.00  0.00    +0.000 OA
ATOM     16  N   UNL     1       8.359   8.860  18.356  0.00  0.00    +0.000 N 
ATOM     17  H   UNL     1       9.017   8.350  18.923  0.00  0.00    +0.000 HD
BRANCH  14  22
ATOM     18  C   UNL     1      10.723  11.535  18.760  0.00  0.00    +0.000 A 
ATOM     19  N   UNL     1      11.345  12.015  19.916  0.00  0.00    +0.000 NA
ATOM     20  N   UNL     1      10.644  11.772  21.004  0.00  0.00    +0.000 NA
ATOM     21  S   UNL     1       9.232  10.953  20.690  0.00  0.00    +0.000 S 
ATOM     22  C   UNL     1       9.507  10.891  18.986  0.00  0.00    +0.000 A 
BRANCH  18  23
ATOM     23  C   UNL     1      11.491  11.758  17.498  0.00  0.00    +0.000 C 
BRANCH  23  25
ATOM     24  C   UNL     1      12.198  14.200  17.171  0.00  0.00    +0.000 C 
ATOM     25  C   UNL     1      11.199  13.102  16.820  0.00  0.00    +0.000 C 
ENDBRANCH  23  25
ENDBRANCH  18  23
ENDBRANCH  14  22
ENDBRANCH   1  16
TORSDOF 5
ENDMDL
MODEL 8
REMARK VINA RESULT:      -6.9      3.407      8.050
REMARK  Name = 
REMARK  6 active torsions:
REMARK  status: ('A' for Active; 'I' for Inactive)
REMARK    1  A    between atoms: C_1  and  C_2
REMARK    2  A    between atoms: C_2  and  C_3
REMARK    3  A    between atoms: C_3  and  C_4
REMARK    4  A    between atoms: C_8  and  C_9
REMARK    5  A    between atoms: N_11  and  C_12
REMARK    6  A    between atoms: C_12  and  C_13
REMARK                            x       y       z     vdW  Elec       q    Type
REMARK                         _______ _______ _______ _____ _____    ______ ____
ROOT
ATOM      1  C   UNL     1       2.834   6.275  18.231  0.00  0.00    +0.000 C 
ENDROOT
BRANCH   1   2
ATOM      2  C   UNL     1       4.347   6.006  18.302  0.00  0.00    +0.000 C 
ATOM      3  C   UNL     1       5.182   6.942  17.409  0.00  0.00    +0.000 C 
ATOM      4  C   UNL     1       5.036   6.656  15.914  0.00  0.00    +0.000 C 
ATOM      5  N   UNL     1       5.157   5.230  15.631  0.00  0.00    +0.000 N 
ATOM      6  C   UNL     1       5.859   4.850  14.505  0.00  0.00    +0.000 A 
ATOM      7  C   UNL     1       5.443   3.799  13.686  0.00  0.00    +0.000 A 
ATOM      8  C   UNL     1       6.207   3.426  12.579  0.00  0.00    +0.000 A 
ATOM      9  C   UNL     1       7.391   4.096  12.317  0.00  0.00    +0.000 A 
ATOM     10  C   UNL     1       7.741   5.127  13.165  0.00  0.00    +0.000 A 
ATOM     11  N   UNL     1       6.998   5.521  14.221  0.00  0.00    +0.000 NA
ATOM     12  C   UNL     1       4.414   4.272  16.432  0.00  0.00    +0.000 C 
ATOM     13  C   UNL     1       4.666   4.552  17.916  0.00  0.00    +0.000 C 
ENDBRANCH   1   2
BRANCH   1  16
ATOM     14  C   UNL     1       1.752   8.412  18.881  0.00  0.00    +0.000 C 
ATOM     15  O   UNL     1       1.552   8.677  17.695  0.00  0.00    +0.000 OA
ATOM     16  N   UNL     1       2.368   7.224  19.229  0.00  0.00    +0.000 N 
ATOM     17  H   UNL     1       2.656   7.061  20.181  0.00  0.00    +0.000 HD
BRANCH  14  22
ATOM     18  C   UNL     1       1.043  10.644  20.107  0.00  0.00    +0.000 A 
ATOM     19  N   UNL     1       0.752  11.038  21.416  0.00  0.00    +0.000 NA
ATOM     20  N   UNL     1       0.829  10.041  22.272  0.00  0.00    +0.000 NA
ATOM     21  S   UNL     1       1.266   8.607  21.551  0.00  0.00    +0.000 S 
ATOM     22  C   UNL     1       1.368   9.296  19.970  0.00  0.00    +0.000 A 
BRANCH  18  23
ATOM     23  C   UNL     1       0.998  11.746  19.098  0.00  0.00    +0.000 C 
BRANCH  23  25
ATOM     24  C   UNL     1      -1.326  10.947  18.372  0.00  0.00    +0.000 C 
ATOM     25  C   UNL     1      -0.420  12.139  18.668  0.00  0.00    +0.000 C 
ENDBRANCH  23  25
ENDBRANCH  18  23
ENDBRANCH  14  22
ENDBRANCH   1  16
TORSDOF 5
ENDMDL
MODEL 9
REMARK VINA RESULT:      -6.8      3.258      5.898
REMARK  Name = 
REMARK  6 active torsions:
REMARK  status: ('A' for Active; 'I' for Inactive)
REMARK    1  A    between atoms: C_1  and  C_2
REMARK    2  A    between atoms: C_2  and  C_3
REMARK    3  A    between atoms: C_3  and  C_4
REMARK    4  A    between atoms: C_8  and  C_9
REMARK    5  A    between atoms: N_11  and  C_12
REMARK    6  A    between atoms: C_12  and  C_13
REMARK                            x       y       z     vdW  Elec       q    Type
REMARK                         _______ _______ _______ _____ _____    ______ ____
ROOT
ATOM      1  C   UNL     1       0.830   7.585  20.973  0.00  0.00    +0.000 C 
ENDROOT
BRANCH   1   2
ATOM      2  C   UNL     1       1.474   8.919  21.387  0.00  0.00    +0.000 C 
ATOM      3  C   UNL     1       1.080   9.383  22.801  0.00  0.00    +0.000 C 
ATOM      4  C   UNL     1      -0.368   9.861  22.908  0.00  0.00    +0.000 C 
ATOM      5  N   UNL     1      -0.710  10.773  21.822  0.00  0.00    +0.000 N 
ATOM      6  C   UNL     1      -1.491  11.871  22.118  0.00  0.00    +0.000 A 
ATOM      7  C   UNL     1      -2.501  12.320  21.266  0.00  0.00    +0.000 A 
ATOM      8  C   UNL     1      -3.240  13.458  21.590  0.00  0.00    +0.000 A 
ATOM      9  C   UNL     1      -2.944  14.148  22.754  0.00  0.00    +0.000 A 
ATOM     10  C   UNL     1      -1.936  13.649  23.552  0.00  0.00    +0.000 A 
ATOM     11  N   UNL     1      -1.233  12.531  23.269  0.00  0.00    +0.000 NA
ATOM     12  C   UNL     1      -0.364  10.422  20.455  0.00  0.00    +0.000 C 
ATOM     13  C   UNL     1       1.116  10.035  20.391  0.00  0.00    +0.000 C 
ENDBRANCH   1   2
BRANCH   1  16
ATOM     14  C   UNL     1       2.479   6.264  19.671  0.00  0.00    +0.000 C 
ATOM     15  O   UNL     1       2.321   7.011  18.705  0.00  0.00    +0.000 OA
ATOM     16  N   UNL     1       1.786   6.497  20.845  0.00  0.00    +0.000 N 
ATOM     17  H   UNL     1       1.806   5.819  21.590  0.00  0.00    +0.000 HD
BRANCH  14  22
ATOM     18  C   UNL     1       3.341   3.804  20.111  0.00  0.00    +0.000 A 
ATOM     19  N   UNL     1       4.508   3.075  19.863  0.00  0.00    +0.000 NA
ATOM     20  N   UNL     1       5.419   3.781  19.227  0.00  0.00    +0.000 NA
ATOM     21  S   UNL     1       4.925   5.339  18.918  0.00  0.00    +0.000 S 
ATOM     22  C   UNL     1       3.378   5.121  19.655  0.00  0.00    +0.000 A 
BRANCH  18  23
ATOM     23  C   UNL     1       2.284   3.057  20.857  0.00  0.00    +0.000 C 
BRANCH  23  25
ATOM     24  C   UNL     1       0.992   2.425  18.736  0.00  0.00    +0.000 C 
ATOM     25  C   UNL     1       0.928   3.015  20.142  0.00  0.00    +0.000 C 
ENDBRANCH  23  25
ENDBRANCH  18  23
ENDBRANCH  14  22
ENDBRANCH   1  16
TORSDOF 5
ENDMDL
