MODEL 1
REMARK VINA RESULT:      -7.7      0.000      0.000
REMARK  Name = 
REMARK  10 active torsions:
REMARK  status: ('A' for Active; 'I' for Inactive)
REMARK    1  A    between atoms: C_1  and  C_2
REMARK    2  A    between atoms: C_5  and  C_6
REMARK    3  A    between atoms: C_9  and  S_10
REMARK    4  A    between atoms: S_10  and  C_11
REMARK    5  A    between atoms: C_11  and  C_12
REMARK    6  A    between atoms: C_16  and  O_17
REMARK    7  A    between atoms: N_20  and  N_21
REMARK    8  A    between atoms: N_21  and  C_22
REMARK    9  A    between atoms: C_22  and  C_23
REMARK   10  A    between atoms: C_28  and  O_29
REMARK                            x       y       z     vdW  Elec       q    Type
REMARK                         _______ _______ _______ _____ _____    ______ ____
ROOT
ATOM      1  C   UNL     1       2.935   7.171  18.958  0.00  0.00    +0.000 A 
ATOM      2  N   UNL     1       2.591   8.344  18.441  0.00  0.00    +0.000 NA
ATOM      3  N   UNL     1       1.574   8.884  19.181  0.00  0.00    +0.000 NA
ATOM      4  C   UNL     1       1.280   8.031  20.132  0.00  0.00    +0.000 A 
ATOM      5  N   UNL     1       2.091   6.916  20.046  0.00  0.00    +0.000 N 
ENDROOT
BRANCH   1  10
ATOM      6  C   UNL     1       7.460   4.419  16.696  0.00  0.00    +0.000 C 
ATOM      7  C   UNL     1       6.182   4.968  17.256  0.00  0.00    +0.000 A 
ATOM      8  C   UNL     1       5.216   5.532  16.420  0.00  0.00    +0.000 A 
ATOM      9  C   UNL     1       4.071   6.126  16.960  0.00  0.00    +0.000 A 
ATOM     10  C   UNL     1       3.925   6.273  18.341  0.00  0.00    +0.000 A 
ATOM     11  C   UNL     1       4.832   5.594  19.169  0.00  0.00    +0.000 A 
ATOM     12  C   UNL     1       5.945   4.937  18.632  0.00  0.00    +0.000 A 
ENDBRANCH   1  10
BRANCH   5  13
ATOM     13  N   UNL     1       2.074   5.818  21.009  0.00  0.00    +0.000 N 
ATOM     14  H   UNL     1       3.021   5.543  21.261  0.00  0.00    +0.000 HD
BRANCH  13  15
ATOM     15  C   UNL     1       1.291   4.647  20.604  0.00  0.00    +0.000 C 
BRANCH  15  16
ATOM     16  C   UNL     1       1.983   3.690  19.668  0.00  0.00    +0.000 A 
ATOM     17  C   UNL     1       1.701   3.641  18.297  0.00  0.00    +0.000 A 
ATOM     18  C   UNL     1       2.380   2.743  17.469  0.00  0.00    +0.000 A 
ATOM     19  C   UNL     1       3.328   1.872  18.003  0.00  0.00    +0.000 A 
ATOM     20  C   UNL     1       3.578   1.866  19.374  0.00  0.00    +0.000 A 
ATOM     21  C   UNL     1       2.896   2.762  20.194  0.00  0.00    +0.000 A 
BRANCH  21  22
ATOM     22  O   UNL     1       3.109   2.743  21.546  0.00  0.00    +0.000 OA
ATOM     23  H   UNL     1       3.875   2.178  21.740  0.00  0.00    +0.000 HD
ENDBRANCH  21  22
ENDBRANCH  15  16
ENDBRANCH  13  15
ENDBRANCH   5  13
BRANCH   4  24
ATOM     24  S   UNL     1       0.128   8.319  21.395  0.00  0.00    +0.000 S 
BRANCH  24  25
ATOM     25  C   UNL     1       0.697   9.898  22.085  0.00  0.00    +0.000 C 
BRANCH  25  26
ATOM     26  C   UNL     1      -0.313  11.004  21.954  0.00  0.00    +0.000 A 
ATOM     27  C   UNL     1      -0.947  11.259  20.796  0.00  0.00    +0.000 A 
ATOM     28  C   UNL     1      -1.927  12.352  20.742  0.00  0.00    +0.000 A 
ATOM     29  O   UNL     1      -2.539  12.636  19.716  0.00  0.00    +0.000 OA
ATOM     30  C   UNL     1      -2.154  13.118  21.985  0.00  0.00    +0.000 A 
ATOM     31  C   UNL     1      -1.492  12.737  23.080  0.00  0.00    +0.000 A 
ATOM     32  O   UNL     1      -0.585  11.702  23.128  0.00  0.00    +0.000 OA
BRANCH  30  33
ATOM     33  O   UNL     1      -3.042  14.175  21.970  0.00  0.00    +0.000 OA
ATOM     34  H   UNL     1      -3.578  14.059  22.783  0.00  0.00    +0.000 HD
ENDBRANCH  30  33
ENDBRANCH  25  26
ENDBRANCH  24  25
ENDBRANCH   4  24
TORSDOF 9
ENDMDL
MODEL 2
REMARK VINA RESULT:      -7.6      1.525      2.116
REMARK  Name = 
REMARK  10 active torsions:
REMARK  status: ('A' for Active; 'I' for Inactive)
REMARK    1  A    between atoms: C_1  and  C_2
REMARK    2  A    between atoms: C_5  and  C_6
REMARK    3  A    between atoms: C_9  and  S_10
REMARK    4  A    between atoms: S_10  and  C_11
REMARK    5  A    between atoms: C_11  and  C_12
REMARK    6  A    between atoms: C_16  and  O_17
REMARK    7  A    between atoms: N_20  and  N_21
REMARK    8  A    between atoms: N_21  and  C_22
REMARK    9  A    between atoms: C_22  and  C_23
REMARK   10  A    between atoms: C_28  and  O_29
REMARK                            x       y       z     vdW  Elec       q    Type
REMARK                         _______ _______ _______ _____ _____    ______ ____
ROOT
ATOM      1  C   UNL     1       3.288   7.643  18.088  0.00  0.00    +0.000 A 
ATOM      2  N   UNL     1       2.853   8.773  17.547  0.00  0.00    +0.000 NA
ATOM      3  N   UNL     1       1.865   9.302  18.332  0.00  0.00    +0.000 NA
ATOM      4  C   UNL     1       1.679   8.482  19.338  0.00  0.00    +0.000 A 
ATOM      5  N   UNL     1       2.534   7.402  19.244  0.00  0.00    +0.000 N 
ENDROOT
BRANCH   1  10
ATOM      6  C   UNL     1       6.343   3.668  15.252  0.00  0.00    +0.000 C 
ATOM      7  C   UNL     1       5.720   4.792  16.026  0.00  0.00    +0.000 A 
ATOM      8  C   UNL     1       5.620   4.737  17.416  0.00  0.00    +0.000 A 
ATOM      9  C   UNL     1       4.954   5.746  18.120  0.00  0.00    +0.000 A 
ATOM     10  C   UNL     1       4.275   6.762  17.443  0.00  0.00    +0.000 A 
ATOM     11  C   UNL     1       4.488   6.880  16.061  0.00  0.00    +0.000 A 
ATOM     12  C   UNL     1       5.213   5.910  15.359  0.00  0.00    +0.000 A 
ENDBRANCH   1  10
BRANCH   5  13
ATOM     13  N   UNL     1       2.637   6.351  20.254  0.00  0.00    +0.000 N 
ATOM     14  H   UNL     1       3.598   6.035  20.351  0.00  0.00    +0.000 HD
BRANCH  13  15
ATOM     15  C   UNL     1       1.740   5.208  20.054  0.00  0.00    +0.000 C 
BRANCH  15  16
ATOM     16  C   UNL     1       2.365   3.987  19.431  0.00  0.00    +0.000 A 
ATOM     17  C   UNL     1       3.318   3.206  20.097  0.00  0.00    +0.000 A 
ATOM     18  C   UNL     1       3.859   2.075  19.481  0.00  0.00    +0.000 A 
ATOM     19  C   UNL     1       3.473   1.727  18.187  0.00  0.00    +0.000 A 
ATOM     20  C   UNL     1       2.572   2.526  17.487  0.00  0.00    +0.000 A 
ATOM     21  C   UNL     1       2.037   3.653  18.107  0.00  0.00    +0.000 A 
BRANCH  21  22
ATOM     22  O   UNL     1       1.176   4.464  17.418  0.00  0.00    +0.000 OA
ATOM     23  H   UNL     1       0.321   4.484  17.878  0.00  0.00    +0.000 HD
ENDBRANCH  21  22
ENDBRANCH  15  16
ENDBRANCH  13  15
ENDBRANCH   5  13
BRANCH   4  24
ATOM     24  S   UNL     1       0.604   8.778  20.666  0.00  0.00    +0.000 S 
BRANCH  24  25
ATOM     25  C   UNL     1       0.567  10.590  20.738  0.00  0.00    +0.000 C 
BRANCH  25  26
ATOM     26  C   UNL     1      -0.735  11.178  20.269  0.00  0.00    +0.000 A 
ATOM     27  C   UNL     1      -1.238  10.921  19.050  0.00  0.00    +0.000 A 
ATOM     28  C   UNL     1      -2.519  11.525  18.661  0.00  0.00    +0.000 A 
ATOM     29  O   UNL     1      -3.032  11.331  17.563  0.00  0.00    +0.000 OA
ATOM     30  C   UNL     1      -3.183  12.399  19.652  0.00  0.00    +0.000 A 
ATOM     31  C   UNL     1      -2.600  12.540  20.845  0.00  0.00    +0.000 A 
ATOM     32  O   UNL     1      -1.406  11.958  21.209  0.00  0.00    +0.000 OA
BRANCH  30  33
ATOM     33  O   UNL     1      -4.371  13.014  19.316  0.00  0.00    +0.000 OA
ATOM     34  H   UNL     1      -4.930  12.927  20.117  0.00  0.00    +0.000 HD
ENDBRANCH  30  33
ENDBRANCH  25  26
ENDBRANCH  24  25
ENDBRANCH   4  24
TORSDOF 9
ENDMDL
MODEL 3
REMARK VINA RESULT:      -7.6      1.358      1.849
REMARK  Name = 
REMARK  10 active torsions:
REMARK  status: ('A' for Active; 'I' for Inactive)
REMARK    1  A    between atoms: C_1  and  C_2
REMARK    2  A    between atoms: C_5  and  C_6
REMARK    3  A    between atoms: C_9  and  S_10
REMARK    4  A    between atoms: S_10  and  C_11
REMARK    5  A    between atoms: C_11  and  C_12
REMARK    6  A    between atoms: C_16  and  O_17
REMARK    7  A    between atoms: N_20  and  N_21
REMARK    8  A    between atoms: N_21  and  C_22
REMARK    9  A    between atoms: C_22  and  C_23
REMARK   10  A    between atoms: C_28  and  O_29
REMARK                            x       y       z     vdW  Elec       q    Type
REMARK                         _______ _______ _______ _____ _____    ______ ____
ROOT
ATOM      1  C   UNL     1       3.083   7.443  18.579  0.00  0.00    +0.000 A 
ATOM      2  N   UNL     1       2.792   8.582  17.965  0.00  0.00    +0.000 NA
ATOM      3  N   UNL     1       1.777   9.212  18.634  0.00  0.00    +0.000 NA
ATOM      4  C   UNL     1       1.432   8.445  19.639  0.00  0.00    +0.000 A 
ATOM      5  N   UNL     1       2.205   7.301  19.661  0.00  0.00    +0.000 N 
ENDROOT
BRANCH   1  10
ATOM      6  C   UNL     1       7.580   4.338  16.762  0.00  0.00    +0.000 C 
ATOM      7  C   UNL     1       6.300   4.987  17.196  0.00  0.00    +0.000 A 
ATOM      8  C   UNL     1       5.465   5.617  16.272  0.00  0.00    +0.000 A 
ATOM      9  C   UNL     1       4.322   6.300  16.699  0.00  0.00    +0.000 A 
ATOM     10  C   UNL     1       4.056   6.468  18.060  0.00  0.00    +0.000 A 
ATOM     11  C   UNL     1       4.824   5.727  18.971  0.00  0.00    +0.000 A 
ATOM     12  C   UNL     1       5.930   4.984  18.543  0.00  0.00    +0.000 A 
ENDBRANCH   1  10
BRANCH   5  13
ATOM     13  N   UNL     1       2.127   6.283  20.705  0.00  0.00    +0.000 N 
ATOM     14  H   UNL     1       3.056   5.970  20.977  0.00  0.00    +0.000 HD
BRANCH  13  15
ATOM     15  C   UNL     1       1.273   5.133  20.390  0.00  0.00    +0.000 C 
BRANCH  15  16
ATOM     16  C   UNL     1       1.892   4.081  19.507  0.00  0.00    +0.000 A 
ATOM     17  C   UNL     1       1.660   4.025  18.127  0.00  0.00    +0.000 A 
ATOM     18  C   UNL     1       2.268   3.036  17.349  0.00  0.00    +0.000 A 
ATOM     19  C   UNL     1       3.093   2.083  17.943  0.00  0.00    +0.000 A 
ATOM     20  C   UNL     1       3.287   2.087  19.323  0.00  0.00    +0.000 A 
ATOM     21  C   UNL     1       2.676   3.074  20.093  0.00  0.00    +0.000 A 
BRANCH  21  22
ATOM     22  O   UNL     1       2.832   3.070  21.453  0.00  0.00    +0.000 OA
ATOM     23  H   UNL     1       2.191   3.684  21.848  0.00  0.00    +0.000 HD
ENDBRANCH  21  22
ENDBRANCH  15  16
ENDBRANCH  13  15
ENDBRANCH   5  13
BRANCH   4  24
ATOM     24  S   UNL     1       0.260   8.868  20.845  0.00  0.00    +0.000 S 
BRANCH  24  25
ATOM     25  C   UNL     1       0.055  10.651  20.577  0.00  0.00    +0.000 C 
BRANCH  25  26
ATOM     26  C   UNL     1      -1.186  10.997  19.801  0.00  0.00    +0.000 A 
ATOM     27  C   UNL     1      -1.531  10.348  18.676  0.00  0.00    +0.000 A 
ATOM     28  C   UNL     1      -2.761  10.735  17.973  0.00  0.00    +0.000 A 
ATOM     29  O   UNL     1      -3.131  10.183  16.941  0.00  0.00    +0.000 OA
ATOM     30  C   UNL     1      -3.553  11.839  18.556  0.00  0.00    +0.000 A 
ATOM     31  C   UNL     1      -3.125  12.375  19.702  0.00  0.00    +0.000 A 
ATOM     32  O   UNL     1      -1.978  11.996  20.364  0.00  0.00    +0.000 OA
BRANCH  30  33
ATOM     33  O   UNL     1      -4.698  12.258  17.910  0.00  0.00    +0.000 OA
ATOM     34  H   UNL     1      -4.772  13.211  18.129  0.00  0.00    +0.000 HD
ENDBRANCH  30  33
ENDBRANCH  25  26
ENDBRANCH  24  25
ENDBRANCH   4  24
TORSDOF 9
ENDMDL
MODEL 4
REMARK VINA RESULT:      -7.6      0.740      1.218
REMARK  Name = 
REMARK  10 active torsions:
REMARK  status: ('A' for Active; 'I' for Inactive)
REMARK    1  A    between atoms: C_1  and  C_2
REMARK    2  A    between atoms: C_5  and  C_6
REMARK    3  A    between atoms: C_9  and  S_10
REMARK    4  A    between atoms: S_10  and  C_11
REMARK    5  A    between atoms: C_11  and  C_12
REMARK    6  A    between atoms: C_16  and  O_17
REMARK    7  A    between atoms: N_20  and  N_21
REMARK    8  A    between atoms: N_21  and  C_22
REMARK    9  A    between atoms: C_22  and  C_23
REMARK   10  A    between atoms: C_28  and  O_29
REMARK                            x       y       z     vdW  Elec       q    Type
REMARK                         _______ _______ _______ _____ _____    ______ ____
ROOT
ATOM      1  C   UNL     1       2.931   7.322  18.855  0.00  0.00    +0.000 A 
ATOM      2  N   UNL     1       2.605   8.493  18.325  0.00  0.00    +0.000 NA
ATOM      3  N   UNL     1       1.592   9.055  19.055  0.00  0.00    +0.000 NA
ATOM      4  C   UNL     1       1.283   8.215  20.013  0.00  0.00    +0.000 A 
ATOM      5  N   UNL     1       2.079   7.089  19.942  0.00  0.00    +0.000 N 
ENDROOT
BRANCH   1  10
ATOM      6  C   UNL     1       7.443   4.464  16.698  0.00  0.00    +0.000 C 
ATOM      7  C   UNL     1       6.163   5.046  17.221  0.00  0.00    +0.000 A 
ATOM      8  C   UNL     1       5.256   5.671  16.365  0.00  0.00    +0.000 A 
ATOM      9  C   UNL     1       4.111   6.292  16.875  0.00  0.00    +0.000 A 
ATOM     10  C   UNL     1       3.912   6.404  18.252  0.00  0.00    +0.000 A 
ATOM     11  C   UNL     1       4.757   5.666  19.096  0.00  0.00    +0.000 A 
ATOM     12  C   UNL     1       5.867   4.984  18.585  0.00  0.00    +0.000 A 
ENDBRANCH   1  10
BRANCH   5  13
ATOM     13  N   UNL     1       2.044   6.001  20.917  0.00  0.00    +0.000 N 
ATOM     14  H   UNL     1       2.986   5.704  21.162  0.00  0.00    +0.000 HD
BRANCH  13  15
ATOM     15  C   UNL     1       1.227   4.847  20.530  0.00  0.00    +0.000 C 
BRANCH  15  16
ATOM     16  C   UNL     1       1.875   3.878  19.575  0.00  0.00    +0.000 A 
ATOM     17  C   UNL     1       1.629   3.900  18.197  0.00  0.00    +0.000 A 
ATOM     18  C   UNL     1       2.265   2.988  17.352  0.00  0.00    +0.000 A 
ATOM     19  C   UNL     1       3.132   2.030  17.876  0.00  0.00    +0.000 A 
ATOM     20  C   UNL     1       3.342   1.955  19.251  0.00  0.00    +0.000 A 
ATOM     21  C   UNL     1       2.703   2.866  20.088  0.00  0.00    +0.000 A 
BRANCH  21  22
ATOM     22  O   UNL     1       2.876   2.781  21.443  0.00  0.00    +0.000 OA
ATOM     23  H   UNL     1       2.527   3.587  21.860  0.00  0.00    +0.000 HD
ENDBRANCH  21  22
ENDBRANCH  15  16
ENDBRANCH  13  15
ENDBRANCH   5  13
BRANCH   4  24
ATOM     24  S   UNL     1       0.129   8.531  21.268  0.00  0.00    +0.000 S 
BRANCH  24  25
ATOM     25  C   UNL     1       0.490  10.256  21.699  0.00  0.00    +0.000 C 
BRANCH  25  26
ATOM     26  C   UNL     1      -0.632  11.200  21.365  0.00  0.00    +0.000 A 
ATOM     27  C   UNL     1      -1.155  12.039  22.275  0.00  0.00    +0.000 A 
ATOM     28  C   UNL     1      -2.247  12.939  21.877  0.00  0.00    +0.000 A 
ATOM     29  O   UNL     1      -2.768  13.728  22.660  0.00  0.00    +0.000 OA
ATOM     30  C   UNL     1      -2.712  12.857  20.476  0.00  0.00    +0.000 A 
ATOM     31  C   UNL     1      -2.081  12.011  19.659  0.00  0.00    +0.000 A 
ATOM     32  O   UNL     1      -1.048  11.182  20.035  0.00  0.00    +0.000 OA
BRANCH  30  33
ATOM     33  O   UNL     1      -3.758  13.660  20.069  0.00  0.00    +0.000 OA
ATOM     34  H   UNL     1      -3.327  14.416  19.616  0.00  0.00    +0.000 HD
ENDBRANCH  30  33
ENDBRANCH  25  26
ENDBRANCH  24  25
ENDBRANCH   4  24
TORSDOF 9
ENDMDL
MODEL 5
REMARK VINA RESULT:      -7.6      1.385      2.051
REMARK  Name = 
REMARK  10 active torsions:
REMARK  status: ('A' for Active; 'I' for Inactive)
REMARK    1  A    between atoms: C_1  and  C_2
REMARK    2  A    between atoms: C_5  and  C_6
REMARK    3  A    between atoms: C_9  and  S_10
REMARK    4  A    between atoms: S_10  and  C_11
REMARK    5  A    between atoms: C_11  and  C_12
REMARK    6  A    between atoms: C_16  and  O_17
REMARK    7  A    between atoms: N_20  and  N_21
REMARK    8  A    between atoms: N_21  and  C_22
REMARK    9  A    between atoms: C_22  and  C_23
REMARK   10  A    between atoms: C_28  and  O_29
REMARK                            x       y       z     vdW  Elec       q    Type
REMARK                         _______ _______ _______ _____ _____    ______ ____
ROOT
ATOM      1  C   UNL     1       3.134   7.068  18.745  0.00  0.00    +0.000 A 
ATOM      2  N   UNL     1       2.853   8.237  18.184  0.00  0.00    +0.000 NA
ATOM      3  N   UNL     1       1.878   8.865  18.909  0.00  0.00    +0.000 NA
ATOM      4  C   UNL     1       1.546   8.070  19.897  0.00  0.00    +0.000 A 
ATOM      5  N   UNL     1       2.289   6.907  19.850  0.00  0.00    +0.000 N 
ENDROOT
BRANCH   1  10
ATOM      6  C   UNL     1       7.292   4.052  16.139  0.00  0.00    +0.000 C 
ATOM      7  C   UNL     1       6.137   4.663  16.875  0.00  0.00    +0.000 A 
ATOM      8  C   UNL     1       4.896   4.823  16.257  0.00  0.00    +0.000 A 
ATOM      9  C   UNL     1       3.853   5.479  16.919  0.00  0.00    +0.000 A 
ATOM     10  C   UNL     1       4.064   6.089  18.158  0.00  0.00    +0.000 A 
ATOM     11  C   UNL     1       5.268   5.814  18.824  0.00  0.00    +0.000 A 
ATOM     12  C   UNL     1       6.292   5.099  18.193  0.00  0.00    +0.000 A 
ENDBRANCH   1  10
BRANCH   5  13
ATOM     13  N   UNL     1       2.220   5.852  20.858  0.00  0.00    +0.000 N 
ATOM     14  H   UNL     1       3.150   5.593  21.176  0.00  0.00    +0.000 HD
BRANCH  13  15
ATOM     15  C   UNL     1       1.464   4.660  20.459  0.00  0.00    +0.000 C 
BRANCH  15  16
ATOM     16  C   UNL     1       2.256   3.590  19.755  0.00  0.00    +0.000 A 
ATOM     17  C   UNL     1       3.447   3.068  20.275  0.00  0.00    +0.000 A 
ATOM     18  C   UNL     1       4.138   2.067  19.589  0.00  0.00    +0.000 A 
ATOM     19  C   UNL     1       3.661   1.593  18.367  0.00  0.00    +0.000 A 
ATOM     20  C   UNL     1       2.510   2.143  17.806  0.00  0.00    +0.000 A 
ATOM     21  C   UNL     1       1.827   3.142  18.494  0.00  0.00    +0.000 A 
BRANCH  21  22
ATOM     22  O   UNL     1       0.715   3.713  17.938  0.00  0.00    +0.000 OA
ATOM     23  H   UNL     1       0.912   4.636  17.706  0.00  0.00    +0.000 HD
ENDBRANCH  21  22
ENDBRANCH  15  16
ENDBRANCH  13  15
ENDBRANCH   5  13
BRANCH   4  24
ATOM     24  S   UNL     1       0.426   8.476  21.157  0.00  0.00    +0.000 S 
BRANCH  24  25
ATOM     25  C   UNL     1       0.430  10.290  21.108  0.00  0.00    +0.000 C 
BRANCH  25  26
ATOM     26  C   UNL     1      -0.749  10.868  20.377  0.00  0.00    +0.000 A 
ATOM     27  C   UNL     1      -1.434  11.925  20.848  0.00  0.00    +0.000 A 
ATOM     28  C   UNL     1      -2.573  12.442  20.078  0.00  0.00    +0.000 A 
ATOM     29  O   UNL     1      -3.239  13.402  20.453  0.00  0.00    +0.000 OA
ATOM     30  C   UNL     1      -2.903  11.750  18.813  0.00  0.00    +0.000 A 
ATOM     31  C   UNL     1      -2.118  10.739  18.435  0.00  0.00    +0.000 A 
ATOM     32  O   UNL     1      -1.042  10.269  19.154  0.00  0.00    +0.000 OA
BRANCH  30  33
ATOM     33  O   UNL     1      -3.986  12.182  18.075  0.00  0.00    +0.000 OA
ATOM     34  H   UNL     1      -4.767  11.823  18.548  0.00  0.00    +0.000 HD
ENDBRANCH  30  33
ENDBRANCH  25  26
ENDBRANCH  24  25
ENDBRANCH   4  24
TORSDOF 9
ENDMDL
MODEL 6
REMARK VINA RESULT:      -7.5      1.571      1.712
REMARK  Name = 
REMARK  10 active torsions:
REMARK  status: ('A' for Active; 'I' for Inactive)
REMARK    1  A    between atoms: C_1  and  C_2
REMARK    2  A    between atoms: C_5  and  C_6
REMARK    3  A    between atoms: C_9  and  S_10
REMARK    4  A    between atoms: S_10  and  C_11
REMARK    5  A    between atoms: C_11  and  C_12
REMARK    6  A    between atoms: C_16  and  O_17
REMARK    7  A    between atoms: N_20  and  N_21
REMARK    8  A    between atoms: N_21  and  C_22
REMARK    9  A    between atoms: C_22  and  C_23
REMARK   10  A    between atoms: C_28  and  O_29
REMARK                            x       y       z     vdW  Elec       q    Type
REMARK                         _______ _______ _______ _____ _____    ______ ____
ROOT
ATOM      1  C   UNL     1       2.920   7.577  18.151  0.00  0.00    +0.000 A 
ATOM      2  N   UNL     1       2.468   8.626  17.477  0.00  0.00    +0.000 NA
ATOM      3  N   UNL     1       1.564   9.306  18.248  0.00  0.00    +0.000 NA
ATOM      4  C   UNL     1       1.446   8.658  19.382  0.00  0.00    +0.000 A 
ATOM      5  N   UNL     1       2.263   7.544  19.388  0.00  0.00    +0.000 N 
ENDROOT
BRANCH   1  10
ATOM      6  C   UNL     1       6.045   3.901  15.005  0.00  0.00    +0.000 C 
ATOM      7  C   UNL     1       5.339   4.798  15.978  0.00  0.00    +0.000 A 
ATOM      8  C   UNL     1       4.254   4.334  16.724  0.00  0.00    +0.000 A 
ATOM      9  C   UNL     1       3.543   5.203  17.558  0.00  0.00    +0.000 A 
ATOM     10  C   UNL     1       3.826   6.571  17.573  0.00  0.00    +0.000 A 
ATOM     11  C   UNL     1       4.992   7.003  16.923  0.00  0.00    +0.000 A 
ATOM     12  C   UNL     1       5.749   6.123  16.140  0.00  0.00    +0.000 A 
ENDBRANCH   1  10
BRANCH   5  13
ATOM     13  N   UNL     1       2.428   6.658  20.537  0.00  0.00    +0.000 N 
ATOM     14  H   UNL     1       3.297   6.134  20.470  0.00  0.00    +0.000 HD
BRANCH  13  15
ATOM     15  C   UNL     1       1.302   5.752  20.789  0.00  0.00    +0.000 C 
BRANCH  15  16
ATOM     16  C   UNL     1       1.445   4.360  20.230  0.00  0.00    +0.000 A 
ATOM     17  C   UNL     1       0.916   3.989  18.988  0.00  0.00    +0.000 A 
ATOM     18  C   UNL     1       1.088   2.688  18.508  0.00  0.00    +0.000 A 
ATOM     19  C   UNL     1       1.767   1.741  19.273  0.00  0.00    +0.000 A 
ATOM     20  C   UNL     1       2.247   2.076  20.537  0.00  0.00    +0.000 A 
ATOM     21  C   UNL     1       2.072   3.374  21.010  0.00  0.00    +0.000 A 
BRANCH  21  22
ATOM     22  O   UNL     1       2.510   3.706  22.263  0.00  0.00    +0.000 OA
ATOM     23  H   UNL     1       3.116   4.463  22.198  0.00  0.00    +0.000 HD
ENDBRANCH  21  22
ENDBRANCH  15  16
ENDBRANCH  13  15
ENDBRANCH   5  13
BRANCH   4  24
ATOM     24  S   UNL     1       0.497   9.193  20.730  0.00  0.00    +0.000 S 
BRANCH  24  25
ATOM     25  C   UNL     1       0.981  10.936  20.875  0.00  0.00    +0.000 C 
BRANCH  25  26
ATOM     26  C   UNL     1       0.017  11.756  21.687  0.00  0.00    +0.000 A 
ATOM     27  C   UNL     1      -1.078  11.219  22.252  0.00  0.00    +0.000 A 
ATOM     28  C   UNL     1      -1.974  12.079  23.037  0.00  0.00    +0.000 A 
ATOM     29  O   UNL     1      -2.990  11.652  23.578  0.00  0.00    +0.000 OA
ATOM     30  C   UNL     1      -1.609  13.507  23.154  0.00  0.00    +0.000 A 
ATOM     31  C   UNL     1      -0.471  13.907  22.581  0.00  0.00    +0.000 A 
ATOM     32  O   UNL     1       0.372  13.092  21.859  0.00  0.00    +0.000 OA
BRANCH  30  33
ATOM     33  O   UNL     1      -2.440  14.357  23.854  0.00  0.00    +0.000 OA
ATOM     34  H   UNL     1      -2.260  14.157  24.798  0.00  0.00    +0.000 HD
ENDBRANCH  30  33
ENDBRANCH  25  26
ENDBRANCH  24  25
ENDBRANCH   4  24
TORSDOF 9
ENDMDL
MODEL 7
REMARK VINA RESULT:      -7.5      3.233      4.707
REMARK  Name = 
REMARK  10 active torsions:
REMARK  status: ('A' for Active; 'I' for Inactive)
REMARK    1  A    between atoms: C_1  and  C_2
REMARK    2  A    between atoms: C_5  and  C_6
REMARK    3  A    between atoms: C_9  and  S_10
REMARK    4  A    between atoms: S_10  and  C_11
REMARK    5  A    between atoms: C_11  and  C_12
REMARK    6  A    between atoms: C_16  and  O_17
REMARK    7  A    between atoms: N_20  and  N_21
REMARK    8  A    between atoms: N_21  and  C_22
REMARK    9  A    between atoms: C_22  and  C_23
REMARK   10  A    between atoms: C_28  and  O_29
REMARK                            x       y       z     vdW  Elec       q    Type
REMARK                         _______ _______ _______ _____ _____    ______ ____
ROOT
ATOM      1  C   UNL     1       5.484   5.585  15.419  0.00  0.00    +0.000 A 
ATOM      2  N   UNL     1       5.172   6.873  15.478  0.00  0.00    +0.000 NA
ATOM      3  N   UNL     1       4.757   7.181  16.746  0.00  0.00    +0.000 NA
ATOM      4  C   UNL     1       4.790   6.077  17.451  0.00  0.00    +0.000 A 
ATOM      5  N   UNL     1       5.227   5.021  16.675  0.00  0.00    +0.000 N 
ENDROOT
BRANCH   1  10
ATOM      6  C   UNL     1       7.141   2.102  11.142  0.00  0.00    +0.000 C 
ATOM      7  C   UNL     1       6.673   3.142  12.115  0.00  0.00    +0.000 A 
ATOM      8  C   UNL     1       7.554   4.102  12.617  0.00  0.00    +0.000 A 
ATOM      9  C   UNL     1       7.132   5.009  13.595  0.00  0.00    +0.000 A 
ATOM     10  C   UNL     1       5.865   4.900  14.173  0.00  0.00    +0.000 A 
ATOM     11  C   UNL     1       4.949   4.020  13.576  0.00  0.00    +0.000 A 
ATOM     12  C   UNL     1       5.346   3.156  12.548  0.00  0.00    +0.000 A 
ENDBRANCH   1  10
BRANCH   5  13
ATOM     13  N   UNL     1       5.456   3.672  17.186  0.00  0.00    +0.000 N 
ATOM     14  H   UNL     1       6.326   3.290  16.822  0.00  0.00    +0.000 HD
BRANCH  13  15
ATOM     15  C   UNL     1       4.353   2.731  16.970  0.00  0.00    +0.000 C 
BRANCH  15  16
ATOM     16  C   UNL     1       3.329   2.659  18.073  0.00  0.00    +0.000 A 
ATOM     17  C   UNL     1       1.960   2.843  17.844  0.00  0.00    +0.000 A 
ATOM     18  C   UNL     1       1.050   2.754  18.899  0.00  0.00    +0.000 A 
ATOM     19  C   UNL     1       1.498   2.504  20.195  0.00  0.00    +0.000 A 
ATOM     20  C   UNL     1       2.861   2.378  20.452  0.00  0.00    +0.000 A 
ATOM     21  C   UNL     1       3.764   2.469  19.395  0.00  0.00    +0.000 A 
BRANCH  21  22
ATOM     22  O   UNL     1       5.108   2.380  19.639  0.00  0.00    +0.000 OA
ATOM     23  H   UNL     1       5.352   1.444  19.736  0.00  0.00    +0.000 HD
ENDBRANCH  21  22
ENDBRANCH  15  16
ENDBRANCH  13  15
ENDBRANCH   5  13
BRANCH   4  24
ATOM     24  S   UNL     1       4.458   5.982  19.150  0.00  0.00    +0.000 S 
BRANCH  24  25
ATOM     25  C   UNL     1       2.644   6.018  19.191  0.00  0.00    +0.000 C 
BRANCH  25  26
ATOM     26  C   UNL     1       2.079   7.406  19.316  0.00  0.00    +0.000 A 
ATOM     27  C   UNL     1       1.673   7.909  20.495  0.00  0.00    +0.000 A 
ATOM     28  C   UNL     1       1.137   9.276  20.544  0.00  0.00    +0.000 A 
ATOM     29  O   UNL     1       0.750   9.794  21.588  0.00  0.00    +0.000 OA
ATOM     30  C   UNL     1       1.072  10.022  19.270  0.00  0.00    +0.000 A 
ATOM     31  C   UNL     1       1.546   9.425  18.174  0.00  0.00    +0.000 A 
ATOM     32  O   UNL     1       2.062   8.148  18.138  0.00  0.00    +0.000 OA
BRANCH  30  33
ATOM     33  O   UNL     1       0.544  11.297  19.264  0.00  0.00    +0.000 OA
ATOM     34  H   UNL     1       0.555  11.574  20.205  0.00  0.00    +0.000 HD
ENDBRANCH  30  33
ENDBRANCH  25  26
ENDBRANCH  24  25
ENDBRANCH   4  24
TORSDOF 9
ENDMDL
MODEL 8
REMARK VINA RESULT:      -7.4      1.041      1.679
REMARK  Name = 
REMARK  10 active torsions:
REMARK  status: ('A' for Active; 'I' for Inactive)
REMARK    1  A    between atoms: C_1  and  C_2
REMARK    2  A    between atoms: C_5  and  C_6
REMARK    3  A    between atoms: C_9  and  S_10
REMARK    4  A    between atoms: S_10  and  C_11
REMARK    5  A    between atoms: C_11  and  C_12
REMARK    6  A    between atoms: C_16  and  O_17
REMARK    7  A    between atoms: N_20  and  N_21
REMARK    8  A    between atoms: N_21  and  C_22
REMARK    9  A    between atoms: C_22  and  C_23
REMARK   10  A    between atoms: C_28  and  O_29
REMARK                            x       y       z     vdW  Elec       q    Type
REMARK                         _______ _______ _______ _____ _____    ______ ____
ROOT
ATOM      1  C   UNL     1       3.180   7.630  18.271  0.00  0.00    +0.000 A 
ATOM      2  N   UNL     1       2.704   8.733  17.709  0.00  0.00    +0.000 NA
ATOM      3  N   UNL     1       1.705   9.246  18.492  0.00  0.00    +0.000 NA
ATOM      4  C   UNL     1       1.553   8.442  19.516  0.00  0.00    +0.000 A 
ATOM      5  N   UNL     1       2.443   7.388  19.438  0.00  0.00    +0.000 N 
ENDROOT
BRANCH   1  10
ATOM      6  C   UNL     1       6.343   3.723  15.459  0.00  0.00    +0.000 C 
ATOM      7  C   UNL     1       5.690   4.832  16.230  0.00  0.00    +0.000 A 
ATOM      8  C   UNL     1       5.567   4.765  17.618  0.00  0.00    +0.000 A 
ATOM      9  C   UNL     1       4.873   5.758  18.318  0.00  0.00    +0.000 A 
ATOM     10  C   UNL     1       4.192   6.769  17.637  0.00  0.00    +0.000 A 
ATOM     11  C   UNL     1       4.426   6.900  16.259  0.00  0.00    +0.000 A 
ATOM     12  C   UNL     1       5.178   5.947  15.563  0.00  0.00    +0.000 A 
ENDBRANCH   1  10
BRANCH   5  13
ATOM     13  N   UNL     1       2.588   6.364  20.468  0.00  0.00    +0.000 N 
ATOM     14  H   UNL     1       3.550   6.037  20.522  0.00  0.00    +0.000 HD
BRANCH  13  15
ATOM     15  C   UNL     1       1.668   5.228  20.349  0.00  0.00    +0.000 C 
BRANCH  15  16
ATOM     16  C   UNL     1       2.094   4.138  19.399  0.00  0.00    +0.000 A 
ATOM     17  C   UNL     1       1.797   4.172  18.031  0.00  0.00    +0.000 A 
ATOM     18  C   UNL     1       2.226   3.142  17.190  0.00  0.00    +0.000 A 
ATOM     19  C   UNL     1       2.934   2.059  17.709  0.00  0.00    +0.000 A 
ATOM     20  C   UNL     1       3.186   1.980  19.077  0.00  0.00    +0.000 A 
ATOM     21  C   UNL     1       2.754   3.008  19.910  0.00  0.00    +0.000 A 
BRANCH  21  22
ATOM     22  O   UNL     1       2.966   2.925  21.260  0.00  0.00    +0.000 OA
ATOM     23  H   UNL     1       2.540   3.682  21.696  0.00  0.00    +0.000 HD
ENDBRANCH  21  22
ENDBRANCH  15  16
ENDBRANCH  13  15
ENDBRANCH   5  13
BRANCH   4  24
ATOM     24  S   UNL     1       0.478   8.729  20.846  0.00  0.00    +0.000 S 
BRANCH  24  25
ATOM     25  C   UNL     1       0.779  10.481  21.213  0.00  0.00    +0.000 C 
BRANCH  25  26
ATOM     26  C   UNL     1      -0.421  11.354  20.970  0.00  0.00    +0.000 A 
ATOM     27  C   UNL     1      -0.817  12.286  21.854  0.00  0.00    +0.000 A 
ATOM     28  C   UNL     1      -1.995  13.108  21.549  0.00  0.00    +0.000 A 
ATOM     29  O   UNL     1      -2.409  13.975  22.313  0.00  0.00    +0.000 OA
ATOM     30  C   UNL     1      -2.686  12.850  20.267  0.00  0.00    +0.000 A 
ATOM     31  C   UNL     1      -2.167  11.924  19.457  0.00  0.00    +0.000 A 
ATOM     32  O   UNL     1      -1.052  11.167  19.743  0.00  0.00    +0.000 OA
BRANCH  30  33
ATOM     33  O   UNL     1      -3.817  13.576  19.955  0.00  0.00    +0.000 OA
ATOM     34  H   UNL     1      -4.514  13.213  20.542  0.00  0.00    +0.000 HD
ENDBRANCH  30  33
ENDBRANCH  25  26
ENDBRANCH  24  25
ENDBRANCH   4  24
TORSDOF 9
ENDMDL
MODEL 9
REMARK VINA RESULT:      -7.4      2.843     10.022
REMARK  Name = 
REMARK  10 active torsions:
REMARK  status: ('A' for Active; 'I' for Inactive)
REMARK    1  A    between atoms: C_1  and  C_2
REMARK    2  A    between atoms: C_5  and  C_6
REMARK    3  A    between atoms: C_9  and  S_10
REMARK    4  A    between atoms: S_10  and  C_11
REMARK    5  A    between atoms: C_11  and  C_12
REMARK    6  A    between atoms: C_16  and  O_17
REMARK    7  A    between atoms: N_20  and  N_21
REMARK    8  A    between atoms: N_21  and  C_22
REMARK    9  A    between atoms: C_22  and  C_23
REMARK   10  A    between atoms: C_28  and  O_29
REMARK                            x       y       z     vdW  Elec       q    Type
REMARK                         _______ _______ _______ _____ _____    ______ ____
ROOT
ATOM      1  C   UNL     1       0.341   9.907  20.605  0.00  0.00    +0.000 A 
ATOM      2  N   UNL     1       0.724   8.790  21.210  0.00  0.00    +0.000 NA
ATOM      3  N   UNL     1       1.545   8.081  20.374  0.00  0.00    +0.000 NA
ATOM      4  C   UNL     1       1.642   8.752  19.253  0.00  0.00    +0.000 A 
ATOM      5  N   UNL     1       0.895   9.912  19.319  0.00  0.00    +0.000 N 
ENDROOT
BRANCH   1  10
ATOM      6  C   UNL     1      -2.961  14.294  22.343  0.00  0.00    +0.000 C 
ATOM      7  C   UNL     1      -2.226  13.036  21.990  0.00  0.00    +0.000 A 
ATOM      8  C   UNL     1      -1.256  12.508  22.844  0.00  0.00    +0.000 A 
ATOM      9  C   UNL     1      -0.509  11.388  22.465  0.00  0.00    +0.000 A 
ATOM     10  C   UNL     1      -0.633  10.848  21.183  0.00  0.00    +0.000 A 
ATOM     11  C   UNL     1      -1.694  11.301  20.383  0.00  0.00    +0.000 A 
ATOM     12  C   UNL     1      -2.491  12.378  20.787  0.00  0.00    +0.000 A 
ENDBRANCH   1  10
BRANCH   5  13
ATOM     13  N   UNL     1       0.860  10.922  18.264  0.00  0.00    +0.000 N 
ATOM     14  H   UNL     1       1.000  10.497  17.351  0.00  0.00    +0.000 HD
BRANCH  13  15
ATOM     15  C   UNL     1       1.780  12.048  18.451  0.00  0.00    +0.000 C 
BRANCH  15  16
ATOM     16  C   UNL     1       1.218  13.236  19.189  0.00  0.00    +0.000 A 
ATOM     17  C   UNL     1       1.752  13.692  20.401  0.00  0.00    +0.000 A 
ATOM     18  C   UNL     1       1.203  14.806  21.039  0.00  0.00    +0.000 A 
ATOM     19  C   UNL     1       0.103  15.461  20.488  0.00  0.00    +0.000 A 
ATOM     20  C   UNL     1      -0.478  14.985  19.315  0.00  0.00    +0.000 A 
ATOM     21  C   UNL     1       0.073  13.873  18.684  0.00  0.00    +0.000 A 
BRANCH  21  22
ATOM     22  O   UNL     1      -0.509  13.377  17.549  0.00  0.00    +0.000 OA
ATOM     23  H   UNL     1      -0.683  14.109  16.934  0.00  0.00    +0.000 HD
ENDBRANCH  21  22
ENDBRANCH  15  16
ENDBRANCH  13  15
ENDBRANCH   5  13
BRANCH   4  24
ATOM     24  S   UNL     1       2.664   8.311  17.924  0.00  0.00    +0.000 S 
BRANCH  24  25
ATOM     25  C   UNL     1       2.716   6.502  18.060  0.00  0.00    +0.000 C 
BRANCH  25  26
ATOM     26  C   UNL     1       4.102   5.935  17.930  0.00  0.00    +0.000 A 
ATOM     27  C   UNL     1       4.966   6.364  16.994  0.00  0.00    +0.000 A 
ATOM     28  C   UNL     1       6.307   5.769  16.929  0.00  0.00    +0.000 A 
ATOM     29  O   UNL     1       7.142   6.116  16.099  0.00  0.00    +0.000 OA
ATOM     30  C   UNL     1       6.625   4.711  17.912  0.00  0.00    +0.000 A 
ATOM     31  C   UNL     1       5.694   4.404  18.819  0.00  0.00    +0.000 A 
ATOM     32  O   UNL     1       4.443   4.978  18.883  0.00  0.00    +0.000 OA
BRANCH  30  33
ATOM     33  O   UNL     1       7.862   4.101  17.866  0.00  0.00    +0.000 OA
ATOM     34  H   UNL     1       8.338   4.447  18.651  0.00  0.00    +0.000 HD
ENDBRANCH  30  33
ENDBRANCH  25  26
ENDBRANCH  24  25
ENDBRANCH   4  24
TORSDOF 9
ENDMDL
