MODEL 1
REMARK VINA RESULT:      -9.1      0.000      0.000
REMARK  Name = 
REMARK  8 active torsions:
REMARK  status: ('A' for Active; 'I' for Inactive)
REMARK    1  A    between atoms: C_1  and  C_2
REMARK    2  A    between atoms: C_2  and  C_3
REMARK    3  A    between atoms: C_3  and  C_4
REMARK    4  A    between atoms: C_4  and  N_5
REMARK    5  A    between atoms: N_5  and  C_6
REMARK    6  A    between atoms: C_7  and  C_9
REMARK    7  A    between atoms: N_13  and  C_14
REMARK    8  A    between atoms: N_22  and  C_23
REMARK                            x       y       z     vdW  Elec       q    Type
REMARK                         _______ _______ _______ _____ _____    ______ ____
ROOT
ATOM      1  C   UNL     1       2.188   6.279  19.533  0.00  0.00    +0.000 A 
ATOM      2  C   UNL     1       1.358   5.575  20.439  0.00  0.00    +0.000 A 
ATOM      3  C   UNL     1       1.319   4.169  20.521  0.00  0.00    +0.000 A 
ATOM      4  C   UNL     1       2.101   3.399  19.673  0.00  0.00    +0.000 A 
ATOM      5  C   UNL     1       2.925   4.080  18.797  0.00  0.00    +0.000 A 
ATOM      6  C   UNL     1       3.004   5.464  18.744  0.00  0.00    +0.000 A 
ATOM      7  C   UNL     1       4.072   5.764  17.771  0.00  0.00    +0.000 C 
ATOM      8  O   UNL     1       4.529   6.880  17.601  0.00  0.00    +0.000 OA
ATOM      9  N   UNL     1       4.430   4.578  17.162  0.00  0.00    +0.000 N 
ATOM     10  C   UNL     1       3.810   3.520  17.782  0.00  0.00    +0.000 C 
ATOM     11  O   UNL     1       3.909   2.317  17.622  0.00  0.00    +0.000 OA
ENDROOT
BRANCH   9  12
ATOM     12  C   UNL     1       5.314   4.471  16.046  0.00  0.00    +0.000 A 
ATOM     13  C   UNL     1       6.652   4.895  16.123  0.00  0.00    +0.000 A 
ATOM     14  C   UNL     1       7.501   4.860  15.013  0.00  0.00    +0.000 A 
ATOM     15  C   UNL     1       7.025   4.401  13.790  0.00  0.00    +0.000 A 
ATOM     16  C   UNL     1       5.707   3.968  13.693  0.00  0.00    +0.000 A 
ATOM     17 CL   UNL     1       5.104   3.430  12.173  0.00  0.00    +0.000 Cl
ATOM     18  C   UNL     1       4.862   3.989  14.806  0.00  0.00    +0.000 A 
ENDBRANCH   9  12
BRANCH   1  23
ATOM     19  C   UNL     1       0.581   9.400  20.262  0.00  0.00    +0.000 C 
ATOM     20  C   UNL     1       0.899  10.231  19.007  0.00  0.00    +0.000 C 
ATOM     21  C   UNL     1       1.318   9.337  17.846  0.00  0.00    +0.000 C 
ATOM     22  C   UNL     1       2.459   8.401  18.237  0.00  0.00    +0.000 C 
ATOM     23  N   UNL     1       2.080   7.652  19.442  0.00  0.00    +0.000 N 
ATOM     24  C   UNL     1       1.763   8.489  20.608  0.00  0.00    +0.000 C 
BRANCH  19  27
ATOM     25  N   UNL     1      -0.793  11.159  21.389  0.00  0.00    +0.000 N 
ATOM     26  C   UNL     1      -1.492  11.450  20.145  0.00  0.00    +0.000 C 
ATOM     27  C   UNL     1       0.310  10.307  21.456  0.00  0.00    +0.000 C 
ATOM     28  O   UNL     1       1.010  10.227  22.464  0.00  0.00    +0.000 OA
BRANCH  25  29
ATOM     29  C   UNL     1      -1.056  12.033  22.535  0.00  0.00    +0.000 C 
BRANCH  29  30
ATOM     30  C   UNL     1      -2.266  11.614  23.374  0.00  0.00    +0.000 C 
BRANCH  30  32
ATOM     31  C   UNL     1      -4.119  12.846  24.539  0.00  0.00    +0.000 C 
ATOM     32  C   UNL     1      -3.473  12.538  23.197  0.00  0.00    +0.000 C 
ENDBRANCH  30  32
ENDBRANCH  29  30
ENDBRANCH  25  29
ENDBRANCH  19  27
ENDBRANCH   1  23
TORSDOF 6
ENDMDL
MODEL 2
REMARK VINA RESULT:      -8.6      3.651      5.097
REMARK  Name = 
REMARK  8 active torsions:
REMARK  status: ('A' for Active; 'I' for Inactive)
REMARK    1  A    between atoms: C_1  and  C_2
REMARK    2  A    between atoms: C_2  and  C_3
REMARK    3  A    between atoms: C_3  and  C_4
REMARK    4  A    between atoms: C_4  and  N_5
REMARK    5  A    between atoms: N_5  and  C_6
REMARK    6  A    between atoms: C_7  and  C_9
REMARK    7  A    between atoms: N_13  and  C_14
REMARK    8  A    between atoms: N_22  and  C_23
REMARK                            x       y       z     vdW  Elec       q    Type
REMARK                         _______ _______ _______ _____ _____    ______ ____
ROOT
ATOM      1  C   UNL     1       0.556   9.843  20.032  0.00  0.00    +0.000 A 
ATOM      2  C   UNL     1      -0.076   9.971  21.292  0.00  0.00    +0.000 A 
ATOM      3  C   UNL     1      -0.026   8.976  22.289  0.00  0.00    +0.000 A 
ATOM      4  C   UNL     1       0.648   7.787  22.053  0.00  0.00    +0.000 A 
ATOM      5  C   UNL     1       1.280   7.662  20.830  0.00  0.00    +0.000 A 
ATOM      6  C   UNL     1       1.275   8.657  19.864  0.00  0.00    +0.000 A 
ATOM      7  C   UNL     1       2.152   8.167  18.784  0.00  0.00    +0.000 C 
ATOM      8  O   UNL     1       2.515   8.858  17.849  0.00  0.00    +0.000 OA
ATOM      9  N   UNL     1       2.470   6.852  19.065  0.00  0.00    +0.000 N 
ATOM     10  C   UNL     1       2.017   6.513  20.317  0.00  0.00    +0.000 C 
ATOM     11  O   UNL     1       2.153   5.500  20.980  0.00  0.00    +0.000 OA
ENDROOT
BRANCH   9  12
ATOM     12  C   UNL     1       3.164   5.976  18.178  0.00  0.00    +0.000 A 
ATOM     13  C   UNL     1       2.612   4.746  17.777  0.00  0.00    +0.000 A 
ATOM     14  C   UNL     1       3.319   3.852  16.967  0.00  0.00    +0.000 A 
ATOM     15  C   UNL     1       4.604   4.167  16.542  0.00  0.00    +0.000 A 
ATOM     16  C   UNL     1       5.166   5.381  16.921  0.00  0.00    +0.000 A 
ATOM     17 CL   UNL     1       6.770   5.761  16.424  0.00  0.00    +0.000 Cl
ATOM     18  C   UNL     1       4.455   6.283  17.718  0.00  0.00    +0.000 A 
ENDBRANCH   9  12
BRANCH   1  23
ATOM     19  C   UNL     1       0.485  13.255  18.932  0.00  0.00    +0.000 C 
ATOM     20  C   UNL     1      -0.609  13.226  17.850  0.00  0.00    +0.000 C 
ATOM     21  C   UNL     1      -1.489  11.989  17.990  0.00  0.00    +0.000 C 
ATOM     22  C   UNL     1      -0.660  10.708  18.024  0.00  0.00    +0.000 C 
ATOM     23  N   UNL     1       0.361  10.818  19.075  0.00  0.00    +0.000 N 
ATOM     24  C   UNL     1       1.285  11.950  18.912  0.00  0.00    +0.000 C 
BRANCH  19  27
ATOM     25  N   UNL     1       1.200  15.613  19.360  0.00  0.00    +0.000 N 
ATOM     26  C   UNL     1      -0.074  15.913  20.000  0.00  0.00    +0.000 C 
ATOM     27  C   UNL     1       1.448  14.412  18.695  0.00  0.00    +0.000 C 
ATOM     28  O   UNL     1       2.444  14.252  17.991  0.00  0.00    +0.000 OA
BRANCH  25  29
ATOM     29  C   UNL     1       2.123  16.727  19.132  0.00  0.00    +0.000 C 
BRANCH  29  30
ATOM     30  C   UNL     1       1.433  18.054  18.810  0.00  0.00    +0.000 C 
BRANCH  30  32
ATOM     31  C   UNL     1      -0.249  18.106  16.945  0.00  0.00    +0.000 C 
ATOM     32  C   UNL     1       1.218  18.274  17.311  0.00  0.00    +0.000 C 
ENDBRANCH  30  32
ENDBRANCH  29  30
ENDBRANCH  25  29
ENDBRANCH  19  27
ENDBRANCH   1  23
TORSDOF 6
ENDMDL
MODEL 3
REMARK VINA RESULT:      -8.6      0.803      1.316
REMARK  Name = 
REMARK  8 active torsions:
REMARK  status: ('A' for Active; 'I' for Inactive)
REMARK    1  A    between atoms: C_1  and  C_2
REMARK    2  A    between atoms: C_2  and  C_3
REMARK    3  A    between atoms: C_3  and  C_4
REMARK    4  A    between atoms: C_4  and  N_5
REMARK    5  A    between atoms: N_5  and  C_6
REMARK    6  A    between atoms: C_7  and  C_9
REMARK    7  A    between atoms: N_13  and  C_14
REMARK    8  A    between atoms: N_22  and  C_23
REMARK                            x       y       z     vdW  Elec       q    Type
REMARK                         _______ _______ _______ _____ _____    ______ ____
ROOT
ATOM      1  C   UNL     1       2.164   6.242  19.589  0.00  0.00    +0.000 A 
ATOM      2  C   UNL     1       1.336   5.519  20.481  0.00  0.00    +0.000 A 
ATOM      3  C   UNL     1       1.307   4.112  20.543  0.00  0.00    +0.000 A 
ATOM      4  C   UNL     1       2.099   3.360  19.688  0.00  0.00    +0.000 A 
ATOM      5  C   UNL     1       2.921   4.060  18.825  0.00  0.00    +0.000 A 
ATOM      6  C   UNL     1       2.990   5.446  18.792  0.00  0.00    +0.000 A 
ATOM      7  C   UNL     1       4.059   5.767  17.828  0.00  0.00    +0.000 C 
ATOM      8  O   UNL     1       4.508   6.889  17.675  0.00  0.00    +0.000 OA
ATOM      9  N   UNL     1       4.429   4.593  17.203  0.00  0.00    +0.000 N 
ATOM     10  C   UNL     1       3.815   3.522  17.806  0.00  0.00    +0.000 C 
ATOM     11  O   UNL     1       3.924   2.321  17.629  0.00  0.00    +0.000 OA
ENDROOT
BRANCH   9  12
ATOM     12  C   UNL     1       5.319   4.509  16.090  0.00  0.00    +0.000 A 
ATOM     13  C   UNL     1       6.642   4.977  16.168  0.00  0.00    +0.000 A 
ATOM     14  C   UNL     1       7.494   4.963  15.059  0.00  0.00    +0.000 A 
ATOM     15  C   UNL     1       7.036   4.483  13.838  0.00  0.00    +0.000 A 
ATOM     16  C   UNL     1       5.733   4.007  13.740  0.00  0.00    +0.000 A 
ATOM     17 CL   UNL     1       5.151   3.441  12.222  0.00  0.00    +0.000 Cl
ATOM     18  C   UNL     1       4.885   4.006  14.852  0.00  0.00    +0.000 A 
ENDBRANCH   9  12
BRANCH   1  23
ATOM     19  C   UNL     1       0.556   9.344  20.393  0.00  0.00    +0.000 C 
ATOM     20  C   UNL     1       0.838  10.192  19.141  0.00  0.00    +0.000 C 
ATOM     21  C   UNL     1       1.234   9.314  17.959  0.00  0.00    +0.000 C 
ATOM     22  C   UNL     1       2.390   8.382  18.312  0.00  0.00    +0.000 C 
ATOM     23  N   UNL     1       2.045   7.616  19.517  0.00  0.00    +0.000 N 
ATOM     24  C   UNL     1       1.751   8.437  20.700  0.00  0.00    +0.000 C 
BRANCH  19  27
ATOM     25  N   UNL     1      -0.791  11.095  21.566  0.00  0.00    +0.000 N 
ATOM     26  C   UNL     1      -1.507  11.408  20.336  0.00  0.00    +0.000 C 
ATOM     27  C   UNL     1       0.307  10.235  21.604  0.00  0.00    +0.000 C 
ATOM     28  O   UNL     1       1.021  10.137  22.601  0.00  0.00    +0.000 OA
BRANCH  25  29
ATOM     29  C   UNL     1      -1.032  11.953  22.728  0.00  0.00    +0.000 C 
BRANCH  29  30
ATOM     30  C   UNL     1      -1.387  13.399  22.373  0.00  0.00    +0.000 C 
BRANCH  30  32
ATOM     31  C   UNL     1       0.365  14.611  21.043  0.00  0.00    +0.000 C 
ATOM     32  C   UNL     1      -0.189  14.348  22.435  0.00  0.00    +0.000 C 
ENDBRANCH  30  32
ENDBRANCH  29  30
ENDBRANCH  25  29
ENDBRANCH  19  27
ENDBRANCH   1  23
TORSDOF 6
ENDMDL
MODEL 4
REMARK VINA RESULT:      -8.3      3.735      5.465
REMARK  Name = 
REMARK  8 active torsions:
REMARK  status: ('A' for Active; 'I' for Inactive)
REMARK    1  A    between atoms: C_1  and  C_2
REMARK    2  A    between atoms: C_2  and  C_3
REMARK    3  A    between atoms: C_3  and  C_4
REMARK    4  A    between atoms: C_4  and  N_5
REMARK    5  A    between atoms: N_5  and  C_6
REMARK    6  A    between atoms: C_7  and  C_9
REMARK    7  A    between atoms: N_13  and  C_14
REMARK    8  A    between atoms: N_22  and  C_23
REMARK                            x       y       z     vdW  Elec       q    Type
REMARK                         _______ _______ _______ _____ _____    ______ ____
ROOT
ATOM      1  C   UNL     1       0.622  10.067  20.109  0.00  0.00    +0.000 A 
ATOM      2  C   UNL     1       0.020  10.231  21.379  0.00  0.00    +0.000 A 
ATOM      3  C   UNL     1       0.040   9.240  22.381  0.00  0.00    +0.000 A 
ATOM      4  C   UNL     1       0.652   8.019  22.140  0.00  0.00    +0.000 A 
ATOM      5  C   UNL     1       1.254   7.857  20.906  0.00  0.00    +0.000 A 
ATOM      6  C   UNL     1       1.279   8.847  19.934  0.00  0.00    +0.000 A 
ATOM      7  C   UNL     1       2.112   8.309  18.842  0.00  0.00    +0.000 C 
ATOM      8  O   UNL     1       2.490   8.977  17.897  0.00  0.00    +0.000 OA
ATOM      9  N   UNL     1       2.371   6.982  19.125  0.00  0.00    +0.000 N 
ATOM     10  C   UNL     1       1.925   6.671  20.387  0.00  0.00    +0.000 C 
ATOM     11  O   UNL     1       2.024   5.656  21.053  0.00  0.00    +0.000 OA
ENDROOT
BRANCH   9  12
ATOM     12  C   UNL     1       3.006   6.068  18.231  0.00  0.00    +0.000 A 
ATOM     13  C   UNL     1       2.393   4.860  17.855  0.00  0.00    +0.000 A 
ATOM     14  C   UNL     1       3.041   3.929  17.038  0.00  0.00    +0.000 A 
ATOM     15  C   UNL     1       4.327   4.185  16.580  0.00  0.00    +0.000 A 
ATOM     16  C   UNL     1       4.950   5.377  16.932  0.00  0.00    +0.000 A 
ATOM     17 CL   UNL     1       6.556   5.684  16.394  0.00  0.00    +0.000 Cl
ATOM     18  C   UNL     1       4.297   6.316  17.737  0.00  0.00    +0.000 A 
ENDBRANCH   9  12
BRANCH   1  23
ATOM     19  C   UNL     1       0.844  13.449  18.940  0.00  0.00    +0.000 C 
ATOM     20  C   UNL     1      -0.336  13.533  17.957  0.00  0.00    +0.000 C 
ATOM     21  C   UNL     1      -1.336  12.408  18.200  0.00  0.00    +0.000 C 
ATOM     22  C   UNL     1      -0.659  11.040  18.193  0.00  0.00    +0.000 C 
ATOM     23  N   UNL     1       0.456  11.045  19.149  0.00  0.00    +0.000 N 
ATOM     24  C   UNL     1       1.486  12.060  18.882  0.00  0.00    +0.000 C 
BRANCH  19  27
ATOM     25  N   UNL     1       1.915  15.678  19.316  0.00  0.00    +0.000 N 
ATOM     26  C   UNL     1       0.793  16.109  20.139  0.00  0.00    +0.000 C 
ATOM     27  C   UNL     1       1.909  14.483  18.595  0.00  0.00    +0.000 C 
ATOM     28  O   UNL     1       2.768  14.228  17.753  0.00  0.00    +0.000 OA
BRANCH  25  29
ATOM     29  C   UNL     1       2.937  16.674  18.985  0.00  0.00    +0.000 C 
BRANCH  29  30
ATOM     30  C   UNL     1       4.113  16.709  19.963  0.00  0.00    +0.000 C 
BRANCH  30  32
ATOM     31  C   UNL     1       5.884  15.615  18.557  0.00  0.00    +0.000 C 
ATOM     32  C   UNL     1       5.467  16.891  19.273  0.00  0.00    +0.000 C 
ENDBRANCH  30  32
ENDBRANCH  29  30
ENDBRANCH  25  29
ENDBRANCH  19  27
ENDBRANCH   1  23
TORSDOF 6
ENDMDL
MODEL 5
REMARK VINA RESULT:      -8.2      3.804      8.095
REMARK  Name = 
REMARK  8 active torsions:
REMARK  status: ('A' for Active; 'I' for Inactive)
REMARK    1  A    between atoms: C_1  and  C_2
REMARK    2  A    between atoms: C_2  and  C_3
REMARK    3  A    between atoms: C_3  and  C_4
REMARK    4  A    between atoms: C_4  and  N_5
REMARK    5  A    between atoms: N_5  and  C_6
REMARK    6  A    between atoms: C_7  and  C_9
REMARK    7  A    between atoms: N_13  and  C_14
REMARK    8  A    between atoms: N_22  and  C_23
REMARK                            x       y       z     vdW  Elec       q    Type
REMARK                         _______ _______ _______ _____ _____    ______ ____
ROOT
ATOM      1  C   UNL     1       4.230   3.781  17.980  0.00  0.00    +0.000 A 
ATOM      2  C   UNL     1       3.961   2.391  18.002  0.00  0.00    +0.000 A 
ATOM      3  C   UNL     1       2.836   1.830  18.640  0.00  0.00    +0.000 A 
ATOM      4  C   UNL     1       1.936   2.646  19.309  0.00  0.00    +0.000 A 
ATOM      5  C   UNL     1       2.186   4.005  19.279  0.00  0.00    +0.000 A 
ATOM      6  C   UNL     1       3.265   4.568  18.613  0.00  0.00    +0.000 A 
ATOM      7  C   UNL     1       3.089   6.027  18.732  0.00  0.00    +0.000 C 
ATOM      8  O   UNL     1       3.762   6.836  18.118  0.00  0.00    +0.000 OA
ATOM      9  N   UNL     1       2.048   6.254  19.611  0.00  0.00    +0.000 N 
ATOM     10  C   UNL     1       1.429   5.069  19.928  0.00  0.00    +0.000 C 
ATOM     11  O   UNL     1       0.435   4.827  20.590  0.00  0.00    +0.000 OA
ENDROOT
BRANCH   9  12
ATOM     12  C   UNL     1       1.675   7.536  20.117  0.00  0.00    +0.000 A 
ATOM     13  C   UNL     1       1.506   7.762  21.494  0.00  0.00    +0.000 A 
ATOM     14  C   UNL     1       1.070   8.995  21.989  0.00  0.00    +0.000 A 
ATOM     15  C   UNL     1       0.788  10.035  21.112  0.00  0.00    +0.000 A 
ATOM     16  C   UNL     1       0.957   9.836  19.746  0.00  0.00    +0.000 A 
ATOM     17 CL   UNL     1       0.577  11.110  18.652  0.00  0.00    +0.000 Cl
ATOM     18  C   UNL     1       1.406   8.608  19.250  0.00  0.00    +0.000 A 
ENDBRANCH   9  12
BRANCH   1  23
ATOM     19  C   UNL     1       6.777   6.259  17.501  0.00  0.00    +0.000 C 
ATOM     20  C   UNL     1       7.258   5.960  16.070  0.00  0.00    +0.000 C 
ATOM     21  C   UNL     1       6.236   5.123  15.309  0.00  0.00    +0.000 C 
ATOM     22  C   UNL     1       5.854   3.861  16.079  0.00  0.00    +0.000 C 
ATOM     23  N   UNL     1       5.414   4.232  17.430  0.00  0.00    +0.000 N 
ATOM     24  C   UNL     1       6.417   4.957  18.223  0.00  0.00    +0.000 C 
BRANCH  19  27
ATOM     25  N   UNL     1       7.927   8.357  18.230  0.00  0.00    +0.000 N 
ATOM     26  C   UNL     1       7.227   9.127  17.211  0.00  0.00    +0.000 C 
ATOM     27  C   UNL     1       7.866   6.964  18.300  0.00  0.00    +0.000 C 
ATOM     28  O   UNL     1       8.613   6.317  19.031  0.00  0.00    +0.000 OA
BRANCH  25  29
ATOM     29  C   UNL     1       8.973   9.038  18.996  0.00  0.00    +0.000 C 
BRANCH  29  30
ATOM     30  C   UNL     1       9.110  10.528  18.677  0.00  0.00    +0.000 C 
BRANCH  30  32
ATOM     31  C   UNL     1      11.092  11.831  17.851  0.00  0.00    +0.000 C 
ATOM     32  C   UNL     1      10.483  11.099  19.038  0.00  0.00    +0.000 C 
ENDBRANCH  30  32
ENDBRANCH  29  30
ENDBRANCH  25  29
ENDBRANCH  19  27
ENDBRANCH   1  23
TORSDOF 6
ENDMDL
MODEL 6
REMARK VINA RESULT:      -8.1      5.368     11.246
REMARK  Name = 
REMARK  8 active torsions:
REMARK  status: ('A' for Active; 'I' for Inactive)
REMARK    1  A    between atoms: C_1  and  C_2
REMARK    2  A    between atoms: C_2  and  C_3
REMARK    3  A    between atoms: C_3  and  C_4
REMARK    4  A    between atoms: C_4  and  N_5
REMARK    5  A    between atoms: N_5  and  C_6
REMARK    6  A    between atoms: C_7  and  C_9
REMARK    7  A    between atoms: N_13  and  C_14
REMARK    8  A    between atoms: N_22  and  C_23
REMARK                            x       y       z     vdW  Elec       q    Type
REMARK                         _______ _______ _______ _____ _____    ______ ____
ROOT
ATOM      1  C   UNL     1      -2.712  11.723  18.525  0.00  0.00    +0.000 A 
ATOM      2  C   UNL     1      -3.591  10.955  17.723  0.00  0.00    +0.000 A 
ATOM      3  C   UNL     1      -4.974  10.849  17.971  0.00  0.00    +0.000 A 
ATOM      4  C   UNL     1      -5.537  11.497  19.061  0.00  0.00    +0.000 A 
ATOM      5  C   UNL     1      -4.687  12.259  19.840  0.00  0.00    +0.000 A 
ATOM      6  C   UNL     1      -3.334  12.407  19.573  0.00  0.00    +0.000 A 
ATOM      7  C   UNL     1      -2.838  13.381  20.562  0.00  0.00    +0.000 C 
ATOM      8  O   UNL     1      -1.726  13.877  20.515  0.00  0.00    +0.000 OA
ATOM      9  N   UNL     1      -3.851  13.610  21.472  0.00  0.00    +0.000 N 
ATOM     10  C   UNL     1      -5.010  13.002  21.053  0.00  0.00    +0.000 C 
ATOM     11  O   UNL     1      -6.142  13.019  21.503  0.00  0.00    +0.000 OA
ENDROOT
BRANCH   9  12
ATOM     12  C   UNL     1      -3.710  14.365  22.675  0.00  0.00    +0.000 A 
ATOM     13  C   UNL     1      -3.023  13.852  23.789  0.00  0.00    +0.000 A 
ATOM     14  C   UNL     1      -2.944  14.558  24.994  0.00  0.00    +0.000 A 
ATOM     15  C   UNL     1      -3.560  15.798  25.113  0.00  0.00    +0.000 A 
ATOM     16  C   UNL     1      -4.237  16.328  24.020  0.00  0.00    +0.000 A 
ATOM     17 CL   UNL     1      -5.028  17.850  24.173  0.00  0.00    +0.000 Cl
ATOM     18  C   UNL     1      -4.304  15.630  22.811  0.00  0.00    +0.000 A 
ENDBRANCH   9  12
BRANCH   1  23
ATOM     19  C   UNL     1       0.590  10.450  19.100  0.00  0.00    +0.000 C 
ATOM     20  C   UNL     1       1.471  11.671  18.778  0.00  0.00    +0.000 C 
ATOM     21  C   UNL     1       0.657  12.960  18.806  0.00  0.00    +0.000 C 
ATOM     22  C   UNL     1      -0.575  12.868  17.909  0.00  0.00    +0.000 C 
ATOM     23  N   UNL     1      -1.355  11.679  18.276  0.00  0.00    +0.000 N 
ATOM     24  C   UNL     1      -0.622  10.409  18.165  0.00  0.00    +0.000 C 
BRANCH  19  27
ATOM     25  N   UNL     1       1.486   8.306  20.024  0.00  0.00    +0.000 N 
ATOM     26  C   UNL     1       1.171   8.728  21.383  0.00  0.00    +0.000 C 
ATOM     27  C   UNL     1       1.376   9.157  18.924  0.00  0.00    +0.000 C 
ATOM     28  O   UNL     1       1.832   8.857  17.822  0.00  0.00    +0.000 OA
BRANCH  25  29
ATOM     29  C   UNL     1       2.242   7.062  19.858  0.00  0.00    +0.000 C 
BRANCH  29  30
ATOM     30  C   UNL     1       1.690   5.885  20.664  0.00  0.00    +0.000 C 
BRANCH  30  32
ATOM     31  C   UNL     1       1.206   3.422  20.756  0.00  0.00    +0.000 C 
ATOM     32  C   UNL     1       1.641   4.578  19.869  0.00  0.00    +0.000 C 
ENDBRANCH  30  32
ENDBRANCH  29  30
ENDBRANCH  25  29
ENDBRANCH  19  27
ENDBRANCH   1  23
TORSDOF 6
ENDMDL
MODEL 7
REMARK VINA RESULT:      -8.1      3.734      5.223
REMARK  Name = 
REMARK  8 active torsions:
REMARK  status: ('A' for Active; 'I' for Inactive)
REMARK    1  A    between atoms: C_1  and  C_2
REMARK    2  A    between atoms: C_2  and  C_3
REMARK    3  A    between atoms: C_3  and  C_4
REMARK    4  A    between atoms: C_4  and  N_5
REMARK    5  A    between atoms: N_5  and  C_6
REMARK    6  A    between atoms: C_7  and  C_9
REMARK    7  A    between atoms: N_13  and  C_14
REMARK    8  A    between atoms: N_22  and  C_23
REMARK                            x       y       z     vdW  Elec       q    Type
REMARK                         _______ _______ _______ _____ _____    ______ ____
ROOT
ATOM      1  C   UNL     1       0.486   9.948  20.114  0.00  0.00    +0.000 A 
ATOM      2  C   UNL     1      -0.140  10.125  21.371  0.00  0.00    +0.000 A 
ATOM      3  C   UNL     1      -0.091   9.167  22.403  0.00  0.00    +0.000 A 
ATOM      4  C   UNL     1       0.575   7.966  22.207  0.00  0.00    +0.000 A 
ATOM      5  C   UNL     1       1.201   7.793  20.987  0.00  0.00    +0.000 A 
ATOM      6  C   UNL     1       1.197   8.753  19.985  0.00  0.00    +0.000 A 
ATOM      7  C   UNL     1       2.067   8.218  18.921  0.00  0.00    +0.000 C 
ATOM      8  O   UNL     1       2.430   8.873  17.960  0.00  0.00    +0.000 OA
ATOM      9  N   UNL     1       2.378   6.913  19.247  0.00  0.00    +0.000 N 
ATOM     10  C   UNL     1       1.929   6.622  20.512  0.00  0.00    +0.000 C 
ATOM     11  O   UNL     1       2.062   5.633  21.211  0.00  0.00    +0.000 OA
ENDROOT
BRANCH   9  12
ATOM     12  C   UNL     1       3.064   6.001  18.390  0.00  0.00    +0.000 A 
ATOM     13  C   UNL     1       4.133   6.417  17.577  0.00  0.00    +0.000 A 
ATOM     14  C   UNL     1       4.760   5.544  16.683  0.00  0.00    +0.000 A 
ATOM     15  C   UNL     1       4.325   4.228  16.577  0.00  0.00    +0.000 A 
ATOM     16  C   UNL     1       3.275   3.793  17.377  0.00  0.00    +0.000 A 
ATOM     17 CL   UNL     1       2.711   2.174  17.226  0.00  0.00    +0.000 Cl
ATOM     18  C   UNL     1       2.657   4.661  18.283  0.00  0.00    +0.000 A 
ENDBRANCH   9  12
BRANCH   1  23
ATOM     19  C   UNL     1       0.453  13.316  18.884  0.00  0.00    +0.000 C 
ATOM     20  C   UNL     1      -0.657  13.264  17.820  0.00  0.00    +0.000 C 
ATOM     21  C   UNL     1      -1.555  12.048  18.020  0.00  0.00    +0.000 C 
ATOM     22  C   UNL     1      -0.746  10.755  18.092  0.00  0.00    +0.000 C 
ATOM     23  N   UNL     1       0.292  10.889  19.122  0.00  0.00    +0.000 N 
ATOM     24  C   UNL     1       1.232  11.998  18.903  0.00  0.00    +0.000 C 
BRANCH  19  27
ATOM     25  N   UNL     1       1.176  15.694  19.160  0.00  0.00    +0.000 N 
ATOM     26  C   UNL     1      -0.110  16.047  19.747  0.00  0.00    +0.000 C 
ATOM     27  C   UNL     1       1.431  14.447  18.589  0.00  0.00    +0.000 C 
ATOM     28  O   UNL     1       2.442  14.231  17.923  0.00  0.00    +0.000 OA
BRANCH  25  29
ATOM     29  C   UNL     1       2.114  16.783  18.877  0.00  0.00    +0.000 C 
BRANCH  29  30
ATOM     30  C   UNL     1       1.998  17.354  17.462  0.00  0.00    +0.000 C 
BRANCH  30  32
ATOM     31  C   UNL     1      -0.286  18.308  17.038  0.00  0.00    +0.000 C 
ATOM     32  C   UNL     1       1.157  18.631  17.393  0.00  0.00    +0.000 C 
ENDBRANCH  30  32
ENDBRANCH  29  30
ENDBRANCH  25  29
ENDBRANCH  19  27
ENDBRANCH   1  23
TORSDOF 6
ENDMDL
MODEL 8
REMARK VINA RESULT:      -8.0      3.747      5.462
REMARK  Name = 
REMARK  8 active torsions:
REMARK  status: ('A' for Active; 'I' for Inactive)
REMARK    1  A    between atoms: C_1  and  C_2
REMARK    2  A    between atoms: C_2  and  C_3
REMARK    3  A    between atoms: C_3  and  C_4
REMARK    4  A    between atoms: C_4  and  N_5
REMARK    5  A    between atoms: N_5  and  C_6
REMARK    6  A    between atoms: C_7  and  C_9
REMARK    7  A    between atoms: N_13  and  C_14
REMARK    8  A    between atoms: N_22  and  C_23
REMARK                            x       y       z     vdW  Elec       q    Type
REMARK                         _______ _______ _______ _____ _____    ______ ____
ROOT
ATOM      1  C   UNL     1       0.527  10.163  20.192  0.00  0.00    +0.000 A 
ATOM      2  C   UNL     1      -0.126  10.339  21.436  0.00  0.00    +0.000 A 
ATOM      3  C   UNL     1      -0.144   9.358  22.447  0.00  0.00    +0.000 A 
ATOM      4  C   UNL     1       0.478   8.136  22.243  0.00  0.00    +0.000 A 
ATOM      5  C   UNL     1       1.130   7.963  21.036  0.00  0.00    +0.000 A 
ATOM      6  C   UNL     1       1.193   8.943  20.056  0.00  0.00    +0.000 A 
ATOM      7  C   UNL     1       2.069   8.395  19.003  0.00  0.00    +0.000 C 
ATOM      8  O   UNL     1       2.484   9.055  18.067  0.00  0.00    +0.000 OA
ATOM      9  N   UNL     1       2.318   7.072  19.309  0.00  0.00    +0.000 N 
ATOM     10  C   UNL     1       1.822   6.773  20.555  0.00  0.00    +0.000 C 
ATOM     11  O   UNL     1       1.896   5.765  21.235  0.00  0.00    +0.000 OA
ENDROOT
BRANCH   9  12
ATOM     12  C   UNL     1       2.990   6.151  18.450  0.00  0.00    +0.000 A 
ATOM     13  C   UNL     1       4.067   6.550  17.641  0.00  0.00    +0.000 A 
ATOM     14  C   UNL     1       4.681   5.669  16.745  0.00  0.00    +0.000 A 
ATOM     15  C   UNL     1       4.224   4.362  16.634  0.00  0.00    +0.000 A 
ATOM     16  C   UNL     1       3.164   3.943  17.431  0.00  0.00    +0.000 A 
ATOM     17 CL   UNL     1       2.573   2.334  17.274  0.00  0.00    +0.000 Cl
ATOM     18  C   UNL     1       2.559   4.818  18.338  0.00  0.00    +0.000 A 
ENDBRANCH   9  12
BRANCH   1  23
ATOM     19  C   UNL     1       0.771  13.538  19.006  0.00  0.00    +0.000 C 
ATOM     20  C   UNL     1      -0.360  13.601  17.965  0.00  0.00    +0.000 C 
ATOM     21  C   UNL     1      -1.359  12.467  18.169  0.00  0.00    +0.000 C 
ATOM     22  C   UNL     1      -0.668  11.106  18.207  0.00  0.00    +0.000 C 
ATOM     23  N   UNL     1       0.398  11.132  19.217  0.00  0.00    +0.000 N 
ATOM     24  C   UNL     1       1.429  12.155  18.991  0.00  0.00    +0.000 C 
BRANCH  19  27
ATOM     25  N   UNL     1       1.822  15.765  19.442  0.00  0.00    +0.000 N 
ATOM     26  C   UNL     1       0.676  16.181  20.239  0.00  0.00    +0.000 C 
ATOM     27  C   UNL     1       1.840  14.581  18.704  0.00  0.00    +0.000 C 
ATOM     28  O   UNL     1       2.723  14.340  17.883  0.00  0.00    +0.000 OA
BRANCH  25  29
ATOM     29  C   UNL     1       2.848  16.770  19.153  0.00  0.00    +0.000 C 
BRANCH  29  30
ATOM     30  C   UNL     1       4.038  16.740  20.114  0.00  0.00    +0.000 C 
BRANCH  30  32
ATOM     31  C   UNL     1       5.872  15.145  19.478  0.00  0.00    +0.000 C 
ATOM     32  C   UNL     1       5.384  16.584  19.403  0.00  0.00    +0.000 C 
ENDBRANCH  30  32
ENDBRANCH  29  30
ENDBRANCH  25  29
ENDBRANCH  19  27
ENDBRANCH   1  23
TORSDOF 6
ENDMDL
MODEL 9
REMARK VINA RESULT:      -7.9      5.176     10.967
REMARK  Name = 
REMARK  8 active torsions:
REMARK  status: ('A' for Active; 'I' for Inactive)
REMARK    1  A    between atoms: C_1  and  C_2
REMARK    2  A    between atoms: C_2  and  C_3
REMARK    3  A    between atoms: C_3  and  C_4
REMARK    4  A    between atoms: C_4  and  N_5
REMARK    5  A    between atoms: N_5  and  C_6
REMARK    6  A    between atoms: C_7  and  C_9
REMARK    7  A    between atoms: N_13  and  C_14
REMARK    8  A    between atoms: N_22  and  C_23
REMARK                            x       y       z     vdW  Elec       q    Type
REMARK                         _______ _______ _______ _____ _____    ______ ____
ROOT
ATOM      1  C   UNL     1      -2.421  11.624  17.865  0.00  0.00    +0.000 A 
ATOM      2  C   UNL     1      -3.132  11.104  16.757  0.00  0.00    +0.000 A 
ATOM      3  C   UNL     1      -4.537  10.991  16.722  0.00  0.00    +0.000 A 
ATOM      4  C   UNL     1      -5.294  11.378  17.818  0.00  0.00    +0.000 A 
ATOM      5  C   UNL     1      -4.606  11.899  18.897  0.00  0.00    +0.000 A 
ATOM      6  C   UNL     1      -3.228  12.058  18.919  0.00  0.00    +0.000 A 
ATOM      7  C   UNL     1      -2.927  12.747  20.188  0.00  0.00    +0.000 C 
ATOM      8  O   UNL     1      -1.830  13.200  20.461  0.00  0.00    +0.000 OA
ATOM      9  N   UNL     1      -4.091  12.787  20.931  0.00  0.00    +0.000 N 
ATOM     10  C   UNL     1      -5.149  12.340  20.177  0.00  0.00    +0.000 C 
ATOM     11  O   UNL     1      -6.344  12.289  20.409  0.00  0.00    +0.000 OA
ENDROOT
BRANCH   9  12
ATOM     12  C   UNL     1      -4.176  13.225  22.286  0.00  0.00    +0.000 A 
ATOM     13  C   UNL     1      -3.754  12.410  23.351  0.00  0.00    +0.000 A 
ATOM     14  C   UNL     1      -3.902  12.806  24.684  0.00  0.00    +0.000 A 
ATOM     15  C   UNL     1      -4.486  14.030  24.984  0.00  0.00    +0.000 A 
ATOM     16  C   UNL     1      -4.904  14.856  23.946  0.00  0.00    +0.000 A 
ATOM     17 CL   UNL     1      -5.658  16.359  24.313  0.00  0.00    +0.000 Cl
ATOM     18  C   UNL     1      -4.742  14.468  22.612  0.00  0.00    +0.000 A 
ENDBRANCH   9  12
BRANCH   1  23
ATOM     19  C   UNL     1       0.738  10.286  18.907  0.00  0.00    +0.000 C 
ATOM     20  C   UNL     1       1.651  11.524  18.851  0.00  0.00    +0.000 C 
ATOM     21  C   UNL     1       0.834  12.811  18.844  0.00  0.00    +0.000 C 
ATOM     22  C   UNL     1      -0.219  12.804  17.738  0.00  0.00    +0.000 C 
ATOM     23  N   UNL     1      -1.040  11.593  17.857  0.00  0.00    +0.000 N 
ATOM     24  C   UNL     1      -0.288  10.333  17.771  0.00  0.00    +0.000 C 
BRANCH  19  27
ATOM     25  N   UNL     1       1.599   8.138  19.854  0.00  0.00    +0.000 N 
ATOM     26  C   UNL     1       1.183   8.529  21.194  0.00  0.00    +0.000 C 
ATOM     27  C   UNL     1       1.554   9.007  18.764  0.00  0.00    +0.000 C 
ATOM     28  O   UNL     1       2.092   8.734  17.691  0.00  0.00    +0.000 OA
BRANCH  25  29
ATOM     29  C   UNL     1       2.384   6.908  19.719  0.00  0.00    +0.000 C 
BRANCH  29  30
ATOM     30  C   UNL     1       1.859   5.739  20.556  0.00  0.00    +0.000 C 
BRANCH  30  32
ATOM     31  C   UNL     1       0.935   3.406  20.437  0.00  0.00    +0.000 C 
ATOM     32  C   UNL     1       1.908   4.399  19.818  0.00  0.00    +0.000 C 
ENDBRANCH  30  32
ENDBRANCH  29  30
ENDBRANCH  25  29
ENDBRANCH  19  27
ENDBRANCH   1  23
TORSDOF 6
ENDMDL
