MODEL 1
REMARK VINA RESULT:      -7.0      0.000      0.000
REMARK  Name = 
REMARK  8 active torsions:
REMARK  status: ('A' for Active; 'I' for Inactive)
REMARK    1  A    between atoms: C_1  and  C_2
REMARK    2  A    between atoms: C_2  and  C_3
REMARK    3  A    between atoms: C_10  and  N_11
REMARK    4  A    between atoms: C_14  and  C_15
REMARK    5  A    between atoms: C_15  and  O_16
REMARK    6  A    between atoms: O_16  and  C_17
REMARK    7  A    between atoms: C_20  and  C_21
REMARK    8  A    between atoms: C_26  and  C_27
REMARK                            x       y       z     vdW  Elec       q    Type
REMARK                         _______ _______ _______ _____ _____    ______ ____
ROOT
ATOM      1  N   UNL     1       0.463  11.042  20.434  0.00  0.00    +0.000 N 
ATOM      2  N   UNL     1       0.082   9.862  20.962  0.00  0.00    +0.000 NA
ATOM      3  C   UNL     1       0.637   8.948  20.173  0.00  0.00    +0.000 A 
ATOM      4  C   UNL     1       1.405   9.530  19.147  0.00  0.00    +0.000 A 
ATOM      5  C   UNL     1       1.267  10.890  19.337  0.00  0.00    +0.000 A 
ENDROOT
BRANCH   1  13
ATOM      6  C   UNL     1      -6.111  14.050  23.187  0.00  0.00    +0.000 A 
ATOM      7  C   UNL     1      -5.283  13.257  23.942  0.00  0.00    +0.000 A 
ATOM      8  N   UNL     1      -4.208  12.628  23.448  0.00  0.00    +0.000 NA
ATOM      9  C   UNL     1      -3.925  12.795  22.147  0.00  0.00    +0.000 A 
ATOM     10  N   UNL     1      -2.764  12.255  21.661  0.00  0.00    +0.000 N 
ATOM     11  C   UNL     1      -1.899  11.477  22.529  0.00  0.00    +0.000 C 
ATOM     12  C   UNL     1      -0.495  12.076  22.485  0.00  0.00    +0.000 C 
ATOM     13  C   UNL     1       0.009  12.288  21.050  0.00  0.00    +0.000 C 
ATOM     14  C   UNL     1      -1.019  13.013  20.171  0.00  0.00    +0.000 C 
ATOM     15  C   UNL     1      -2.408  12.385  20.261  0.00  0.00    +0.000 C 
ATOM     16  N   UNL     1      -4.700  13.523  21.327  0.00  0.00    +0.000 NA
ATOM     17  C   UNL     1      -5.773  14.131  21.859  0.00  0.00    +0.000 A 
BRANCH   6  19
ATOM     18  C   UNL     1      -7.094  16.309  23.450  0.00  0.00    +0.000 C 
ATOM     19  C   UNL     1      -7.228  14.831  23.790  0.00  0.00    +0.000 C 
ENDBRANCH   6  19
ENDBRANCH   1  13
BRANCH   5  20
ATOM     20  C   UNL     1       1.842  11.940  18.578  0.00  0.00    +0.000 C 
ATOM     21  N   UNL     1       2.297  12.794  17.935  0.00  0.00    +0.000 NA
ENDBRANCH   5  20
BRANCH   4  22
ATOM     22  C   UNL     1       2.193   8.804  18.126  0.00  0.00    +0.000 C 
BRANCH  22  23
ATOM     23  O   UNL     1       2.224   7.405  18.409  0.00  0.00    +0.000 OA
BRANCH  23  24
ATOM     24  C   UNL     1       3.443   6.810  18.221  0.00  0.00    +0.000 A 
ATOM     25  C   UNL     1       4.312   7.124  17.172  0.00  0.00    +0.000 A 
ATOM     26  C   UNL     1       5.536   6.466  17.050  0.00  0.00    +0.000 A 
ATOM     27  C   UNL     1       5.903   5.489  17.979  0.00  0.00    +0.000 A 
ATOM     28  C   UNL     1       5.057   5.193  19.049  0.00  0.00    +0.000 A 
ATOM     29  C   UNL     1       3.840   5.860  19.166  0.00  0.00    +0.000 A 
ATOM     30  F   UNL     1       3.038   5.553  20.198  0.00  0.00    +0.000 F 
BRANCH  27  31
ATOM     31  C   UNL     1       7.142   4.792  17.818  0.00  0.00    +0.000 C 
ATOM     32  N   UNL     1       8.142   4.213  17.703  0.00  0.00    +0.000 NA
ENDBRANCH  27  31
ENDBRANCH  23  24
ENDBRANCH  22  23
ENDBRANCH   4  22
TORSDOF 7
ENDMDL
MODEL 2
REMARK VINA RESULT:      -6.8      4.523      9.070
REMARK  Name = 
REMARK  8 active torsions:
REMARK  status: ('A' for Active; 'I' for Inactive)
REMARK    1  A    between atoms: C_1  and  C_2
REMARK    2  A    between atoms: C_2  and  C_3
REMARK    3  A    between atoms: C_10  and  N_11
REMARK    4  A    between atoms: C_14  and  C_15
REMARK    5  A    between atoms: C_15  and  O_16
REMARK    6  A    between atoms: O_16  and  C_17
REMARK    7  A    between atoms: C_20  and  C_21
REMARK    8  A    between atoms: C_26  and  C_27
REMARK                            x       y       z     vdW  Elec       q    Type
REMARK                         _______ _______ _______ _____ _____    ______ ____
ROOT
ATOM      1  N   UNL     1       1.184  11.320  19.133  0.00  0.00    +0.000 N 
ATOM      2  N   UNL     1       2.070  11.592  18.155  0.00  0.00    +0.000 NA
ATOM      3  C   UNL     1       2.594  12.765  18.495  0.00  0.00    +0.000 A 
ATOM      4  C   UNL     1       2.072  13.246  19.710  0.00  0.00    +0.000 A 
ATOM      5  C   UNL     1       1.153  12.291  20.097  0.00  0.00    +0.000 A 
ENDROOT
BRANCH   1  13
ATOM      6  C   UNL     1       2.398   3.683  19.318  0.00  0.00    +0.000 A 
ATOM      7  C   UNL     1       2.263   4.442  20.454  0.00  0.00    +0.000 A 
ATOM      8  N   UNL     1       2.176   5.779  20.444  0.00  0.00    +0.000 NA
ATOM      9  C   UNL     1       2.213   6.403  19.257  0.00  0.00    +0.000 A 
ATOM     10  N   UNL     1       2.005   7.755  19.228  0.00  0.00    +0.000 N 
ATOM     11  C   UNL     1       1.807   8.493  20.463  0.00  0.00    +0.000 C 
ATOM     12  C   UNL     1       0.497   9.270  20.364  0.00  0.00    +0.000 C 
ATOM     13  C   UNL     1       0.396  10.090  19.070  0.00  0.00    +0.000 C 
ATOM     14  C   UNL     1       0.738   9.261  17.825  0.00  0.00    +0.000 C 
ATOM     15  C   UNL     1       2.048   8.492  17.979  0.00  0.00    +0.000 C 
ATOM     16  N   UNL     1       2.379   5.743  18.099  0.00  0.00    +0.000 NA
ATOM     17  C   UNL     1       2.470   4.404  18.151  0.00  0.00    +0.000 A 
BRANCH   6  19
ATOM     18  C   UNL     1       3.336   1.616  18.325  0.00  0.00    +0.000 C 
ATOM     19  C   UNL     1       2.371   2.193  19.351  0.00  0.00    +0.000 C 
ENDBRANCH   6  19
ENDBRANCH   1  13
BRANCH   5  20
ATOM     20  C   UNL     1       0.340  12.282  21.258  0.00  0.00    +0.000 C 
ATOM     21  N   UNL     1      -0.323  12.301  22.211  0.00  0.00    +0.000 NA
ENDBRANCH   5  20
BRANCH   4  22
ATOM     22  C   UNL     1       2.468  14.494  20.398  0.00  0.00    +0.000 C 
BRANCH  22  23
ATOM     23  O   UNL     1       3.143  15.377  19.501  0.00  0.00    +0.000 OA
BRANCH  23  24
ATOM     24  C   UNL     1       4.501  15.207  19.445  0.00  0.00    +0.000 A 
ATOM     25  C   UNL     1       5.317  15.061  20.571  0.00  0.00    +0.000 A 
ATOM     26  C   UNL     1       6.695  14.898  20.427  0.00  0.00    +0.000 A 
ATOM     27  C   UNL     1       7.269  14.876  19.153  0.00  0.00    +0.000 A 
ATOM     28  C   UNL     1       6.458  14.986  18.022  0.00  0.00    +0.000 A 
ATOM     29  C   UNL     1       5.083  15.143  18.176  0.00  0.00    +0.000 A 
ATOM     30  F   UNL     1       4.324  15.256  17.075  0.00  0.00    +0.000 F 
BRANCH  27  31
ATOM     31  C   UNL     1       8.688  14.751  19.021  0.00  0.00    +0.000 C 
ATOM     32  N   UNL     1       9.836  14.634  18.899  0.00  0.00    +0.000 NA
ENDBRANCH  27  31
ENDBRANCH  23  24
ENDBRANCH  22  23
ENDBRANCH   4  22
TORSDOF 7
ENDMDL
MODEL 3
REMARK VINA RESULT:      -6.7      3.523     10.750
REMARK  Name = 
REMARK  8 active torsions:
REMARK  status: ('A' for Active; 'I' for Inactive)
REMARK    1  A    between atoms: C_1  and  C_2
REMARK    2  A    between atoms: C_2  and  C_3
REMARK    3  A    between atoms: C_10  and  N_11
REMARK    4  A    between atoms: C_14  and  C_15
REMARK    5  A    between atoms: C_15  and  O_16
REMARK    6  A    between atoms: O_16  and  C_17
REMARK    7  A    between atoms: C_20  and  C_21
REMARK    8  A    between atoms: C_26  and  C_27
REMARK                            x       y       z     vdW  Elec       q    Type
REMARK                         _______ _______ _______ _____ _____    ______ ____
ROOT
ATOM      1  N   UNL     1      -0.511  11.413  20.530  0.00  0.00    +0.000 N 
ATOM      2  N   UNL     1       0.682  11.688  21.091  0.00  0.00    +0.000 NA
ATOM      3  C   UNL     1       0.569  12.938  21.524  0.00  0.00    +0.000 A 
ATOM      4  C   UNL     1      -0.709  13.472  21.273  0.00  0.00    +0.000 A 
ATOM      5  C   UNL     1      -1.386  12.462  20.620  0.00  0.00    +0.000 A 
ENDROOT
BRANCH   1  13
ATOM      6  C   UNL     1       3.658   5.278  18.333  0.00  0.00    +0.000 A 
ATOM      7  C   UNL     1       3.204   5.447  19.617  0.00  0.00    +0.000 A 
ATOM      8  N   UNL     1       2.589   6.558  20.044  0.00  0.00    +0.000 NA
ATOM      9  C   UNL     1       2.399   7.551  19.162  0.00  0.00    +0.000 A 
ATOM     10  N   UNL     1       1.667   8.638  19.556  0.00  0.00    +0.000 N 
ATOM     11  C   UNL     1       1.162   8.729  20.914  0.00  0.00    +0.000 C 
ATOM     12  C   UNL     1      -0.347   8.952  20.861  0.00  0.00    +0.000 C 
ATOM     13  C   UNL     1      -0.738  10.102  19.922  0.00  0.00    +0.000 C 
ATOM     14  C   UNL     1      -0.064   9.990  18.548  0.00  0.00    +0.000 C 
ATOM     15  C   UNL     1       1.441   9.754  18.656  0.00  0.00    +0.000 C 
ATOM     16  N   UNL     1       2.842   7.486  17.897  0.00  0.00    +0.000 NA
ATOM     17  C   UNL     1       3.462   6.359  17.508  0.00  0.00    +0.000 A 
BRANCH   6  19
ATOM     18  C   UNL     1       4.977   4.183  16.545  0.00  0.00    +0.000 C 
ATOM     19  C   UNL     1       4.230   3.987  17.857  0.00  0.00    +0.000 C 
ENDBRANCH   6  19
ENDBRANCH   1  13
BRANCH   5  20
ATOM     20  C   UNL     1      -2.720  12.472  20.142  0.00  0.00    +0.000 C 
ATOM     21  N   UNL     1      -3.805  12.470  19.727  0.00  0.00    +0.000 NA
ENDBRANCH   5  20
BRANCH   4  22
ATOM     22  C   UNL     1      -1.187  14.816  21.664  0.00  0.00    +0.000 C 
BRANCH  22  23
ATOM     23  O   UNL     1      -1.563  14.841  23.042  0.00  0.00    +0.000 OA
BRANCH  23  24
ATOM     24  C   UNL     1      -2.827  14.381  23.299  0.00  0.00    +0.000 A 
ATOM     25  C   UNL     1      -3.107  13.120  23.831  0.00  0.00    +0.000 A 
ATOM     26  C   UNL     1      -4.426  12.727  24.058  0.00  0.00    +0.000 A 
ATOM     27  C   UNL     1      -5.479  13.595  23.757  0.00  0.00    +0.000 A 
ATOM     28  C   UNL     1      -5.207  14.871  23.257  0.00  0.00    +0.000 A 
ATOM     29  C   UNL     1      -3.886  15.256  23.040  0.00  0.00    +0.000 A 
ATOM     30  F   UNL     1      -3.649  16.483  22.551  0.00  0.00    +0.000 F 
BRANCH  27  31
ATOM     31  C   UNL     1      -6.828  13.164  23.954  0.00  0.00    +0.000 C 
ATOM     32  N   UNL     1      -7.916  12.796  24.120  0.00  0.00    +0.000 NA
ENDBRANCH  27  31
ENDBRANCH  23  24
ENDBRANCH  22  23
ENDBRANCH   4  22
TORSDOF 7
ENDMDL
MODEL 4
REMARK VINA RESULT:      -6.7      3.709     12.051
REMARK  Name = 
REMARK  8 active torsions:
REMARK  status: ('A' for Active; 'I' for Inactive)
REMARK    1  A    between atoms: C_1  and  C_2
REMARK    2  A    between atoms: C_2  and  C_3
REMARK    3  A    between atoms: C_10  and  N_11
REMARK    4  A    between atoms: C_14  and  C_15
REMARK    5  A    between atoms: C_15  and  O_16
REMARK    6  A    between atoms: O_16  and  C_17
REMARK    7  A    between atoms: C_20  and  C_21
REMARK    8  A    between atoms: C_26  and  C_27
REMARK                            x       y       z     vdW  Elec       q    Type
REMARK                         _______ _______ _______ _____ _____    ______ ____
ROOT
ATOM      1  N   UNL     1       3.460   5.726  19.202  0.00  0.00    +0.000 N 
ATOM      2  N   UNL     1       3.392   6.928  18.597  0.00  0.00    +0.000 NA
ATOM      3  C   UNL     1       2.437   7.579  19.252  0.00  0.00    +0.000 A 
ATOM      4  C   UNL     1       1.901   6.814  20.305  0.00  0.00    +0.000 A 
ATOM      5  C   UNL     1       2.579   5.613  20.243  0.00  0.00    +0.000 A 
ENDROOT
BRANCH   1  13
ATOM      6  C   UNL     1       6.904   3.798  12.549  0.00  0.00    +0.000 A 
ATOM      7  C   UNL     1       7.399   4.762  13.390  0.00  0.00    +0.000 A 
ATOM      8  N   UNL     1       6.754   5.195  14.481  0.00  0.00    +0.000 NA
ATOM      9  C   UNL     1       5.564   4.645  14.768  0.00  0.00    +0.000 A 
ATOM     10  N   UNL     1       4.954   4.994  15.942  0.00  0.00    +0.000 N 
ATOM     11  C   UNL     1       5.562   5.977  16.820  0.00  0.00    +0.000 C 
ATOM     12  C   UNL     1       5.714   5.365  18.210  0.00  0.00    +0.000 C 
ATOM     13  C   UNL     1       4.412   4.728  18.717  0.00  0.00    +0.000 C 
ATOM     14  C   UNL     1       3.775   3.795  17.678  0.00  0.00    +0.000 C 
ATOM     15  C   UNL     1       3.659   4.449  16.303  0.00  0.00    +0.000 C 
ATOM     16  N   UNL     1       4.987   3.723  13.981  0.00  0.00    +0.000 NA
ATOM     17  C   UNL     1       5.662   3.320  12.892  0.00  0.00    +0.000 A 
BRANCH   6  19
ATOM     18  C   UNL     1       7.240   1.842  11.066  0.00  0.00    +0.000 C 
ATOM     19  C   UNL     1       7.697   3.252  11.411  0.00  0.00    +0.000 C 
ENDBRANCH   6  19
ENDBRANCH   1  13
BRANCH   5  20
ATOM     20  C   UNL     1       2.428   4.481  21.082  0.00  0.00    +0.000 C 
ATOM     21  N   UNL     1       2.313   3.568  21.790  0.00  0.00    +0.000 NA
ENDBRANCH   5  20
BRANCH   4  22
ATOM     22  C   UNL     1       0.858   7.250  21.259  0.00  0.00    +0.000 C 
BRANCH  22  23
ATOM     23  O   UNL     1       1.260   8.438  21.943  0.00  0.00    +0.000 OA
BRANCH  23  24
ATOM     24  C   UNL     1       0.388   9.488  21.827  0.00  0.00    +0.000 A 
ATOM     25  C   UNL     1       0.070  10.109  20.616  0.00  0.00    +0.000 A 
ATOM     26  C   UNL     1      -0.826  11.178  20.586  0.00  0.00    +0.000 A 
ATOM     27  C   UNL     1      -1.415  11.633  21.768  0.00  0.00    +0.000 A 
ATOM     28  C   UNL     1      -1.130  10.996  22.978  0.00  0.00    +0.000 A 
ATOM     29  C   UNL     1      -0.239   9.926  22.997  0.00  0.00    +0.000 A 
ATOM     30  F   UNL     1       0.027   9.334  24.172  0.00  0.00    +0.000 F 
BRANCH  27  31
ATOM     31  C   UNL     1      -2.299  12.757  21.730  0.00  0.00    +0.000 C 
ATOM     32  N   UNL     1      -3.001  13.681  21.706  0.00  0.00    +0.000 NA
ENDBRANCH  27  31
ENDBRANCH  23  24
ENDBRANCH  22  23
ENDBRANCH   4  22
TORSDOF 7
ENDMDL
MODEL 5
REMARK VINA RESULT:      -6.7      3.040     10.265
REMARK  Name = 
REMARK  8 active torsions:
REMARK  status: ('A' for Active; 'I' for Inactive)
REMARK    1  A    between atoms: C_1  and  C_2
REMARK    2  A    between atoms: C_2  and  C_3
REMARK    3  A    between atoms: C_10  and  N_11
REMARK    4  A    between atoms: C_14  and  C_15
REMARK    5  A    between atoms: C_15  and  O_16
REMARK    6  A    between atoms: O_16  and  C_17
REMARK    7  A    between atoms: C_20  and  C_21
REMARK    8  A    between atoms: C_26  and  C_27
REMARK                            x       y       z     vdW  Elec       q    Type
REMARK                         _______ _______ _______ _____ _____    ______ ____
ROOT
ATOM      1  N   UNL     1      -0.121  11.530  19.612  0.00  0.00    +0.000 N 
ATOM      2  N   UNL     1       1.164  11.882  19.817  0.00  0.00    +0.000 NA
ATOM      3  C   UNL     1       1.105  13.152  20.202  0.00  0.00    +0.000 A 
ATOM      4  C   UNL     1      -0.219  13.623  20.277  0.00  0.00    +0.000 A 
ATOM      5  C   UNL     1      -0.993  12.550  19.881  0.00  0.00    +0.000 A 
ENDROOT
BRANCH   1  13
ATOM      6  C   UNL     1       3.512   4.757  18.739  0.00  0.00    +0.000 A 
ATOM      7  C   UNL     1       2.948   5.150  19.926  0.00  0.00    +0.000 A 
ATOM      8  N   UNL     1       2.424   6.366  20.130  0.00  0.00    +0.000 NA
ATOM      9  C   UNL     1       2.447   7.239  19.112  0.00  0.00    +0.000 A 
ATOM     10  N   UNL     1       1.810   8.440  19.272  0.00  0.00    +0.000 N 
ATOM     11  C   UNL     1       1.177   8.771  20.536  0.00  0.00    +0.000 C 
ATOM     12  C   UNL     1      -0.282   9.136  20.272  0.00  0.00    +0.000 C 
ATOM     13  C   UNL     1      -0.434  10.177  19.154  0.00  0.00    +0.000 C 
ATOM     14  C   UNL     1       0.366   9.805  17.897  0.00  0.00    +0.000 C 
ATOM     15  C   UNL     1       1.812   9.435  18.216  0.00  0.00    +0.000 C 
ATOM     16  N   UNL     1       3.012   6.953  17.928  0.00  0.00    +0.000 NA
ATOM     17  C   UNL     1       3.533   5.725  17.765  0.00  0.00    +0.000 A 
BRANCH   6  19
ATOM     18  C   UNL     1       2.937   2.574  17.718  0.00  0.00    +0.000 C 
ATOM     19  C   UNL     1       3.977   3.360  18.504  0.00  0.00    +0.000 C 
ENDBRANCH   6  19
ENDBRANCH   1  13
BRANCH   5  20
ATOM     20  C   UNL     1      -2.405  12.483  19.780  0.00  0.00    +0.000 C 
ATOM     21  N   UNL     1      -3.564  12.445  19.717  0.00  0.00    +0.000 NA
ENDBRANCH   5  20
BRANCH   4  22
ATOM     22  C   UNL     1      -0.645  14.970  20.715  0.00  0.00    +0.000 C 
BRANCH  22  23
ATOM     23  O   UNL     1      -0.879  14.996  22.123  0.00  0.00    +0.000 OA
BRANCH  23  24
ATOM     24  C   UNL     1      -2.094  14.496  22.510  0.00  0.00    +0.000 A 
ATOM     25  C   UNL     1      -3.314  15.132  22.266  0.00  0.00    +0.000 A 
ATOM     26  C   UNL     1      -4.509  14.556  22.700  0.00  0.00    +0.000 A 
ATOM     27  C   UNL     1      -4.493  13.335  23.378  0.00  0.00    +0.000 A 
ATOM     28  C   UNL     1      -3.282  12.675  23.596  0.00  0.00    +0.000 A 
ATOM     29  C   UNL     1      -2.096  13.255  23.154  0.00  0.00    +0.000 A 
ATOM     30  F   UNL     1      -0.942  12.608  23.382  0.00  0.00    +0.000 F 
BRANCH  27  31
ATOM     31  C   UNL     1      -5.721  12.776  23.855  0.00  0.00    +0.000 C 
ATOM     32  N   UNL     1      -6.711  12.304  24.234  0.00  0.00    +0.000 NA
ENDBRANCH  27  31
ENDBRANCH  23  24
ENDBRANCH  22  23
ENDBRANCH   4  22
TORSDOF 7
ENDMDL
MODEL 6
REMARK VINA RESULT:      -6.7      3.311     10.313
REMARK  Name = 
REMARK  8 active torsions:
REMARK  status: ('A' for Active; 'I' for Inactive)
REMARK    1  A    between atoms: C_1  and  C_2
REMARK    2  A    between atoms: C_2  and  C_3
REMARK    3  A    between atoms: C_10  and  N_11
REMARK    4  A    between atoms: C_14  and  C_15
REMARK    5  A    between atoms: C_15  and  O_16
REMARK    6  A    between atoms: O_16  and  C_17
REMARK    7  A    between atoms: C_20  and  C_21
REMARK    8  A    between atoms: C_26  and  C_27
REMARK                            x       y       z     vdW  Elec       q    Type
REMARK                         _______ _______ _______ _____ _____    ______ ____
ROOT
ATOM      1  N   UNL     1      -0.004  11.390  19.904  0.00  0.00    +0.000 N 
ATOM      2  N   UNL     1       0.524  12.231  18.994  0.00  0.00    +0.000 NA
ATOM      3  C   UNL     1       0.725  13.362  19.661  0.00  0.00    +0.000 A 
ATOM      4  C   UNL     1       0.356  13.252  21.015  0.00  0.00    +0.000 A 
ATOM      5  C   UNL     1      -0.120  11.962  21.142  0.00  0.00    +0.000 A 
ENDROOT
BRANCH   1  13
ATOM      6  C   UNL     1       3.485   4.596  18.670  0.00  0.00    +0.000 A 
ATOM      7  C   UNL     1       3.070   5.004  19.913  0.00  0.00    +0.000 A 
ATOM      8  N   UNL     1       2.578   6.225  20.166  0.00  0.00    +0.000 NA
ATOM      9  C   UNL     1       2.477   7.086  19.142  0.00  0.00    +0.000 A 
ATOM     10  N   UNL     1       1.866   8.290  19.366  0.00  0.00    +0.000 N 
ATOM     11  C   UNL     1       1.393   8.637  20.694  0.00  0.00    +0.000 C 
ATOM     12  C   UNL     1      -0.086   9.004  20.606  0.00  0.00    +0.000 C 
ATOM     13  C   UNL     1      -0.373  10.032  19.503  0.00  0.00    +0.000 C 
ATOM     14  C   UNL     1       0.266   9.645  18.163  0.00  0.00    +0.000 C 
ATOM     15  C   UNL     1       1.741   9.273  18.306  0.00  0.00    +0.000 C 
ATOM     16  N   UNL     1       2.892   6.785  17.902  0.00  0.00    +0.000 NA
ATOM     17  C   UNL     1       3.388   5.554  17.690  0.00  0.00    +0.000 A 
BRANCH   6  19
ATOM     18  C   UNL     1       2.803   2.418  17.706  0.00  0.00    +0.000 C 
ATOM     19  C   UNL     1       3.915   3.196  18.396  0.00  0.00    +0.000 C 
ENDBRANCH   6  19
ENDBRANCH   1  13
BRANCH   5  20
ATOM     20  C   UNL     1      -0.620  11.327  22.306  0.00  0.00    +0.000 C 
ATOM     21  N   UNL     1      -1.036  10.831  23.270  0.00  0.00    +0.000 NA
ENDBRANCH   5  20
BRANCH   4  22
ATOM     22  C   UNL     1       0.491  14.304  22.046  0.00  0.00    +0.000 C 
BRANCH  22  23
ATOM     23  O   UNL     1      -0.625  15.193  22.014  0.00  0.00    +0.000 OA
BRANCH  23  24
ATOM     24  C   UNL     1      -1.820  14.625  22.367  0.00  0.00    +0.000 A 
ATOM     25  C   UNL     1      -2.833  14.307  21.458  0.00  0.00    +0.000 A 
ATOM     26  C   UNL     1      -4.025  13.734  21.902  0.00  0.00    +0.000 A 
ATOM     27  C   UNL     1      -4.213  13.470  23.261  0.00  0.00    +0.000 A 
ATOM     28  C   UNL     1      -3.193  13.752  24.172  0.00  0.00    +0.000 A 
ATOM     29  C   UNL     1      -2.004  14.319  23.718  0.00  0.00    +0.000 A 
ATOM     30  F   UNL     1      -1.041  14.591  24.613  0.00  0.00    +0.000 F 
BRANCH  27  31
ATOM     31  C   UNL     1      -5.455  12.922  23.709  0.00  0.00    +0.000 C 
ATOM     32  N   UNL     1      -6.474  12.490  24.060  0.00  0.00    +0.000 NA
ENDBRANCH  27  31
ENDBRANCH  23  24
ENDBRANCH  22  23
ENDBRANCH   4  22
TORSDOF 7
ENDMDL
MODEL 7
REMARK VINA RESULT:      -6.6      4.042      9.324
REMARK  Name = 
REMARK  8 active torsions:
REMARK  status: ('A' for Active; 'I' for Inactive)
REMARK    1  A    between atoms: C_1  and  C_2
REMARK    2  A    between atoms: C_2  and  C_3
REMARK    3  A    between atoms: C_10  and  N_11
REMARK    4  A    between atoms: C_14  and  C_15
REMARK    5  A    between atoms: C_15  and  O_16
REMARK    6  A    between atoms: O_16  and  C_17
REMARK    7  A    between atoms: C_20  and  C_21
REMARK    8  A    between atoms: C_26  and  C_27
REMARK                            x       y       z     vdW  Elec       q    Type
REMARK                         _______ _______ _______ _____ _____    ______ ____
ROOT
ATOM      1  N   UNL     1       0.287  11.609  19.882  0.00  0.00    +0.000 N 
ATOM      2  N   UNL     1       1.016  12.252  18.950  0.00  0.00    +0.000 NA
ATOM      3  C   UNL     1       1.331  13.413  19.515  0.00  0.00    +0.000 A 
ATOM      4  C   UNL     1       0.833  13.517  20.827  0.00  0.00    +0.000 A 
ATOM      5  C   UNL     1       0.153  12.333  21.036  0.00  0.00    +0.000 A 
ENDROOT
BRANCH   1  13
ATOM      6  C   UNL     1       2.914   4.383  19.031  0.00  0.00    +0.000 A 
ATOM      7  C   UNL     1       2.594   4.918  20.254  0.00  0.00    +0.000 A 
ATOM      8  N   UNL     1       2.256   6.202  20.434  0.00  0.00    +0.000 NA
ATOM      9  C   UNL     1       2.221   7.000  19.356  0.00  0.00    +0.000 A 
ATOM     10  N   UNL     1       1.762   8.280  19.511  0.00  0.00    +0.000 N 
ATOM     11  C   UNL     1       1.380   8.768  20.824  0.00  0.00    +0.000 C 
ATOM     12  C   UNL     1      -0.049   9.301  20.751  0.00  0.00    +0.000 C 
ATOM     13  C   UNL     1      -0.251  10.281  19.587  0.00  0.00    +0.000 C 
ATOM     14  C   UNL     1       0.290   9.733  18.260  0.00  0.00    +0.000 C 
ATOM     15  C   UNL     1       1.715   9.199  18.389  0.00  0.00    +0.000 C 
ATOM     16  N   UNL     1       2.554   6.571  18.128  0.00  0.00    +0.000 NA
ATOM     17  C   UNL     1       2.895   5.278  17.990  0.00  0.00    +0.000 A 
BRANCH   6  19
ATOM     18  C   UNL     1       2.480   2.419  17.585  0.00  0.00    +0.000 C 
ATOM     19  C   UNL     1       3.169   2.926  18.844  0.00  0.00    +0.000 C 
ENDBRANCH   6  19
ENDBRANCH   1  13
BRANCH   5  20
ATOM     20  C   UNL     1      -0.539  11.918  22.201  0.00  0.00    +0.000 C 
ATOM     21  N   UNL     1      -1.122  11.564  23.140  0.00  0.00    +0.000 NA
ENDBRANCH   5  20
BRANCH   4  22
ATOM     22  C   UNL     1       1.039  14.652  21.753  0.00  0.00    +0.000 C 
BRANCH  22  23
ATOM     23  O   UNL     1       2.359  14.630  22.297  0.00  0.00    +0.000 OA
BRANCH  23  24
ATOM     24  C   UNL     1       3.294  15.305  21.559  0.00  0.00    +0.000 A 
ATOM     25  C   UNL     1       3.055  16.529  20.927  0.00  0.00    +0.000 A 
ATOM     26  C   UNL     1       4.063  17.149  20.187  0.00  0.00    +0.000 A 
ATOM     27  C   UNL     1       5.320  16.551  20.075  0.00  0.00    +0.000 A 
ATOM     28  C   UNL     1       5.578  15.345  20.731  0.00  0.00    +0.000 A 
ATOM     29  C   UNL     1       4.568  14.737  21.472  0.00  0.00    +0.000 A 
ATOM     30  F   UNL     1       4.835  13.574  22.087  0.00  0.00    +0.000 F 
BRANCH  27  31
ATOM     31  C   UNL     1       6.331  17.175  19.279  0.00  0.00    +0.000 C 
ATOM     32  N   UNL     1       7.166  17.672  18.644  0.00  0.00    +0.000 NA
ENDBRANCH  27  31
ENDBRANCH  23  24
ENDBRANCH  22  23
ENDBRANCH   4  22
TORSDOF 7
ENDMDL
MODEL 8
REMARK VINA RESULT:      -6.6      2.436      3.655
REMARK  Name = 
REMARK  8 active torsions:
REMARK  status: ('A' for Active; 'I' for Inactive)
REMARK    1  A    between atoms: C_1  and  C_2
REMARK    2  A    between atoms: C_2  and  C_3
REMARK    3  A    between atoms: C_10  and  N_11
REMARK    4  A    between atoms: C_14  and  C_15
REMARK    5  A    between atoms: C_15  and  O_16
REMARK    6  A    between atoms: O_16  and  C_17
REMARK    7  A    between atoms: C_20  and  C_21
REMARK    8  A    between atoms: C_26  and  C_27
REMARK                            x       y       z     vdW  Elec       q    Type
REMARK                         _______ _______ _______ _____ _____    ______ ____
ROOT
ATOM      1  N   UNL     1       1.867   7.454  20.326  0.00  0.00    +0.000 N 
ATOM      2  N   UNL     1       1.207   6.728  21.249  0.00  0.00    +0.000 NA
ATOM      3  C   UNL     1       1.266   5.480  20.798  0.00  0.00    +0.000 A 
ATOM      4  C   UNL     1       1.989   5.384  19.595  0.00  0.00    +0.000 A 
ATOM      5  C   UNL     1       2.362   6.682  19.309  0.00  0.00    +0.000 A 
ENDROOT
BRANCH   1  13
ATOM      6  C   UNL     1      -2.580  13.376  22.560  0.00  0.00    +0.000 A 
ATOM      7  C   UNL     1      -1.882  12.595  23.447  0.00  0.00    +0.000 A 
ATOM      8  N   UNL     1      -1.207  11.493  23.090  0.00  0.00    +0.000 NA
ATOM      9  C   UNL     1      -1.210  11.146  21.795  0.00  0.00    +0.000 A 
ATOM     10  N   UNL     1      -0.427  10.093  21.404  0.00  0.00    +0.000 N 
ATOM     11  C   UNL     1       0.337   9.344  22.385  0.00  0.00    +0.000 C 
ATOM     12  C   UNL     1       1.803   9.331  21.957  0.00  0.00    +0.000 C 
ATOM     13  C   UNL     1       1.985   8.902  20.495  0.00  0.00    +0.000 C 
ATOM     14  C   UNL     1       1.052   9.661  19.542  0.00  0.00    +0.000 C 
ATOM     15  C   UNL     1      -0.398   9.656  20.021  0.00  0.00    +0.000 C 
ATOM     16  N   UNL     1      -1.895  11.830  20.865  0.00  0.00    +0.000 NA
ATOM     17  C   UNL     1      -2.565  12.925  21.263  0.00  0.00    +0.000 A 
BRANCH   6  19
ATOM     18  C   UNL     1      -2.641  15.153  24.285  0.00  0.00    +0.000 C 
ATOM     19  C   UNL     1      -3.219  14.660  22.966  0.00  0.00    +0.000 C 
ENDBRANCH   6  19
ENDBRANCH   1  13
BRANCH   5  20
ATOM     20  C   UNL     1       3.115   7.151  18.203  0.00  0.00    +0.000 C 
ATOM     21  N   UNL     1       3.709   7.537  17.283  0.00  0.00    +0.000 NA
ENDBRANCH   5  20
BRANCH   4  22
ATOM     22  C   UNL     1       2.285   4.141  18.849  0.00  0.00    +0.000 C 
BRANCH  22  23
ATOM     23  O   UNL     1       3.647   3.752  19.031  0.00  0.00    +0.000 OA
BRANCH  23  24
ATOM     24  C   UNL     1       4.476   4.066  17.988  0.00  0.00    +0.000 A 
ATOM     25  C   UNL     1       4.152   3.863  16.643  0.00  0.00    +0.000 A 
ATOM     26  C   UNL     1       5.058   4.207  15.640  0.00  0.00    +0.000 A 
ATOM     27  C   UNL     1       6.297   4.761  15.972  0.00  0.00    +0.000 A 
ATOM     28  C   UNL     1       6.616   4.999  17.311  0.00  0.00    +0.000 A 
ATOM     29  C   UNL     1       5.702   4.658  18.305  0.00  0.00    +0.000 A 
ATOM     30  F   UNL     1       6.033   4.887  19.586  0.00  0.00    +0.000 F 
BRANCH  27  31
ATOM     31  C   UNL     1       7.234   5.069  14.937  0.00  0.00    +0.000 C 
ATOM     32  N   UNL     1       7.982   5.336  14.090  0.00  0.00    +0.000 NA
ENDBRANCH  27  31
ENDBRANCH  23  24
ENDBRANCH  22  23
ENDBRANCH   4  22
TORSDOF 7
ENDMDL
MODEL 9
REMARK VINA RESULT:      -6.5      3.688     12.121
REMARK  Name = 
REMARK  8 active torsions:
REMARK  status: ('A' for Active; 'I' for Inactive)
REMARK    1  A    between atoms: C_1  and  C_2
REMARK    2  A    between atoms: C_2  and  C_3
REMARK    3  A    between atoms: C_10  and  N_11
REMARK    4  A    between atoms: C_14  and  C_15
REMARK    5  A    between atoms: C_15  and  O_16
REMARK    6  A    between atoms: O_16  and  C_17
REMARK    7  A    between atoms: C_20  and  C_21
REMARK    8  A    between atoms: C_26  and  C_27
REMARK                            x       y       z     vdW  Elec       q    Type
REMARK                         _______ _______ _______ _____ _____    ______ ____
ROOT
ATOM      1  N   UNL     1       3.445   5.632  19.137  0.00  0.00    +0.000 N 
ATOM      2  N   UNL     1       3.412   6.828  18.518  0.00  0.00    +0.000 NA
ATOM      3  C   UNL     1       2.519   7.534  19.202  0.00  0.00    +0.000 A 
ATOM      4  C   UNL     1       1.989   6.811  20.286  0.00  0.00    +0.000 A 
ATOM      5  C   UNL     1       2.603   5.576  20.215  0.00  0.00    +0.000 A 
ENDROOT
BRANCH   1  13
ATOM      6  C   UNL     1       6.899   3.721  12.484  0.00  0.00    +0.000 A 
ATOM      7  C   UNL     1       7.449   4.603  13.380  0.00  0.00    +0.000 A 
ATOM      8  N   UNL     1       6.811   5.039  14.475  0.00  0.00    +0.000 NA
ATOM      9  C   UNL     1       5.573   4.578  14.708  0.00  0.00    +0.000 A 
ATOM     10  N   UNL     1       4.962   4.923  15.883  0.00  0.00    +0.000 N 
ATOM     11  C   UNL     1       5.624   5.813  16.820  0.00  0.00    +0.000 C 
ATOM     12  C   UNL     1       5.688   5.129  18.183  0.00  0.00    +0.000 C 
ATOM     13  C   UNL     1       4.326   4.580  18.629  0.00  0.00    +0.000 C 
ATOM     14  C   UNL     1       3.643   3.750  17.533  0.00  0.00    +0.000 C 
ATOM     15  C   UNL     1       3.617   4.471  16.188  0.00  0.00    +0.000 C 
ATOM     16  N   UNL     1       4.944   3.742  13.866  0.00  0.00    +0.000 NA
ATOM     17  C   UNL     1       5.614   3.333  12.775  0.00  0.00    +0.000 A 
BRANCH   6  19
ATOM     18  C   UNL     1       7.242   1.734  11.045  0.00  0.00    +0.000 C 
ATOM     19  C   UNL     1       7.676   3.163  11.341  0.00  0.00    +0.000 C 
ENDBRANCH   6  19
ENDBRANCH   1  13
BRANCH   5  20
ATOM     20  C   UNL     1       2.430   4.464  21.076  0.00  0.00    +0.000 C 
ATOM     21  N   UNL     1       2.297   3.536  21.762  0.00  0.00    +0.000 NA
ENDBRANCH   5  20
BRANCH   4  22
ATOM     22  C   UNL     1       1.009   7.311  21.276  0.00  0.00    +0.000 C 
BRANCH  22  23
ATOM     23  O   UNL     1       1.483   8.505  21.900  0.00  0.00    +0.000 OA
BRANCH  23  24
ATOM     24  C   UNL     1       0.540   9.487  22.046  0.00  0.00    +0.000 A 
ATOM     25  C   UNL     1      -0.265   9.635  23.179  0.00  0.00    +0.000 A 
ATOM     26  C   UNL     1      -1.207  10.662  23.245  0.00  0.00    +0.000 A 
ATOM     27  C   UNL     1      -1.350  11.552  22.178  0.00  0.00    +0.000 A 
ATOM     28  C   UNL     1      -0.527  11.433  21.056  0.00  0.00    +0.000 A 
ATOM     29  C   UNL     1       0.415  10.409  21.003  0.00  0.00    +0.000 A 
ATOM     30  F   UNL     1       1.189  10.307  19.911  0.00  0.00    +0.000 F 
BRANCH  27  31
ATOM     31  C   UNL     1      -2.349  12.574  22.240  0.00  0.00    +0.000 C 
ATOM     32  N   UNL     1      -3.172  13.391  22.303  0.00  0.00    +0.000 NA
ENDBRANCH  27  31
ENDBRANCH  23  24
ENDBRANCH  22  23
ENDBRANCH   4  22
TORSDOF 7
ENDMDL
