MODEL 1
REMARK VINA RESULT:      -8.1      0.000      0.000
REMARK  Name = 
REMARK  4 active torsions:
REMARK  status: ('A' for Active; 'I' for Inactive)
REMARK    1  A    between atoms: C_2  and  C_10
REMARK    2  A    between atoms: C_15  and  O_16
REMARK    3  A    between atoms: O_16  and  C_17
REMARK    4  A    between atoms: C_17  and  C_18
REMARK                            x       y       z     vdW  Elec       q    Type
REMARK                         _______ _______ _______ _____ _____    ______ ____
ROOT
ATOM      1  C   UNL     1       5.798   4.499  16.831  0.00  0.00    +0.000 A 
ATOM      2  C   UNL     1       5.418   3.735  15.729  0.00  0.00    +0.000 A 
ATOM      3  C   UNL     1       6.085   3.895  14.519  0.00  0.00    +0.000 A 
ATOM      4  C   UNL     1       7.105   4.827  14.453  0.00  0.00    +0.000 A 
ATOM      5  N   UNL     1       7.465   5.618  15.484  0.00  0.00    +0.000 NA
ATOM      6  C   UNL     1       6.818   5.436  16.665  0.00  0.00    +0.000 A 
ENDROOT
BRANCH   1   8
ATOM      7  O   UNL     1       5.882   4.043  19.129  0.00  0.00    +0.000 OA
ATOM      8  C   UNL     1       5.173   4.213  18.148  0.00  0.00    +0.000 C 
ATOM      9  N   UNL     1       3.793   4.143  18.148  0.00  0.00    +0.000 N 
ATOM     10  C   UNL     1       3.023   3.758  19.254  0.00  0.00    +0.000 A 
ATOM     11  C   UNL     1       3.466   2.878  20.242  0.00  0.00    +0.000 A 
ATOM     12  N   UNL     1       2.709   2.525  21.315  0.00  0.00    +0.000 NA
ATOM     13  C   UNL     1       1.496   3.114  21.378  0.00  0.00    +0.000 A 
ATOM     14  C   UNL     1       1.048   3.976  20.391  0.00  0.00    +0.000 A 
ATOM     15  N   UNL     1       1.781   4.285  19.288  0.00  0.00    +0.000 NA
ATOM     16  H   UNL     1       3.262   4.612  17.430  0.00  0.00    +0.000 HD
ENDBRANCH   1   8
BRANCH   6  17
ATOM     17  O   UNL     1       7.168   6.258  17.708  0.00  0.00    +0.000 OA
BRANCH  17  18
ATOM     18  C   UNL     1       6.922   7.658  17.482  0.00  0.00    +0.000 C 
BRANCH  18  19
ATOM     19  C   UNL     1       8.162   8.508  17.732  0.00  0.00    +0.000 C 
ATOM     20  F   UNL     1       7.795   9.801  17.947  0.00  0.00    +0.000 F 
ATOM     21  F   UNL     1       8.781   8.098  18.870  0.00  0.00    +0.000 F 
ENDBRANCH  18  19
ENDBRANCH  17  18
ENDBRANCH   6  17
TORSDOF 4
ENDMDL
MODEL 2
REMARK VINA RESULT:      -7.7      2.414      5.928
REMARK  Name = 
REMARK  4 active torsions:
REMARK  status: ('A' for Active; 'I' for Inactive)
REMARK    1  A    between atoms: C_2  and  C_10
REMARK    2  A    between atoms: C_15  and  O_16
REMARK    3  A    between atoms: O_16  and  C_17
REMARK    4  A    between atoms: C_17  and  C_18
REMARK                            x       y       z     vdW  Elec       q    Type
REMARK                         _______ _______ _______ _____ _____    ______ ____
ROOT
ATOM      1  C   UNL     1       3.508   3.896  19.516  0.00  0.00    +0.000 A 
ATOM      2  C   UNL     1       3.517   2.910  20.502  0.00  0.00    +0.000 A 
ATOM      3  C   UNL     1       2.360   2.658  21.232  0.00  0.00    +0.000 A 
ATOM      4  C   UNL     1       1.236   3.415  20.958  0.00  0.00    +0.000 A 
ATOM      5  N   UNL     1       1.207   4.410  20.048  0.00  0.00    +0.000 NA
ATOM      6  C   UNL     1       2.337   4.631  19.328  0.00  0.00    +0.000 A 
ENDROOT
BRANCH   1   8
ATOM      7  O   UNL     1       5.818   4.053  19.156  0.00  0.00    +0.000 OA
ATOM      8  C   UNL     1       4.705   4.052  18.651  0.00  0.00    +0.000 C 
ATOM      9  N   UNL     1       4.448   4.206  17.302  0.00  0.00    +0.000 N 
ATOM     10  C   UNL     1       5.425   4.496  16.341  0.00  0.00    +0.000 A 
ATOM     11  C   UNL     1       6.591   5.215  16.608  0.00  0.00    +0.000 A 
ATOM     12  N   UNL     1       7.535   5.476  15.665  0.00  0.00    +0.000 NA
ATOM     13  C   UNL     1       7.281   4.959  14.445  0.00  0.00    +0.000 A 
ATOM     14  C   UNL     1       6.119   4.258  14.172  0.00  0.00    +0.000 A 
ATOM     15  N   UNL     1       5.148   4.046  15.099  0.00  0.00    +0.000 NA
ATOM     16  H   UNL     1       3.584   3.865  16.909  0.00  0.00    +0.000 HD
ENDBRANCH   1   8
BRANCH   6  17
ATOM     17  O   UNL     1       2.315   5.660  18.420  0.00  0.00    +0.000 OA
BRANCH  17  18
ATOM     18  C   UNL     1       2.448   6.974  18.992  0.00  0.00    +0.000 C 
BRANCH  18  19
ATOM     19  C   UNL     1       2.975   7.990  17.986  0.00  0.00    +0.000 C 
ATOM     20  F   UNL     1       3.722   7.353  17.042  0.00  0.00    +0.000 F 
ATOM     21  F   UNL     1       1.937   8.563  17.321  0.00  0.00    +0.000 F 
ENDBRANCH  18  19
ENDBRANCH  17  18
ENDBRANCH   6  17
TORSDOF 4
ENDMDL
MODEL 3
REMARK VINA RESULT:      -7.7      1.268      1.399
REMARK  Name = 
REMARK  4 active torsions:
REMARK  status: ('A' for Active; 'I' for Inactive)
REMARK    1  A    between atoms: C_2  and  C_10
REMARK    2  A    between atoms: C_15  and  O_16
REMARK    3  A    between atoms: O_16  and  C_17
REMARK    4  A    between atoms: C_17  and  C_18
REMARK                            x       y       z     vdW  Elec       q    Type
REMARK                         _______ _______ _______ _____ _____    ______ ____
ROOT
ATOM      1  C   UNL     1       5.519   4.389  15.897  0.00  0.00    +0.000 A 
ATOM      2  C   UNL     1       5.333   3.862  14.620  0.00  0.00    +0.000 A 
ATOM      3  C   UNL     1       6.264   4.132  13.623  0.00  0.00    +0.000 A 
ATOM      4  C   UNL     1       7.346   4.935  13.938  0.00  0.00    +0.000 A 
ATOM      5  N   UNL     1       7.530   5.502  15.147  0.00  0.00    +0.000 NA
ATOM      6  C   UNL     1       6.624   5.212  16.117  0.00  0.00    +0.000 A 
ENDROOT
BRANCH   1   8
ATOM      7  O   UNL     1       4.446   2.785  17.226  0.00  0.00    +0.000 OA
ATOM      8  C   UNL     1       4.595   3.973  16.983  0.00  0.00    +0.000 C 
ATOM      9  N   UNL     1       3.945   5.002  17.637  0.00  0.00    +0.000 N 
ATOM     10  C   UNL     1       2.940   4.817  18.596  0.00  0.00    +0.000 A 
ATOM     11  C   UNL     1       2.073   3.723  18.614  0.00  0.00    +0.000 A 
ATOM     12  N   UNL     1       1.112   3.553  19.561  0.00  0.00    +0.000 NA
ATOM     13  C   UNL     1       1.073   4.509  20.513  0.00  0.00    +0.000 A 
ATOM     14  C   UNL     1       1.921   5.603  20.489  0.00  0.00    +0.000 A 
ATOM     15  N   UNL     1       2.844   5.804  19.511  0.00  0.00    +0.000 NA
ATOM     16  H   UNL     1       4.340   5.930  17.641  0.00  0.00    +0.000 HD
ENDBRANCH   1   8
BRANCH   6  17
ATOM     17  O   UNL     1       6.798   5.809  17.341  0.00  0.00    +0.000 OA
BRANCH  17  18
ATOM     18  C   UNL     1       6.598   7.235  17.352  0.00  0.00    +0.000 C 
BRANCH  18  19
ATOM     19  C   UNL     1       7.893   7.996  17.605  0.00  0.00    +0.000 C 
ATOM     20  F   UNL     1       7.613   9.304  17.855  0.00  0.00    +0.000 F 
ATOM     21  F   UNL     1       8.498   7.520  18.725  0.00  0.00    +0.000 F 
ENDBRANCH  18  19
ENDBRANCH  17  18
ENDBRANCH   6  17
TORSDOF 4
ENDMDL
MODEL 4
REMARK VINA RESULT:      -7.7      2.555      3.483
REMARK  Name = 
REMARK  4 active torsions:
REMARK  status: ('A' for Active; 'I' for Inactive)
REMARK    1  A    between atoms: C_2  and  C_10
REMARK    2  A    between atoms: C_15  and  O_16
REMARK    3  A    between atoms: O_16  and  C_17
REMARK    4  A    between atoms: C_17  and  C_18
REMARK                            x       y       z     vdW  Elec       q    Type
REMARK                         _______ _______ _______ _____ _____    ______ ____
ROOT
ATOM      1  C   UNL     1       6.314   5.709  18.375  0.00  0.00    +0.000 A 
ATOM      2  C   UNL     1       7.415   6.071  19.150  0.00  0.00    +0.000 A 
ATOM      3  C   UNL     1       8.241   7.108  18.730  0.00  0.00    +0.000 A 
ATOM      4  C   UNL     1       7.941   7.739  17.537  0.00  0.00    +0.000 A 
ATOM      5  N   UNL     1       6.915   7.383  16.737  0.00  0.00    +0.000 NA
ATOM      6  C   UNL     1       6.105   6.382  17.171  0.00  0.00    +0.000 A 
ENDROOT
BRANCH   1   8
ATOM      7  O   UNL     1       5.766   3.577  19.179  0.00  0.00    +0.000 OA
ATOM      8  C   UNL     1       5.365   4.700  18.910  0.00  0.00    +0.000 C 
ATOM      9  N   UNL     1       4.057   5.126  19.045  0.00  0.00    +0.000 N 
ATOM     10  C   UNL     1       2.989   4.294  19.406  0.00  0.00    +0.000 A 
ATOM     11  C   UNL     1       2.935   2.929  19.119  0.00  0.00    +0.000 A 
ATOM     12  N   UNL     1       1.896   2.134  19.488  0.00  0.00    +0.000 NA
ATOM     13  C   UNL     1       0.922   2.754  20.188  0.00  0.00    +0.000 A 
ATOM     14  C   UNL     1       0.966   4.110  20.461  0.00  0.00    +0.000 A 
ATOM     15  N   UNL     1       1.976   4.918  20.042  0.00  0.00    +0.000 NA
ATOM     16  H   UNL     1       3.852   6.109  19.139  0.00  0.00    +0.000 HD
ENDBRANCH   1   8
BRANCH   6  17
ATOM     17  O   UNL     1       5.076   6.003  16.346  0.00  0.00    +0.000 OA
BRANCH  17  18
ATOM     18  C   UNL     1       5.486   5.477  15.070  0.00  0.00    +0.000 C 
BRANCH  18  19
ATOM     19  C   UNL     1       6.309   4.202  15.210  0.00  0.00    +0.000 C 
ATOM     20  F   UNL     1       5.603   3.279  15.919  0.00  0.00    +0.000 F 
ATOM     21  F   UNL     1       6.523   3.654  13.985  0.00  0.00    +0.000 F 
ENDBRANCH  18  19
ENDBRANCH  17  18
ENDBRANCH   6  17
TORSDOF 4
ENDMDL
MODEL 5
REMARK VINA RESULT:      -7.6      1.338      1.707
REMARK  Name = 
REMARK  4 active torsions:
REMARK  status: ('A' for Active; 'I' for Inactive)
REMARK    1  A    between atoms: C_2  and  C_10
REMARK    2  A    between atoms: C_15  and  O_16
REMARK    3  A    between atoms: O_16  and  C_17
REMARK    4  A    between atoms: C_17  and  C_18
REMARK                            x       y       z     vdW  Elec       q    Type
REMARK                         _______ _______ _______ _____ _____    ______ ____
ROOT
ATOM      1  C   UNL     1       5.502   4.381  15.811  0.00  0.00    +0.000 A 
ATOM      2  C   UNL     1       5.312   3.922  14.509  0.00  0.00    +0.000 A 
ATOM      3  C   UNL     1       6.300   4.137  13.554  0.00  0.00    +0.000 A 
ATOM      4  C   UNL     1       7.441   4.820  13.936  0.00  0.00    +0.000 A 
ATOM      5  N   UNL     1       7.635   5.322  15.172  0.00  0.00    +0.000 NA
ATOM      6  C   UNL     1       6.671   5.086  16.099  0.00  0.00    +0.000 A 
ENDROOT
BRANCH   1   8
ATOM      7  O   UNL     1       3.312   4.147  16.612  0.00  0.00    +0.000 OA
ATOM      8  C   UNL     1       4.504   4.017  16.849  0.00  0.00    +0.000 C 
ATOM      9  N   UNL     1       5.027   3.563  18.045  0.00  0.00    +0.000 N 
ATOM     10  C   UNL     1       4.264   3.294  19.189  0.00  0.00    +0.000 A 
ATOM     11  C   UNL     1       3.071   3.948  19.500  0.00  0.00    +0.000 A 
ATOM     12  N   UNL     1       2.337   3.665  20.609  0.00  0.00    +0.000 NA
ATOM     13  C   UNL     1       2.829   2.675  21.382  0.00  0.00    +0.000 A 
ATOM     14  C   UNL     1       4.020   2.034  21.084  0.00  0.00    +0.000 A 
ATOM     15  N   UNL     1       4.784   2.356  20.007  0.00  0.00    +0.000 NA
ATOM     16  H   UNL     1       5.952   3.161  18.072  0.00  0.00    +0.000 HD
ENDBRANCH   1   8
BRANCH   6  17
ATOM     17  O   UNL     1       6.857   5.618  17.351  0.00  0.00    +0.000 OA
BRANCH  17  18
ATOM     18  C   UNL     1       6.579   7.027  17.456  0.00  0.00    +0.000 C 
BRANCH  18  19
ATOM     19  C   UNL     1       7.851   7.857  17.576  0.00  0.00    +0.000 C 
ATOM     20  F   UNL     1       7.529   9.178  17.650  0.00  0.00    +0.000 F 
ATOM     21  F   UNL     1       8.490   7.559  18.737  0.00  0.00    +0.000 F 
ENDBRANCH  18  19
ENDBRANCH  17  18
ENDBRANCH   6  17
TORSDOF 4
ENDMDL
MODEL 6
REMARK VINA RESULT:      -7.6      1.189      1.290
REMARK  Name = 
REMARK  4 active torsions:
REMARK  status: ('A' for Active; 'I' for Inactive)
REMARK    1  A    between atoms: C_2  and  C_10
REMARK    2  A    between atoms: C_15  and  O_16
REMARK    3  A    between atoms: O_16  and  C_17
REMARK    4  A    between atoms: C_17  and  C_18
REMARK                            x       y       z     vdW  Elec       q    Type
REMARK                         _______ _______ _______ _____ _____    ______ ____
ROOT
ATOM      1  C   UNL     1       5.269   5.063  16.292  0.00  0.00    +0.000 A 
ATOM      2  C   UNL     1       4.981   4.385  15.109  0.00  0.00    +0.000 A 
ATOM      3  C   UNL     1       5.973   4.230  14.146  0.00  0.00    +0.000 A 
ATOM      4  C   UNL     1       7.220   4.774  14.399  0.00  0.00    +0.000 A 
ATOM      5  N   UNL     1       7.519   5.478  15.509  0.00  0.00    +0.000 NA
ATOM      6  C   UNL     1       6.546   5.603  16.449  0.00  0.00    +0.000 A 
ENDROOT
BRANCH   1   8
ATOM      7  O   UNL     1       3.634   6.129  17.590  0.00  0.00    +0.000 OA
ATOM      8  C   UNL     1       4.243   5.093  17.366  0.00  0.00    +0.000 C 
ATOM      9  N   UNL     1       4.072   3.910  18.058  0.00  0.00    +0.000 N 
ATOM     10  C   UNL     1       3.253   3.767  19.186  0.00  0.00    +0.000 A 
ATOM     11  C   UNL     1       2.983   4.797  20.087  0.00  0.00    +0.000 A 
ATOM     12  N   UNL     1       2.175   4.644  21.170  0.00  0.00    +0.000 NA
ATOM     13  C   UNL     1       1.618   3.421  21.299  0.00  0.00    +0.000 A 
ATOM     14  C   UNL     1       1.895   2.393  20.415  0.00  0.00    +0.000 A 
ATOM     15  N   UNL     1       2.749   2.528  19.365  0.00  0.00    +0.000 NA
ATOM     16  H   UNL     1       4.329   3.032  17.633  0.00  0.00    +0.000 HD
ENDBRANCH   1   8
BRANCH   6  17
ATOM     17  O   UNL     1       6.843   6.341  17.569  0.00  0.00    +0.000 OA
BRANCH  17  18
ATOM     18  C   UNL     1       6.897   7.765  17.357  0.00  0.00    +0.000 C 
BRANCH  18  19
ATOM     19  C   UNL     1       8.213   8.367  17.831  0.00  0.00    +0.000 C 
ATOM     20  F   UNL     1       7.996   9.625  18.304  0.00  0.00    +0.000 F 
ATOM     21  F   UNL     1       8.700   7.650  18.877  0.00  0.00    +0.000 F 
ENDBRANCH  18  19
ENDBRANCH  17  18
ENDBRANCH   6  17
TORSDOF 4
ENDMDL
MODEL 7
REMARK VINA RESULT:      -7.6      2.753      6.012
REMARK  Name = 
REMARK  4 active torsions:
REMARK  status: ('A' for Active; 'I' for Inactive)
REMARK    1  A    between atoms: C_2  and  C_10
REMARK    2  A    between atoms: C_15  and  O_16
REMARK    3  A    between atoms: O_16  and  C_17
REMARK    4  A    between atoms: C_17  and  C_18
REMARK                            x       y       z     vdW  Elec       q    Type
REMARK                         _______ _______ _______ _____ _____    ______ ____
ROOT
ATOM      1  C   UNL     1       3.747   4.062  19.604  0.00  0.00    +0.000 A 
ATOM      2  C   UNL     1       3.432   2.818  20.148  0.00  0.00    +0.000 A 
ATOM      3  C   UNL     1       2.283   2.676  20.918  0.00  0.00    +0.000 A 
ATOM      4  C   UNL     1       1.495   3.793  21.128  0.00  0.00    +0.000 A 
ATOM      5  N   UNL     1       1.796   5.021  20.660  0.00  0.00    +0.000 NA
ATOM      6  C   UNL     1       2.910   5.140  19.892  0.00  0.00    +0.000 A 
ENDROOT
BRANCH   1   8
ATOM      7  O   UNL     1       6.036   4.172  19.111  0.00  0.00    +0.000 OA
ATOM      8  C   UNL     1       4.897   4.162  18.668  0.00  0.00    +0.000 C 
ATOM      9  N   UNL     1       4.567   4.258  17.330  0.00  0.00    +0.000 N 
ATOM     10  C   UNL     1       5.493   4.491  16.304  0.00  0.00    +0.000 A 
ATOM     11  C   UNL     1       6.679   5.206  16.474  0.00  0.00    +0.000 A 
ATOM     12  N   UNL     1       7.573   5.411  15.469  0.00  0.00    +0.000 NA
ATOM     13  C   UNL     1       7.246   4.842  14.290  0.00  0.00    +0.000 A 
ATOM     14  C   UNL     1       6.063   4.145  14.114  0.00  0.00    +0.000 A 
ATOM     15  N   UNL     1       5.142   3.988  15.102  0.00  0.00    +0.000 NA
ATOM     16  H   UNL     1       3.679   3.911  17.001  0.00  0.00    +0.000 HD
ENDBRANCH   1   8
BRANCH   6  17
ATOM     17  O   UNL     1       3.230   6.395  19.436  0.00  0.00    +0.000 OA
BRANCH  17  18
ATOM     18  C   UNL     1       2.424   6.863  18.338  0.00  0.00    +0.000 C 
BRANCH  18  19
ATOM     19  C   UNL     1       2.126   8.353  18.437  0.00  0.00    +0.000 C 
ATOM     20  F   UNL     1       1.129   8.678  17.569  0.00  0.00    +0.000 F 
ATOM     21  F   UNL     1       1.658   8.650  19.677  0.00  0.00    +0.000 F 
ENDBRANCH  18  19
ENDBRANCH  17  18
ENDBRANCH   6  17
TORSDOF 4
ENDMDL
MODEL 8
REMARK VINA RESULT:      -7.5      1.497      1.594
REMARK  Name = 
REMARK  4 active torsions:
REMARK  status: ('A' for Active; 'I' for Inactive)
REMARK    1  A    between atoms: C_2  and  C_10
REMARK    2  A    between atoms: C_15  and  O_16
REMARK    3  A    between atoms: O_16  and  C_17
REMARK    4  A    between atoms: C_17  and  C_18
REMARK                            x       y       z     vdW  Elec       q    Type
REMARK                         _______ _______ _______ _____ _____    ______ ____
ROOT
ATOM      1  C   UNL     1       5.414   4.955  16.621  0.00  0.00    +0.000 A 
ATOM      2  C   UNL     1       5.090   5.138  15.278  0.00  0.00    +0.000 A 
ATOM      3  C   UNL     1       6.075   4.990  14.307  0.00  0.00    +0.000 A 
ATOM      4  C   UNL     1       7.358   4.677  14.720  0.00  0.00    +0.000 A 
ATOM      5  N   UNL     1       7.717   4.543  16.013  0.00  0.00    +0.000 NA
ATOM      6  C   UNL     1       6.740   4.670  16.948  0.00  0.00    +0.000 A 
ENDROOT
BRANCH   1   8
ATOM      7  O   UNL     1       3.742   6.023  17.869  0.00  0.00    +0.000 OA
ATOM      8  C   UNL     1       4.322   4.975  17.628  0.00  0.00    +0.000 C 
ATOM      9  N   UNL     1       4.058   3.766  18.242  0.00  0.00    +0.000 N 
ATOM     10  C   UNL     1       3.162   3.600  19.307  0.00  0.00    +0.000 A 
ATOM     11  C   UNL     1       2.875   4.594  20.244  0.00  0.00    +0.000 A 
ATOM     12  N   UNL     1       1.992   4.420  21.264  0.00  0.00    +0.000 NA
ATOM     13  C   UNL     1       1.380   3.218  21.290  0.00  0.00    +0.000 A 
ATOM     14  C   UNL     1       1.673   2.225  20.371  0.00  0.00    +0.000 A 
ATOM     15  N   UNL     1       2.598   2.377  19.386  0.00  0.00    +0.000 NA
ATOM     16  H   UNL     1       4.307   2.901  17.787  0.00  0.00    +0.000 HD
ENDBRANCH   1   8
BRANCH   6  17
ATOM     17  O   UNL     1       7.110   4.558  18.265  0.00  0.00    +0.000 OA
BRANCH  17  18
ATOM     18  C   UNL     1       7.263   5.811  18.959  0.00  0.00    +0.000 C 
BRANCH  18  19
ATOM     19  C   UNL     1       7.811   6.906  18.053  0.00  0.00    +0.000 C 
ATOM     20  F   UNL     1       6.790   7.699  17.625  0.00  0.00    +0.000 F 
ATOM     21  F   UNL     1       8.645   7.715  18.759  0.00  0.00    +0.000 F 
ENDBRANCH  18  19
ENDBRANCH  17  18
ENDBRANCH   6  17
TORSDOF 4
ENDMDL
MODEL 9
REMARK VINA RESULT:      -7.5      1.956      2.116
REMARK  Name = 
REMARK  4 active torsions:
REMARK  status: ('A' for Active; 'I' for Inactive)
REMARK    1  A    between atoms: C_2  and  C_10
REMARK    2  A    between atoms: C_15  and  O_16
REMARK    3  A    between atoms: O_16  and  C_17
REMARK    4  A    between atoms: C_17  and  C_18
REMARK                            x       y       z     vdW  Elec       q    Type
REMARK                         _______ _______ _______ _____ _____    ______ ____
ROOT
ATOM      1  C   UNL     1       5.422   4.434  15.943  0.00  0.00    +0.000 A 
ATOM      2  C   UNL     1       5.481   3.659  14.785  0.00  0.00    +0.000 A 
ATOM      3  C   UNL     1       6.425   3.954  13.808  0.00  0.00    +0.000 A 
ATOM      4  C   UNL     1       7.271   5.028  14.019  0.00  0.00    +0.000 A 
ATOM      5  N   UNL     1       7.209   5.829  15.102  0.00  0.00    +0.000 NA
ATOM      6  C   UNL     1       6.296   5.515  16.058  0.00  0.00    +0.000 A 
ENDROOT
BRANCH   1   8
ATOM      7  O   UNL     1       4.376   2.829  17.293  0.00  0.00    +0.000 OA
ATOM      8  C   UNL     1       4.507   4.017  17.036  0.00  0.00    +0.000 C 
ATOM      9  N   UNL     1       3.844   5.043  17.681  0.00  0.00    +0.000 N 
ATOM     10  C   UNL     1       2.845   4.854  18.645  0.00  0.00    +0.000 A 
ATOM     11  C   UNL     1       1.995   3.748  18.678  0.00  0.00    +0.000 A 
ATOM     12  N   UNL     1       1.039   3.574  19.630  0.00  0.00    +0.000 NA
ATOM     13  C   UNL     1       0.988   4.540  20.571  0.00  0.00    +0.000 A 
ATOM     14  C   UNL     1       1.820   5.646  20.533  0.00  0.00    +0.000 A 
ATOM     15  N   UNL     1       2.736   5.849  19.549  0.00  0.00    +0.000 NA
ATOM     16  H   UNL     1       4.225   5.977  17.673  0.00  0.00    +0.000 HD
ENDBRANCH   1   8
BRANCH   6  17
ATOM     17  O   UNL     1       6.215   6.345  17.149  0.00  0.00    +0.000 OA
BRANCH  17  18
ATOM     18  C   UNL     1       7.467   6.584  17.821  0.00  0.00    +0.000 C 
BRANCH  18  19
ATOM     19  C   UNL     1       7.760   5.531  18.882  0.00  0.00    +0.000 C 
ATOM     20  F   UNL     1       6.609   5.199  19.527  0.00  0.00    +0.000 F 
ATOM     21  F   UNL     1       8.203   4.390  18.290  0.00  0.00    +0.000 F 
ENDBRANCH  18  19
ENDBRANCH  17  18
ENDBRANCH   6  17
TORSDOF 4
ENDMDL
