MODEL 1
REMARK VINA RESULT:      -8.9      0.000      0.000
REMARK  Name = 
REMARK  9 active torsions:
REMARK  status: ('A' for Active; 'I' for Inactive)
REMARK    1  A    between atoms: C_1  and  C_2
REMARK    2  A    between atoms: C_6  and  C_7
REMARK    3  A    between atoms: C_7  and  C_8
REMARK    4  A    between atoms: C_8  and  O_9
REMARK    5  A    between atoms: O_9  and  C_10
REMARK    6  A    between atoms: C_13  and  C_14
REMARK    7  A    between atoms: N_20  and  C_21
REMARK    8  A    between atoms: C_22  and  C_23
REMARK    9  A    between atoms: C_27  and  C_28
REMARK                            x       y       z     vdW  Elec       q    Type
REMARK                         _______ _______ _______ _____ _____    ______ ____
ROOT
ATOM      1  C   UNL     1       3.667   5.497  17.462  0.00  0.00    +0.000 A 
ATOM      2  C   UNL     1       3.915   6.836  17.114  0.00  0.00    +0.000 A 
ATOM      3  C   UNL     1       3.272   7.915  17.708  0.00  0.00    +0.000 A 
ATOM      4  C   UNL     1       2.294   7.711  18.681  0.00  0.00    +0.000 A 
ATOM      5  C   UNL     1       2.036   6.357  19.033  0.00  0.00    +0.000 A 
ATOM      6  C   UNL     1       2.704   5.241  18.447  0.00  0.00    +0.000 A 
ENDROOT
BRANCH   4   7
ATOM      7  C   UNL     1       1.519   8.840  19.261  0.00  0.00    +0.000 A 
ATOM      8  C   UNL     1       1.066   9.992  18.563  0.00  0.00    +0.000 A 
ATOM      9  C   UNL     1       0.396  10.974  19.333  0.00  0.00    +0.000 A 
ATOM     10  C   UNL     1       0.218  10.780  20.710  0.00  0.00    +0.000 A 
ATOM     11  N   UNL     1      -0.309  11.886  21.319  0.00  0.00    +0.000 NA
ATOM     12  C   UNL     1      -0.380  12.779  20.372  0.00  0.00    +0.000 A 
ATOM     13  N   UNL     1      -0.162  12.219  19.142  0.00  0.00    +0.000 N 
ATOM     14  C   UNL     1      -0.604  12.919  17.956  0.00  0.00    +0.000 C 
ATOM     15  C   UNL     1       0.655   9.597  21.294  0.00  0.00    +0.000 A 
ATOM     16  N   UNL     1       1.287   8.647  20.579  0.00  0.00    +0.000 NA
BRANCH  15  17
ATOM     17  C   UNL     1       0.624   9.491  22.699  0.00  0.00    +0.000 C 
ATOM     18  N   UNL     1       0.558   9.434  23.863  0.00  0.00    +0.000 NA
ENDBRANCH  15  17
ENDBRANCH   4   7
BRANCH   6  19
ATOM     19  C   UNL     1       2.329   3.861  18.945  0.00  0.00    +0.000 C 
ATOM     20  F   UNL     1       3.334   3.128  19.499  0.00  0.00    +0.000 F 
ATOM     21  F   UNL     1       1.349   3.909  19.898  0.00  0.00    +0.000 F 
ATOM     22  F   UNL     1       1.814   3.071  17.954  0.00  0.00    +0.000 F 
ENDBRANCH   6  19
BRANCH   1  23
ATOM     23  O   UNL     1       4.332   4.455  16.852  0.00  0.00    +0.000 OA
BRANCH  23  24
ATOM     24  C   UNL     1       5.050   4.829  15.657  0.00  0.00    +0.000 C 
BRANCH  24  25
ATOM     25  C   UNL     1       6.560   4.669  15.756  0.00  0.00    +0.000 C 
BRANCH  25  31
ATOM     26  C   UNL     1       7.937   8.952  17.649  0.00  0.00    +0.000 C 
ATOM     27  C   UNL     1       7.803   7.467  17.815  0.00  0.00    +0.000 A 
ATOM     28  C   UNL     1       8.210   6.852  18.993  0.00  0.00    +0.000 A 
ATOM     29  C   UNL     1       8.075   5.473  19.111  0.00  0.00    +0.000 A 
ATOM     30  C   UNL     1       7.539   4.750  18.054  0.00  0.00    +0.000 A 
ATOM     31  C   UNL     1       7.150   5.432  16.908  0.00  0.00    +0.000 A 
ATOM     32  N   UNL     1       7.271   6.777  16.774  0.00  0.00    +0.000 NA
ENDBRANCH  25  31
ENDBRANCH  24  25
ENDBRANCH  23  24
ENDBRANCH   1  23
TORSDOF 7
ENDMDL
MODEL 2
REMARK VINA RESULT:      -8.6      3.890      8.934
REMARK  Name = 
REMARK  9 active torsions:
REMARK  status: ('A' for Active; 'I' for Inactive)
REMARK    1  A    between atoms: C_1  and  C_2
REMARK    2  A    between atoms: C_6  and  C_7
REMARK    3  A    between atoms: C_7  and  C_8
REMARK    4  A    between atoms: C_8  and  O_9
REMARK    5  A    between atoms: O_9  and  C_10
REMARK    6  A    between atoms: C_13  and  C_14
REMARK    7  A    between atoms: N_20  and  C_21
REMARK    8  A    between atoms: C_22  and  C_23
REMARK    9  A    between atoms: C_27  and  C_28
REMARK                            x       y       z     vdW  Elec       q    Type
REMARK                         _______ _______ _______ _____ _____    ______ ____
ROOT
ATOM      1  C   UNL     1       0.746  10.441  20.361  0.00  0.00    +0.000 A 
ATOM      2  C   UNL     1       1.305  10.106  19.116  0.00  0.00    +0.000 A 
ATOM      3  C   UNL     1       1.775   8.836  18.803  0.00  0.00    +0.000 A 
ATOM      4  C   UNL     1       1.746   7.814  19.751  0.00  0.00    +0.000 A 
ATOM      5  C   UNL     1       1.185   8.150  21.015  0.00  0.00    +0.000 A 
ATOM      6  C   UNL     1       0.678   9.443  21.343  0.00  0.00    +0.000 A 
ENDROOT
BRANCH   4   7
ATOM      7  C   UNL     1       2.333   6.476  19.478  0.00  0.00    +0.000 A 
ATOM      8  C   UNL     1       3.042   6.095  18.306  0.00  0.00    +0.000 A 
ATOM      9  C   UNL     1       3.460   4.743  18.233  0.00  0.00    +0.000 A 
ATOM     10  C   UNL     1       3.162   3.862  19.282  0.00  0.00    +0.000 A 
ATOM     11  N   UNL     1       3.506   2.572  18.981  0.00  0.00    +0.000 NA
ATOM     12  C   UNL     1       3.925   2.625  17.748  0.00  0.00    +0.000 A 
ATOM     13  N   UNL     1       4.103   3.918  17.337  0.00  0.00    +0.000 N 
ATOM     14  C   UNL     1       4.944   4.188  16.192  0.00  0.00    +0.000 C 
ATOM     15  C   UNL     1       2.506   4.341  20.410  0.00  0.00    +0.000 A 
ATOM     16  N   UNL     1       2.106   5.624  20.503  0.00  0.00    +0.000 NA
BRANCH  15  17
ATOM     17  C   UNL     1       2.064   3.413  21.374  0.00  0.00    +0.000 C 
ATOM     18  N   UNL     1       1.656   2.638  22.145  0.00  0.00    +0.000 NA
ENDBRANCH  15  17
ENDBRANCH   4   7
BRANCH   6  19
ATOM     19  C   UNL     1       0.094   9.635  22.727  0.00  0.00    +0.000 C 
ATOM     20  F   UNL     1       0.935   9.404  23.772  0.00  0.00    +0.000 F 
ATOM     21  F   UNL     1      -0.373  10.908  22.913  0.00  0.00    +0.000 F 
ATOM     22  F   UNL     1      -0.989   8.831  22.951  0.00  0.00    +0.000 F 
ENDBRANCH   6  19
BRANCH   1  23
ATOM     23  O   UNL     1       0.285  11.712  20.630  0.00  0.00    +0.000 OA
BRANCH  23  24
ATOM     24  C   UNL     1      -0.503  12.293  19.569  0.00  0.00    +0.000 C 
BRANCH  24  25
ATOM     25  C   UNL     1      -2.000  12.320  19.840  0.00  0.00    +0.000 C 
BRANCH  25  31
ATOM     26  C   UNL     1      -6.377  11.265  17.957  0.00  0.00    +0.000 C 
ATOM     27  C   UNL     1      -4.891  11.336  17.770  0.00  0.00    +0.000 A 
ATOM     28  C   UNL     1      -4.316  10.969  16.559  0.00  0.00    +0.000 A 
ATOM     29  C   UNL     1      -2.935  11.042  16.421  0.00  0.00    +0.000 A 
ATOM     30  C   UNL     1      -2.168  11.481  17.492  0.00  0.00    +0.000 A 
ATOM     31  C   UNL     1      -2.810  11.836  18.672  0.00  0.00    +0.000 A 
ATOM     32  N   UNL     1      -4.157  11.772  18.825  0.00  0.00    +0.000 NA
ENDBRANCH  25  31
ENDBRANCH  24  25
ENDBRANCH  23  24
ENDBRANCH   1  23
TORSDOF 7
ENDMDL
MODEL 3
REMARK VINA RESULT:      -8.6      3.569      8.957
REMARK  Name = 
REMARK  9 active torsions:
REMARK  status: ('A' for Active; 'I' for Inactive)
REMARK    1  A    between atoms: C_1  and  C_2
REMARK    2  A    between atoms: C_6  and  C_7
REMARK    3  A    between atoms: C_7  and  C_8
REMARK    4  A    between atoms: C_8  and  O_9
REMARK    5  A    between atoms: O_9  and  C_10
REMARK    6  A    between atoms: C_13  and  C_14
REMARK    7  A    between atoms: N_20  and  C_21
REMARK    8  A    between atoms: C_22  and  C_23
REMARK    9  A    between atoms: C_27  and  C_28
REMARK                            x       y       z     vdW  Elec       q    Type
REMARK                         _______ _______ _______ _____ _____    ______ ____
ROOT
ATOM      1  C   UNL     1       1.083  10.682  19.643  0.00  0.00    +0.000 A 
ATOM      2  C   UNL     1       1.606  10.489  18.353  0.00  0.00    +0.000 A 
ATOM      3  C   UNL     1       2.062   9.263  17.885  0.00  0.00    +0.000 A 
ATOM      4  C   UNL     1       2.056   8.141  18.712  0.00  0.00    +0.000 A 
ATOM      5  C   UNL     1       1.532   8.332  20.021  0.00  0.00    +0.000 A 
ATOM      6  C   UNL     1       1.040   9.579  20.507  0.00  0.00    +0.000 A 
ENDROOT
BRANCH   4   7
ATOM      7  C   UNL     1       2.630   6.841  18.272  0.00  0.00    +0.000 A 
ATOM      8  C   UNL     1       2.094   5.554  18.544  0.00  0.00    +0.000 A 
ATOM      9  C   UNL     1       2.844   4.446  18.077  0.00  0.00    +0.000 A 
ATOM     10  C   UNL     1       4.049   4.657  17.394  0.00  0.00    +0.000 A 
ATOM     11  N   UNL     1       4.712   3.485  17.150  0.00  0.00    +0.000 NA
ATOM     12  C   UNL     1       3.991   2.572  17.738  0.00  0.00    +0.000 A 
ATOM     13  N   UNL     1       2.776   3.071  18.125  0.00  0.00    +0.000 N 
ATOM     14  C   UNL     1       1.690   2.156  18.399  0.00  0.00    +0.000 C 
ATOM     15  C   UNL     1       4.467   5.957  17.133  0.00  0.00    +0.000 A 
ATOM     16  N   UNL     1       3.766   7.024  17.561  0.00  0.00    +0.000 NA
BRANCH  15  17
ATOM     17  C   UNL     1       5.757   6.153  16.600  0.00  0.00    +0.000 C 
ATOM     18  N   UNL     1       6.804   6.324  16.114  0.00  0.00    +0.000 NA
ENDBRANCH  15  17
ENDBRANCH   4   7
BRANCH   6  19
ATOM     19  C   UNL     1       0.496   9.614  21.920  0.00  0.00    +0.000 C 
ATOM     20  F   UNL     1       0.066  10.825  22.369  0.00  0.00    +0.000 F 
ATOM     21  F   UNL     1      -0.569   8.770  22.079  0.00  0.00    +0.000 F 
ATOM     22  F   UNL     1       1.414   9.194  22.842  0.00  0.00    +0.000 F 
ENDBRANCH   6  19
BRANCH   1  23
ATOM     23  O   UNL     1       0.634  11.914  20.067  0.00  0.00    +0.000 OA
BRANCH  23  24
ATOM     24  C   UNL     1      -0.555  12.376  19.392  0.00  0.00    +0.000 C 
BRANCH  24  25
ATOM     25  C   UNL     1      -1.783  11.508  19.620  0.00  0.00    +0.000 C 
BRANCH  25  31
ATOM     26  C   UNL     1      -5.869  12.233  17.049  0.00  0.00    +0.000 C 
ATOM     27  C   UNL     1      -4.506  11.613  17.131  0.00  0.00    +0.000 A 
ATOM     28  C   UNL     1      -4.012  10.859  16.074  0.00  0.00    +0.000 A 
ATOM     29  C   UNL     1      -2.746  10.294  16.185  0.00  0.00    +0.000 A 
ATOM     30  C   UNL     1      -2.011  10.499  17.344  0.00  0.00    +0.000 A 
ATOM     31  C   UNL     1      -2.565  11.268  18.360  0.00  0.00    +0.000 A 
ATOM     32  N   UNL     1      -3.798  11.828  18.269  0.00  0.00    +0.000 NA
ENDBRANCH  25  31
ENDBRANCH  24  25
ENDBRANCH  23  24
ENDBRANCH   1  23
TORSDOF 7
ENDMDL
MODEL 4
REMARK VINA RESULT:      -8.5      3.552      9.045
REMARK  Name = 
REMARK  9 active torsions:
REMARK  status: ('A' for Active; 'I' for Inactive)
REMARK    1  A    between atoms: C_1  and  C_2
REMARK    2  A    between atoms: C_6  and  C_7
REMARK    3  A    between atoms: C_7  and  C_8
REMARK    4  A    between atoms: C_8  and  O_9
REMARK    5  A    between atoms: O_9  and  C_10
REMARK    6  A    between atoms: C_13  and  C_14
REMARK    7  A    between atoms: N_20  and  C_21
REMARK    8  A    between atoms: C_22  and  C_23
REMARK    9  A    between atoms: C_27  and  C_28
REMARK                            x       y       z     vdW  Elec       q    Type
REMARK                         _______ _______ _______ _____ _____    ______ ____
ROOT
ATOM      1  C   UNL     1       0.871  10.738  19.838  0.00  0.00    +0.000 A 
ATOM      2  C   UNL     1       1.405  10.610  18.545  0.00  0.00    +0.000 A 
ATOM      3  C   UNL     1       1.915   9.421  18.039  0.00  0.00    +0.000 A 
ATOM      4  C   UNL     1       1.956   8.273  18.829  0.00  0.00    +0.000 A 
ATOM      5  C   UNL     1       1.421   8.399  20.142  0.00  0.00    +0.000 A 
ATOM      6  C   UNL     1       0.874   9.607  20.666  0.00  0.00    +0.000 A 
ENDROOT
BRANCH   4   7
ATOM      7  C   UNL     1       2.587   7.014  18.350  0.00  0.00    +0.000 A 
ATOM      8  C   UNL     1       2.088   5.699  18.549  0.00  0.00    +0.000 A 
ATOM      9  C   UNL     1       2.889   4.639  18.057  0.00  0.00    +0.000 A 
ATOM     10  C   UNL     1       4.105   4.920  17.420  0.00  0.00    +0.000 A 
ATOM     11  N   UNL     1       4.815   3.783  17.145  0.00  0.00    +0.000 NA
ATOM     12  C   UNL     1       4.109   2.821  17.670  0.00  0.00    +0.000 A 
ATOM     13  N   UNL     1       2.867   3.262  18.042  0.00  0.00    +0.000 N 
ATOM     14  C   UNL     1       1.805   2.300  18.242  0.00  0.00    +0.000 C 
ATOM     15  C   UNL     1       4.485   6.244  17.230  0.00  0.00    +0.000 A 
ATOM     16  N   UNL     1       3.735   7.266  17.683  0.00  0.00    +0.000 NA
BRANCH  15  17
ATOM     17  C   UNL     1       5.782   6.506  16.746  0.00  0.00    +0.000 C 
ATOM     18  N   UNL     1       6.873   6.724  16.392  0.00  0.00    +0.000 NA
ENDBRANCH  15  17
ENDBRANCH   4   7
BRANCH   6  19
ATOM     19  C   UNL     1       0.326   9.573  22.078  0.00  0.00    +0.000 C 
ATOM     20  F   UNL     1      -0.697   8.704  22.305  0.00  0.00    +0.000 F 
ATOM     21  F   UNL     1       1.289   9.246  22.993  0.00  0.00    +0.000 F 
ATOM     22  F   UNL     1      -0.142  10.792  22.485  0.00  0.00    +0.000 F 
ENDBRANCH   6  19
BRANCH   1  23
ATOM     23  O   UNL     1       0.369  11.936  20.300  0.00  0.00    +0.000 OA
BRANCH  23  24
ATOM     24  C   UNL     1      -0.697  12.481  19.494  0.00  0.00    +0.000 C 
BRANCH  24  25
ATOM     25  C   UNL     1      -2.095  12.135  19.985  0.00  0.00    +0.000 C 
BRANCH  25  31
ATOM     26  C   UNL     1      -2.820  10.668  15.387  0.00  0.00    +0.000 C 
ATOM     27  C   UNL     1      -3.405  11.164  16.675  0.00  0.00    +0.000 A 
ATOM     28  C   UNL     1      -4.777  11.352  16.798  0.00  0.00    +0.000 A 
ATOM     29  C   UNL     1      -5.285  11.818  18.005  0.00  0.00    +0.000 A 
ATOM     30  C   UNL     1      -4.414  12.080  19.053  0.00  0.00    +0.000 A 
ATOM     31  C   UNL     1      -3.055  11.865  18.861  0.00  0.00    +0.000 A 
ATOM     32  N   UNL     1      -2.539  11.409  17.691  0.00  0.00    +0.000 NA
ENDBRANCH  25  31
ENDBRANCH  24  25
ENDBRANCH  23  24
ENDBRANCH   1  23
TORSDOF 7
ENDMDL
MODEL 5
REMARK VINA RESULT:      -8.5      0.951      1.547
REMARK  Name = 
REMARK  9 active torsions:
REMARK  status: ('A' for Active; 'I' for Inactive)
REMARK    1  A    between atoms: C_1  and  C_2
REMARK    2  A    between atoms: C_6  and  C_7
REMARK    3  A    between atoms: C_7  and  C_8
REMARK    4  A    between atoms: C_8  and  O_9
REMARK    5  A    between atoms: O_9  and  C_10
REMARK    6  A    between atoms: C_13  and  C_14
REMARK    7  A    between atoms: N_20  and  C_21
REMARK    8  A    between atoms: C_22  and  C_23
REMARK    9  A    between atoms: C_27  and  C_28
REMARK                            x       y       z     vdW  Elec       q    Type
REMARK                         _______ _______ _______ _____ _____    ______ ____
ROOT
ATOM      1  C   UNL     1       3.277   5.109  18.087  0.00  0.00    +0.000 A 
ATOM      2  C   UNL     1       3.447   6.366  17.482  0.00  0.00    +0.000 A 
ATOM      3  C   UNL     1       2.944   7.548  18.012  0.00  0.00    +0.000 A 
ATOM      4  C   UNL     1       2.192   7.535  19.186  0.00  0.00    +0.000 A 
ATOM      5  C   UNL     1       2.013   6.264  19.801  0.00  0.00    +0.000 A 
ATOM      6  C   UNL     1       2.543   5.047  19.279  0.00  0.00    +0.000 A 
ENDROOT
BRANCH   4   7
ATOM      7  C   UNL     1       1.557   8.768  19.723  0.00  0.00    +0.000 A 
ATOM      8  C   UNL     1       1.349   9.981  19.011  0.00  0.00    +0.000 A 
ATOM      9  C   UNL     1       0.779  11.052  19.743  0.00  0.00    +0.000 A 
ATOM     10  C   UNL     1       0.458  10.880  21.096  0.00  0.00    +0.000 A 
ATOM     11  N   UNL     1       0.060  12.052  21.681  0.00  0.00    +0.000 NA
ATOM     12  C   UNL     1       0.210  12.951  20.748  0.00  0.00    +0.000 A 
ATOM     13  N   UNL     1       0.441  12.370  19.531  0.00  0.00    +0.000 N 
ATOM     14  C   UNL     1       0.214  13.138  18.326  0.00  0.00    +0.000 C 
ATOM     15  C   UNL     1       0.653   9.640  21.692  0.00  0.00    +0.000 A 
ATOM     16  N   UNL     1       1.187   8.607  21.013  0.00  0.00    +0.000 NA
BRANCH  15  17
ATOM     17  C   UNL     1       0.488   9.532  23.087  0.00  0.00    +0.000 C 
ATOM     18  N   UNL     1       0.318   9.480  24.241  0.00  0.00    +0.000 NA
ENDBRANCH  15  17
ENDBRANCH   4   7
BRANCH   6  19
ATOM     19  C   UNL     1       2.281   3.777  20.063  0.00  0.00    +0.000 C 
ATOM     20  F   UNL     1       1.605   2.794  19.407  0.00  0.00    +0.000 F 
ATOM     21  F   UNL     1       3.441   3.194  20.495  0.00  0.00    +0.000 F 
ATOM     22  F   UNL     1       1.561   4.008  21.203  0.00  0.00    +0.000 F 
ENDBRANCH   6  19
BRANCH   1  23
ATOM     23  O   UNL     1       3.798   3.960  17.532  0.00  0.00    +0.000 OA
BRANCH  23  24
ATOM     24  C   UNL     1       4.531   4.175  16.306  0.00  0.00    +0.000 C 
BRANCH  24  25
ATOM     25  C   UNL     1       6.029   3.934  16.420  0.00  0.00    +0.000 C 
BRANCH  25  31
ATOM     26  C   UNL     1       8.426   5.355  20.427  0.00  0.00    +0.000 C 
ATOM     27  C   UNL     1       7.881   5.706  19.074  0.00  0.00    +0.000 A 
ATOM     28  C   UNL     1       8.041   6.988  18.562  0.00  0.00    +0.000 A 
ATOM     29  C   UNL     1       7.519   7.279  17.307  0.00  0.00    +0.000 A 
ATOM     30  C   UNL     1       6.855   6.286  16.600  0.00  0.00    +0.000 A 
ATOM     31  C   UNL     1       6.736   5.025  17.171  0.00  0.00    +0.000 A 
ATOM     32  N   UNL     1       7.240   4.721  18.394  0.00  0.00    +0.000 NA
ENDBRANCH  25  31
ENDBRANCH  24  25
ENDBRANCH  23  24
ENDBRANCH   1  23
TORSDOF 7
ENDMDL
MODEL 6
REMARK VINA RESULT:      -8.4      3.603      8.758
REMARK  Name = 
REMARK  9 active torsions:
REMARK  status: ('A' for Active; 'I' for Inactive)
REMARK    1  A    between atoms: C_1  and  C_2
REMARK    2  A    between atoms: C_6  and  C_7
REMARK    3  A    between atoms: C_7  and  C_8
REMARK    4  A    between atoms: C_8  and  O_9
REMARK    5  A    between atoms: O_9  and  C_10
REMARK    6  A    between atoms: C_13  and  C_14
REMARK    7  A    between atoms: N_20  and  C_21
REMARK    8  A    between atoms: C_22  and  C_23
REMARK    9  A    between atoms: C_27  and  C_28
REMARK                            x       y       z     vdW  Elec       q    Type
REMARK                         _______ _______ _______ _____ _____    ______ ____
ROOT
ATOM      1  C   UNL     1       0.905  10.436  19.609  0.00  0.00    +0.000 A 
ATOM      2  C   UNL     1       1.397  10.308  18.299  0.00  0.00    +0.000 A 
ATOM      3  C   UNL     1       2.004   9.155  17.816  0.00  0.00    +0.000 A 
ATOM      4  C   UNL     1       2.192   8.050  18.646  0.00  0.00    +0.000 A 
ATOM      5  C   UNL     1       1.699   8.177  19.975  0.00  0.00    +0.000 A 
ATOM      6  C   UNL     1       1.055   9.346  20.477  0.00  0.00    +0.000 A 
ENDROOT
BRANCH   4   7
ATOM      7  C   UNL     1       2.926   6.842  18.187  0.00  0.00    +0.000 A 
ATOM      8  C   UNL     1       4.188   6.826  17.533  0.00  0.00    +0.000 A 
ATOM      9  C   UNL     1       4.673   5.558  17.129  0.00  0.00    +0.000 A 
ATOM     10  C   UNL     1       3.912   4.407  17.376  0.00  0.00    +0.000 A 
ATOM     11  N   UNL     1       4.456   3.297  16.789  0.00  0.00    +0.000 NA
ATOM     12  C   UNL     1       5.480   3.749  16.120  0.00  0.00    +0.000 A 
ATOM     13  N   UNL     1       5.760   5.046  16.456  0.00  0.00    +0.000 N 
ATOM     14  C   UNL     1       7.071   5.585  16.165  0.00  0.00    +0.000 C 
ATOM     15  C   UNL     1       2.711   4.519  18.067  0.00  0.00    +0.000 A 
ATOM     16  N   UNL     1       2.235   5.714  18.467  0.00  0.00    +0.000 NA
BRANCH  15  17
ATOM     17  C   UNL     1       1.880   3.385  18.156  0.00  0.00    +0.000 C 
ATOM     18  N   UNL     1       1.232   2.416  18.221  0.00  0.00    +0.000 NA
ENDBRANCH  15  17
ENDBRANCH   4   7
BRANCH   6  19
ATOM     19  C   UNL     1       0.569   9.316  21.912  0.00  0.00    +0.000 C 
ATOM     20  F   UNL     1       1.439   8.816  22.831  0.00  0.00    +0.000 F 
ATOM     21  F   UNL     1       0.238  10.564  22.366  0.00  0.00    +0.000 F 
ATOM     22  F   UNL     1      -0.573   8.578  22.059  0.00  0.00    +0.000 F 
ENDBRANCH   6  19
BRANCH   1  23
ATOM     23  O   UNL     1       0.304  11.596  20.047  0.00  0.00    +0.000 OA
BRANCH  23  24
ATOM     24  C   UNL     1      -1.066  11.750  19.619  0.00  0.00    +0.000 C 
BRANCH  24  25
ATOM     25  C   UNL     1      -1.741  10.455  19.192  0.00  0.00    +0.000 C 
BRANCH  25  31
ATOM     26  C   UNL     1      -5.630  12.344  16.928  0.00  0.00    +0.000 C 
ATOM     27  C   UNL     1      -4.389  11.506  16.848  0.00  0.00    +0.000 A 
ATOM     28  C   UNL     1      -4.018  10.912  15.647  0.00  0.00    +0.000 A 
ATOM     29  C   UNL     1      -2.864  10.138  15.610  0.00  0.00    +0.000 A 
ATOM     30  C   UNL     1      -2.114   9.980  16.767  0.00  0.00    +0.000 A 
ATOM     31  C   UNL     1      -2.542  10.606  17.931  0.00  0.00    +0.000 A 
ATOM     32  N   UNL     1      -3.665  11.367  17.987  0.00  0.00    +0.000 NA
ENDBRANCH  25  31
ENDBRANCH  24  25
ENDBRANCH  23  24
ENDBRANCH   1  23
TORSDOF 7
ENDMDL
MODEL 7
REMARK VINA RESULT:      -8.3      1.870      3.082
REMARK  Name = 
REMARK  9 active torsions:
REMARK  status: ('A' for Active; 'I' for Inactive)
REMARK    1  A    between atoms: C_1  and  C_2
REMARK    2  A    between atoms: C_6  and  C_7
REMARK    3  A    between atoms: C_7  and  C_8
REMARK    4  A    between atoms: C_8  and  O_9
REMARK    5  A    between atoms: O_9  and  C_10
REMARK    6  A    between atoms: C_13  and  C_14
REMARK    7  A    between atoms: N_20  and  C_21
REMARK    8  A    between atoms: C_22  and  C_23
REMARK    9  A    between atoms: C_27  and  C_28
REMARK                            x       y       z     vdW  Elec       q    Type
REMARK                         _______ _______ _______ _____ _____    ______ ____
ROOT
ATOM      1  C   UNL     1       3.712   5.194  18.103  0.00  0.00    +0.000 A 
ATOM      2  C   UNL     1       3.838   6.474  17.539  0.00  0.00    +0.000 A 
ATOM      3  C   UNL     1       3.157   7.591  18.008  0.00  0.00    +0.000 A 
ATOM      4  C   UNL     1       2.262   7.481  19.072  0.00  0.00    +0.000 A 
ATOM      5  C   UNL     1       2.127   6.185  19.644  0.00  0.00    +0.000 A 
ATOM      6  C   UNL     1       2.837   5.035  19.186  0.00  0.00    +0.000 A 
ENDROOT
BRANCH   4   7
ATOM      7  C   UNL     1       1.445   8.636  19.530  0.00  0.00    +0.000 A 
ATOM      8  C   UNL     1       1.013   9.727  18.729  0.00  0.00    +0.000 A 
ATOM      9  C   UNL     1       0.294  10.752  19.393  0.00  0.00    +0.000 A 
ATOM     10  C   UNL     1       0.050  10.654  20.770  0.00  0.00    +0.000 A 
ATOM     11  N   UNL     1      -0.521  11.792  21.271  0.00  0.00    +0.000 NA
ATOM     12  C   UNL     1      -0.555  12.614  20.259  0.00  0.00    +0.000 A 
ATOM     13  N   UNL     1      -0.269  11.971  19.086  0.00  0.00    +0.000 N 
ATOM     14  C   UNL     1      -0.660  12.577  17.832  0.00  0.00    +0.000 C 
ATOM     15  C   UNL     1       0.471   9.523  21.459  0.00  0.00    +0.000 A 
ATOM     16  N   UNL     1       1.149   8.534  20.846  0.00  0.00    +0.000 NA
BRANCH  15  17
ATOM     17  C   UNL     1       0.371   9.517  22.864  0.00  0.00    +0.000 C 
ATOM     18  N   UNL     1       0.323   9.549  24.030  0.00  0.00    +0.000 NA
ENDBRANCH  15  17
ENDBRANCH   4   7
BRANCH   6  19
ATOM     19  C   UNL     1       2.598   3.729  19.916  0.00  0.00    +0.000 C 
ATOM     20  F   UNL     1       2.190   2.680  19.151  0.00  0.00    +0.000 F 
ATOM     21  F   UNL     1       3.721   3.291  20.563  0.00  0.00    +0.000 F 
ATOM     22  F   UNL     1       1.654   3.847  20.898  0.00  0.00    +0.000 F 
ENDBRANCH   6  19
BRANCH   1  23
ATOM     23  O   UNL     1       4.411   4.112  17.611  0.00  0.00    +0.000 OA
BRANCH  23  24
ATOM     24  C   UNL     1       4.754   4.216  16.213  0.00  0.00    +0.000 C 
BRANCH  24  25
ATOM     25  C   UNL     1       6.228   4.481  15.947  0.00  0.00    +0.000 C 
BRANCH  25  31
ATOM     26  C   UNL     1       5.484   2.438  11.577  0.00  0.00    +0.000 C 
ATOM     27  C   UNL     1       6.223   3.447  12.405  0.00  0.00    +0.000 A 
ATOM     28  C   UNL     1       7.176   4.273  11.821  0.00  0.00    +0.000 A 
ATOM     29  C   UNL     1       7.845   5.194  12.619  0.00  0.00    +0.000 A 
ATOM     30  C   UNL     1       7.544   5.267  13.972  0.00  0.00    +0.000 A 
ATOM     31  C   UNL     1       6.576   4.414  14.487  0.00  0.00    +0.000 A 
ATOM     32  N   UNL     1       5.911   3.509  13.724  0.00  0.00    +0.000 NA
ENDBRANCH  25  31
ENDBRANCH  24  25
ENDBRANCH  23  24
ENDBRANCH   1  23
TORSDOF 7
ENDMDL
MODEL 8
REMARK VINA RESULT:      -8.2      3.780      8.584
REMARK  Name = 
REMARK  9 active torsions:
REMARK  status: ('A' for Active; 'I' for Inactive)
REMARK    1  A    between atoms: C_1  and  C_2
REMARK    2  A    between atoms: C_6  and  C_7
REMARK    3  A    between atoms: C_7  and  C_8
REMARK    4  A    between atoms: C_8  and  O_9
REMARK    5  A    between atoms: O_9  and  C_10
REMARK    6  A    between atoms: C_13  and  C_14
REMARK    7  A    between atoms: N_20  and  C_21
REMARK    8  A    between atoms: C_22  and  C_23
REMARK    9  A    between atoms: C_27  and  C_28
REMARK                            x       y       z     vdW  Elec       q    Type
REMARK                         _______ _______ _______ _____ _____    ______ ____
ROOT
ATOM      1  C   UNL     1       0.797  10.337  20.189  0.00  0.00    +0.000 A 
ATOM      2  C   UNL     1       1.365   9.972  18.957  0.00  0.00    +0.000 A 
ATOM      3  C   UNL     1       1.843   8.697  18.680  0.00  0.00    +0.000 A 
ATOM      4  C   UNL     1       1.813   7.700  19.654  0.00  0.00    +0.000 A 
ATOM      5  C   UNL     1       1.242   8.066  20.905  0.00  0.00    +0.000 A 
ATOM      6  C   UNL     1       0.728   9.365  21.196  0.00  0.00    +0.000 A 
ENDROOT
BRANCH   4   7
ATOM      7  C   UNL     1       2.407   6.358  19.420  0.00  0.00    +0.000 A 
ATOM      8  C   UNL     1       3.142   5.956  18.271  0.00  0.00    +0.000 A 
ATOM      9  C   UNL     1       3.564   4.604  18.233  0.00  0.00    +0.000 A 
ATOM     10  C   UNL     1       3.245   3.743  19.292  0.00  0.00    +0.000 A 
ATOM     11  N   UNL     1       3.596   2.448  19.024  0.00  0.00    +0.000 NA
ATOM     12  C   UNL     1       4.043   2.477  17.799  0.00  0.00    +0.000 A 
ATOM     13  N   UNL     1       4.227   3.763  17.367  0.00  0.00    +0.000 N 
ATOM     14  C   UNL     1       5.092   4.012  16.235  0.00  0.00    +0.000 C 
ATOM     15  C   UNL     1       2.564   4.242  20.396  0.00  0.00    +0.000 A 
ATOM     16  N   UNL     1       2.160   5.525  20.456  0.00  0.00    +0.000 NA
BRANCH  15  17
ATOM     17  C   UNL     1       2.103   3.332  21.368  0.00  0.00    +0.000 C 
ATOM     18  N   UNL     1       1.674   2.591  22.162  0.00  0.00    +0.000 NA
ENDBRANCH  15  17
ENDBRANCH   4   7
BRANCH   6  19
ATOM     19  C   UNL     1       0.134   9.590  22.571  0.00  0.00    +0.000 C 
ATOM     20  F   UNL     1      -0.349  10.838  22.820  0.00  0.00    +0.000 F 
ATOM     21  F   UNL     1      -0.909   8.741  22.824  0.00  0.00    +0.000 F 
ATOM     22  F   UNL     1       1.032   9.346  23.573  0.00  0.00    +0.000 F 
ENDBRANCH   6  19
BRANCH   1  23
ATOM     23  O   UNL     1       0.328  11.613  20.422  0.00  0.00    +0.000 OA
BRANCH  23  24
ATOM     24  C   UNL     1       0.819  12.603  19.494  0.00  0.00    +0.000 C 
BRANCH  24  25
ATOM     25  C   UNL     1      -0.269  13.404  18.796  0.00  0.00    +0.000 C 
BRANCH  25  31
ATOM     26  C   UNL     1      -2.676  10.207  16.002  0.00  0.00    +0.000 C 
ATOM     27  C   UNL     1      -2.661  11.076  17.224  0.00  0.00    +0.000 A 
ATOM     28  C   UNL     1      -3.761  11.113  18.074  0.00  0.00    +0.000 A 
ATOM     29  C   UNL     1      -3.715  11.933  19.196  0.00  0.00    +0.000 A 
ATOM     30  C   UNL     1      -2.576  12.689  19.438  0.00  0.00    +0.000 A 
ATOM     31  C   UNL     1      -1.513  12.600  18.548  0.00  0.00    +0.000 A 
ATOM     32  N   UNL     1      -1.538  11.804  17.449  0.00  0.00    +0.000 NA
ENDBRANCH  25  31
ENDBRANCH  24  25
ENDBRANCH  23  24
ENDBRANCH   1  23
TORSDOF 7
ENDMDL
MODEL 9
REMARK VINA RESULT:      -8.2      3.829      8.694
REMARK  Name = 
REMARK  9 active torsions:
REMARK  status: ('A' for Active; 'I' for Inactive)
REMARK    1  A    between atoms: C_1  and  C_2
REMARK    2  A    between atoms: C_6  and  C_7
REMARK    3  A    between atoms: C_7  and  C_8
REMARK    4  A    between atoms: C_8  and  O_9
REMARK    5  A    between atoms: O_9  and  C_10
REMARK    6  A    between atoms: C_13  and  C_14
REMARK    7  A    between atoms: N_20  and  C_21
REMARK    8  A    between atoms: C_22  and  C_23
REMARK    9  A    between atoms: C_27  and  C_28
REMARK                            x       y       z     vdW  Elec       q    Type
REMARK                         _______ _______ _______ _____ _____    ______ ____
ROOT
ATOM      1  C   UNL     1       1.009  10.417  19.579  0.00  0.00    +0.000 A 
ATOM      2  C   UNL     1       1.563   9.967  18.368  0.00  0.00    +0.000 A 
ATOM      3  C   UNL     1       2.047   8.679  18.176  0.00  0.00    +0.000 A 
ATOM      4  C   UNL     1       2.039   7.755  19.220  0.00  0.00    +0.000 A 
ATOM      5  C   UNL     1       1.483   8.207  20.450  0.00  0.00    +0.000 A 
ATOM      6  C   UNL     1       0.963   9.519  20.654  0.00  0.00    +0.000 A 
ENDROOT
BRANCH   4   7
ATOM      7  C   UNL     1       2.640   6.403  19.075  0.00  0.00    +0.000 A 
ATOM      8  C   UNL     1       3.391   5.936  17.962  0.00  0.00    +0.000 A 
ATOM      9  C   UNL     1       3.818   4.585  18.011  0.00  0.00    +0.000 A 
ATOM     10  C   UNL     1       3.488   3.789  19.115  0.00  0.00    +0.000 A 
ATOM     11  N   UNL     1       3.847   2.481  18.929  0.00  0.00    +0.000 NA
ATOM     12  C   UNL     1       4.309   2.439  17.711  0.00  0.00    +0.000 A 
ATOM     13  N   UNL     1       4.494   3.697  17.205  0.00  0.00    +0.000 N 
ATOM     14  C   UNL     1       5.373   3.881  16.070  0.00  0.00    +0.000 C 
ATOM     15  C   UNL     1       2.791   4.351  20.179  0.00  0.00    +0.000 A 
ATOM     16  N   UNL     1       2.383   5.634  20.156  0.00  0.00    +0.000 NA
BRANCH  15  17
ATOM     17  C   UNL     1       2.321   3.499  21.198  0.00  0.00    +0.000 C 
ATOM     18  N   UNL     1       1.908   2.833  22.063  0.00  0.00    +0.000 NA
ENDBRANCH  15  17
ENDBRANCH   4   7
BRANCH   6  19
ATOM     19  C   UNL     1       0.387   9.839  22.018  0.00  0.00    +0.000 C 
ATOM     20  F   UNL     1       0.292  11.159  22.336  0.00  0.00    +0.000 F 
ATOM     21  F   UNL     1      -0.877   9.338  22.171  0.00  0.00    +0.000 F 
ATOM     22  F   UNL     1       1.110   9.277  23.034  0.00  0.00    +0.000 F 
ENDBRANCH   6  19
BRANCH   1  23
ATOM     23  O   UNL     1       0.534  11.702  19.726  0.00  0.00    +0.000 OA
BRANCH  23  24
ATOM     24  C   UNL     1      -0.877  11.845  19.461  0.00  0.00    +0.000 C 
BRANCH  24  25
ATOM     25  C   UNL     1      -1.560  10.571  18.986  0.00  0.00    +0.000 C 
BRANCH  25  31
ATOM     26  C   UNL     1      -2.974  10.015  14.347  0.00  0.00    +0.000 C 
ATOM     27  C   UNL     1      -3.265  10.561  15.714  0.00  0.00    +0.000 A 
ATOM     28  C   UNL     1      -4.440  11.263  15.954  0.00  0.00    +0.000 A 
ATOM     29  C   UNL     1      -4.676  11.759  17.231  0.00  0.00    +0.000 A 
ATOM     30  C   UNL     1      -3.736  11.541  18.230  0.00  0.00    +0.000 A 
ATOM     31  C   UNL     1      -2.585  10.826  17.919  0.00  0.00    +0.000 A 
ATOM     32  N   UNL     1      -2.338  10.332  16.678  0.00  0.00    +0.000 NA
ENDBRANCH  25  31
ENDBRANCH  24  25
ENDBRANCH  23  24
ENDBRANCH   1  23
TORSDOF 7
ENDMDL
