MODEL 1
REMARK VINA RESULT:      -7.4      0.000      0.000
REMARK  Name = 
REMARK  7 active torsions:
REMARK  status: ('A' for Active; 'I' for Inactive)
REMARK    1  A    between atoms: C_1  and  O_2
REMARK    2  A    between atoms: O_2  and  C_3
REMARK    3  A    between atoms: N_10  and  C_11
REMARK    4  A    between atoms: C_11  and  C_12
REMARK    5  A    between atoms: C_12  and  C_14
REMARK    6  A    between atoms: C_14  and  C_15
REMARK    7  A    between atoms: C_20  and  O_21
REMARK                            x       y       z     vdW  Elec       q    Type
REMARK                         _______ _______ _______ _____ _____    ______ ____
ROOT
ATOM      1  C   UNL     1       6.222   3.658  12.663  0.00  0.00    +0.000 A 
ATOM      2  C   UNL     1       7.192   4.255  11.844  0.00  0.00    +0.000 A 
ATOM      3  C   UNL     1       8.030   5.252  12.347  0.00  0.00    +0.000 A 
ATOM      4  C   UNL     1       7.910   5.660  13.671  0.00  0.00    +0.000 A 
ATOM      5  C   UNL     1       6.958   5.053  14.496  0.00  0.00    +0.000 A 
ATOM      6  C   UNL     1       6.864   5.419  15.924  0.00  0.00    +0.000 A 
ATOM      7  O   UNL     1       7.590   6.293  16.389  0.00  0.00    +0.000 OA
ATOM      8  N   UNL     1       5.960   4.689  16.678  0.00  0.00    +0.000 N 
ATOM      9  C   UNL     1       5.140   3.756  16.094  0.00  0.00    +0.000 A 
ATOM     10  N   UNL     1       5.162   3.426  14.852  0.00  0.00    +0.000 NA
ATOM     11  C   UNL     1       6.107   4.051  14.013  0.00  0.00    +0.000 A 
ENDROOT
BRANCH   1  13
ATOM     12  C   UNL     1       4.334   3.041  11.333  0.00  0.00    +0.000 C 
ATOM     13  O   UNL     1       5.358   2.675  12.246  0.00  0.00    +0.000 OA
ENDBRANCH   1  13
BRANCH   8  14
ATOM     14  C   UNL     1       5.894   4.911  18.110  0.00  0.00    +0.000 C 
BRANCH  14  15
ATOM     15  C   UNL     1       4.620   5.654  18.499  0.00  0.00    +0.000 C 
ATOM     16  O   UNL     1       4.270   6.708  17.967  0.00  0.00    +0.000 OA
BRANCH  15  17
ATOM     17  C   UNL     1       3.761   5.020  19.577  0.00  0.00    +0.000 C 
BRANCH  17  18
ATOM     18  C   UNL     1       3.124   3.695  19.139  0.00  0.00    +0.000 C 
ATOM     19  N   UNL     1       3.409   2.549  20.027  0.00  0.00    +0.000 NA
ATOM     20  C   UNL     1       2.784   2.682  21.348  0.00  0.00    +0.000 C 
ATOM     21  C   UNL     1       1.268   2.837  21.252  0.00  0.00    +0.000 C 
ATOM     22  C   UNL     1       0.859   3.953  20.290  0.00  0.00    +0.000 C 
ATOM     23  C   UNL     1       1.592   3.830  18.954  0.00  0.00    +0.000 C 
ATOM     24  H   UNL     1       4.414   2.424  20.158  0.00  0.00    +0.000 HD
BRANCH  23  25
ATOM     25  O   UNL     1       1.116   2.662  18.274  0.00  0.00    +0.000 OA
ATOM     26  H   UNL     1       0.595   2.168  18.940  0.00  0.00    +0.000 HD
ENDBRANCH  23  25
ENDBRANCH  17  18
ENDBRANCH  15  17
ENDBRANCH  14  15
ENDBRANCH   8  14
TORSDOF 6
ENDMDL
MODEL 2
REMARK VINA RESULT:      -7.2      3.651      7.720
REMARK  Name = 
REMARK  7 active torsions:
REMARK  status: ('A' for Active; 'I' for Inactive)
REMARK    1  A    between atoms: C_1  and  O_2
REMARK    2  A    between atoms: O_2  and  C_3
REMARK    3  A    between atoms: N_10  and  C_11
REMARK    4  A    between atoms: C_11  and  C_12
REMARK    5  A    between atoms: C_12  and  C_14
REMARK    6  A    between atoms: C_14  and  C_15
REMARK    7  A    between atoms: C_20  and  O_21
REMARK                            x       y       z     vdW  Elec       q    Type
REMARK                         _______ _______ _______ _____ _____    ______ ____
ROOT
ATOM      1  C   UNL     1       0.972   9.384  20.590  0.00  0.00    +0.000 A 
ATOM      2  C   UNL     1       0.966  10.470  19.703  0.00  0.00    +0.000 A 
ATOM      3  C   UNL     1       1.475  10.334  18.411  0.00  0.00    +0.000 A 
ATOM      4  C   UNL     1       1.991   9.112  17.990  0.00  0.00    +0.000 A 
ATOM      5  C   UNL     1       1.979   8.021  18.865  0.00  0.00    +0.000 A 
ATOM      6  C   UNL     1       2.453   6.697  18.415  0.00  0.00    +0.000 A 
ATOM      7  O   UNL     1       2.905   6.552  17.282  0.00  0.00    +0.000 OA
ATOM      8  N   UNL     1       2.305   5.660  19.321  0.00  0.00    +0.000 N 
ATOM      9  C   UNL     1       1.838   5.890  20.591  0.00  0.00    +0.000 A 
ATOM     10  N   UNL     1       1.444   7.029  21.040  0.00  0.00    +0.000 NA
ATOM     11  C   UNL     1       1.474   8.135  20.166  0.00  0.00    +0.000 A 
ENDROOT
BRANCH   1  13
ATOM     12  C   UNL     1      -0.468  10.433  22.184  0.00  0.00    +0.000 C 
ATOM     13  O   UNL     1       0.495   9.435  21.878  0.00  0.00    +0.000 OA
ENDBRANCH   1  13
BRANCH   8  14
ATOM     14  C   UNL     1       2.640   4.309  18.911  0.00  0.00    +0.000 C 
BRANCH  14  15
ATOM     15  C   UNL     1       4.015   3.897  19.426  0.00  0.00    +0.000 C 
ATOM     16  O   UNL     1       4.240   2.794  19.927  0.00  0.00    +0.000 OA
BRANCH  15  17
ATOM     17  C   UNL     1       5.135   4.909  19.273  0.00  0.00    +0.000 C 
BRANCH  17  18
ATOM     18  C   UNL     1       5.964   4.703  17.999  0.00  0.00    +0.000 C 
ATOM     19  N   UNL     1       5.703   5.687  16.926  0.00  0.00    +0.000 NA
ATOM     20  C   UNL     1       6.145   7.041  17.276  0.00  0.00    +0.000 C 
ATOM     21  C   UNL     1       7.634   7.092  17.607  0.00  0.00    +0.000 C 
ATOM     22  C   UNL     1       8.029   6.053  18.657  0.00  0.00    +0.000 C 
ATOM     23  C   UNL     1       7.482   4.670  18.303  0.00  0.00    +0.000 C 
ATOM     24  H   UNL     1       4.709   5.722  16.692  0.00  0.00    +0.000 HD
BRANCH  23  25
ATOM     25  O   UNL     1       8.164   4.190  17.138  0.00  0.00    +0.000 OA
ATOM     26  H   UNL     1       8.061   4.896  16.467  0.00  0.00    +0.000 HD
ENDBRANCH  23  25
ENDBRANCH  17  18
ENDBRANCH  15  17
ENDBRANCH  14  15
ENDBRANCH   8  14
TORSDOF 6
ENDMDL
MODEL 3
REMARK VINA RESULT:      -7.1      6.156      8.429
REMARK  Name = 
REMARK  7 active torsions:
REMARK  status: ('A' for Active; 'I' for Inactive)
REMARK    1  A    between atoms: C_1  and  O_2
REMARK    2  A    between atoms: O_2  and  C_3
REMARK    3  A    between atoms: N_10  and  C_11
REMARK    4  A    between atoms: C_11  and  C_12
REMARK    5  A    between atoms: C_12  and  C_14
REMARK    6  A    between atoms: C_14  and  C_15
REMARK    7  A    between atoms: C_20  and  O_21
REMARK                            x       y       z     vdW  Elec       q    Type
REMARK                         _______ _______ _______ _____ _____    ______ ____
ROOT
ATOM      1  C   UNL     1       2.630   4.793  20.231  0.00  0.00    +0.000 A 
ATOM      2  C   UNL     1       3.359   4.073  19.274  0.00  0.00    +0.000 A 
ATOM      3  C   UNL     1       3.670   4.646  18.039  0.00  0.00    +0.000 A 
ATOM      4  C   UNL     1       3.260   5.944  17.751  0.00  0.00    +0.000 A 
ATOM      5  C   UNL     1       2.550   6.672  18.712  0.00  0.00    +0.000 A 
ATOM      6  C   UNL     1       2.169   8.076  18.454  0.00  0.00    +0.000 A 
ATOM      7  O   UNL     1       2.432   8.602  17.376  0.00  0.00    +0.000 OA
ATOM      8  N   UNL     1       1.561   8.740  19.506  0.00  0.00    +0.000 N 
ATOM      9  C   UNL     1       1.248   8.087  20.671  0.00  0.00    +0.000 A 
ATOM     10  N   UNL     1       1.530   6.859  20.930  0.00  0.00    +0.000 NA
ATOM     11  C   UNL     1       2.227   6.116  19.955  0.00  0.00    +0.000 A 
ENDROOT
BRANCH   1  13
ATOM     12  C   UNL     1       2.122   2.896  21.594  0.00  0.00    +0.000 C 
ATOM     13  O   UNL     1       2.280   4.301  21.466  0.00  0.00    +0.000 OA
ENDBRANCH   1  13
BRANCH   8  14
ATOM     14  C   UNL     1       1.262  10.154  19.369  0.00  0.00    +0.000 C 
BRANCH  14  15
ATOM     15  C   UNL     1      -0.228  10.427  19.548  0.00  0.00    +0.000 C 
ATOM     16  O   UNL     1      -0.721  10.773  20.623  0.00  0.00    +0.000 OA
BRANCH  15  17
ATOM     17  C   UNL     1      -1.103  10.280  18.318  0.00  0.00    +0.000 C 
BRANCH  17  18
ATOM     18  C   UNL     1      -1.978  11.511  18.049  0.00  0.00    +0.000 C 
ATOM     19  N   UNL     1      -2.035  11.931  16.633  0.00  0.00    +0.000 NA
ATOM     20  C   UNL     1      -2.728  10.961  15.778  0.00  0.00    +0.000 C 
ATOM     21  C   UNL     1      -4.157  10.700  16.249  0.00  0.00    +0.000 C 
ATOM     22  C   UNL     1      -4.220  10.332  17.732  0.00  0.00    +0.000 C 
ATOM     23  C   UNL     1      -3.418  11.317  18.583  0.00  0.00    +0.000 C 
ATOM     24  H   UNL     1      -1.098  12.081  16.254  0.00  0.00    +0.000 HD
BRANCH  23  25
ATOM     25  O   UNL     1      -4.080  12.588  18.562  0.00  0.00    +0.000 OA
ATOM     26  H   UNL     1      -3.488  13.197  19.049  0.00  0.00    +0.000 HD
ENDBRANCH  23  25
ENDBRANCH  17  18
ENDBRANCH  15  17
ENDBRANCH  14  15
ENDBRANCH   8  14
TORSDOF 6
ENDMDL
MODEL 4
REMARK VINA RESULT:      -7.1      1.072      1.387
REMARK  Name = 
REMARK  7 active torsions:
REMARK  status: ('A' for Active; 'I' for Inactive)
REMARK    1  A    between atoms: C_1  and  O_2
REMARK    2  A    between atoms: O_2  and  C_3
REMARK    3  A    between atoms: N_10  and  C_11
REMARK    4  A    between atoms: C_11  and  C_12
REMARK    5  A    between atoms: C_12  and  C_14
REMARK    6  A    between atoms: C_14  and  C_15
REMARK    7  A    between atoms: C_20  and  O_21
REMARK                            x       y       z     vdW  Elec       q    Type
REMARK                         _______ _______ _______ _____ _____    ______ ____
ROOT
ATOM      1  C   UNL     1       6.183   3.636  12.678  0.00  0.00    +0.000 A 
ATOM      2  C   UNL     1       7.110   4.242  11.818  0.00  0.00    +0.000 A 
ATOM      3  C   UNL     1       7.954   5.253  12.282  0.00  0.00    +0.000 A 
ATOM      4  C   UNL     1       7.883   5.664  13.609  0.00  0.00    +0.000 A 
ATOM      5  C   UNL     1       6.975   5.047  14.475  0.00  0.00    +0.000 A 
ATOM      6  C   UNL     1       6.935   5.416  15.904  0.00  0.00    +0.000 A 
ATOM      7  O   UNL     1       7.668   6.302  16.336  0.00  0.00    +0.000 OA
ATOM      8  N   UNL     1       6.073   4.677  16.697  0.00  0.00    +0.000 N 
ATOM      9  C   UNL     1       5.242   3.732  16.150  0.00  0.00    +0.000 A 
ATOM     10  N   UNL     1       5.218   3.397  14.909  0.00  0.00    +0.000 NA
ATOM     11  C   UNL     1       6.118   4.032  14.030  0.00  0.00    +0.000 A 
ENDROOT
BRANCH   1  13
ATOM     12  C   UNL     1       4.333   2.957  11.325  0.00  0.00    +0.000 C 
ATOM     13  O   UNL     1       5.316   2.640  12.299  0.00  0.00    +0.000 OA
ENDBRANCH   1  13
BRANCH   8  14
ATOM     14  C   UNL     1       6.063   4.904  18.130  0.00  0.00    +0.000 C 
BRANCH  14  15
ATOM     15  C   UNL     1       4.720   5.455  18.597  0.00  0.00    +0.000 C 
ATOM     16  O   UNL     1       4.239   6.503  18.163  0.00  0.00    +0.000 OA
BRANCH  15  17
ATOM     17  C   UNL     1       3.963   4.634  19.623  0.00  0.00    +0.000 C 
BRANCH  17  18
ATOM     18  C   UNL     1       2.439   4.754  19.487  0.00  0.00    +0.000 C 
ATOM     19  N   UNL     1       1.915   4.464  18.136  0.00  0.00    +0.000 NA
ATOM     20  C   UNL     1       2.073   3.056  17.753  0.00  0.00    +0.000 C 
ATOM     21  C   UNL     1       1.385   2.113  18.737  0.00  0.00    +0.000 C 
ATOM     22  C   UNL     1       1.799   2.382  20.184  0.00  0.00    +0.000 C 
ATOM     23  C   UNL     1       1.701   3.870  20.522  0.00  0.00    +0.000 C 
ATOM     24  H   UNL     1       2.373   5.043  17.429  0.00  0.00    +0.000 HD
BRANCH  23  25
ATOM     25  O   UNL     1       0.319   4.249  20.533  0.00  0.00    +0.000 OA
ATOM     26  H   UNL     1       0.035   4.222  19.596  0.00  0.00    +0.000 HD
ENDBRANCH  23  25
ENDBRANCH  17  18
ENDBRANCH  15  17
ENDBRANCH  14  15
ENDBRANCH   8  14
TORSDOF 6
ENDMDL
MODEL 5
REMARK VINA RESULT:      -7.0      1.570      2.413
REMARK  Name = 
REMARK  7 active torsions:
REMARK  status: ('A' for Active; 'I' for Inactive)
REMARK    1  A    between atoms: C_1  and  O_2
REMARK    2  A    between atoms: O_2  and  C_3
REMARK    3  A    between atoms: N_10  and  C_11
REMARK    4  A    between atoms: C_11  and  C_12
REMARK    5  A    between atoms: C_12  and  C_14
REMARK    6  A    between atoms: C_14  and  C_15
REMARK    7  A    between atoms: C_20  and  O_21
REMARK                            x       y       z     vdW  Elec       q    Type
REMARK                         _______ _______ _______ _____ _____    ______ ____
ROOT
ATOM      1  C   UNL     1       7.507   5.003  13.283  0.00  0.00    +0.000 A 
ATOM      2  C   UNL     1       6.908   4.208  12.296  0.00  0.00    +0.000 A 
ATOM      3  C   UNL     1       5.843   3.362  12.614  0.00  0.00    +0.000 A 
ATOM      4  C   UNL     1       5.365   3.307  13.920  0.00  0.00    +0.000 A 
ATOM      5  C   UNL     1       5.947   4.115  14.902  0.00  0.00    +0.000 A 
ATOM      6  C   UNL     1       5.406   4.126  16.276  0.00  0.00    +0.000 A 
ATOM      7  O   UNL     1       4.470   3.391  16.581  0.00  0.00    +0.000 OA
ATOM      8  N   UNL     1       5.985   5.034  17.147  0.00  0.00    +0.000 N 
ATOM      9  C   UNL     1       7.061   5.795  16.765  0.00  0.00    +0.000 A 
ATOM     10  N   UNL     1       7.587   5.798  15.592  0.00  0.00    +0.000 NA
ATOM     11  C   UNL     1       7.016   4.969  14.605  0.00  0.00    +0.000 A 
ENDROOT
BRANCH   1  13
ATOM     12  C   UNL     1       8.577   6.564  11.822  0.00  0.00    +0.000 C 
ATOM     13  O   UNL     1       8.559   5.857  13.053  0.00  0.00    +0.000 OA
ENDBRANCH   1  13
BRANCH   8  14
ATOM     14  C   UNL     1       5.432   5.185  18.480  0.00  0.00    +0.000 C 
BRANCH  14  15
ATOM     15  C   UNL     1       4.103   5.932  18.450  0.00  0.00    +0.000 C 
ATOM     16  O   UNL     1       3.820   6.762  17.585  0.00  0.00    +0.000 OA
BRANCH  15  17
ATOM     17  C   UNL     1       3.101   5.589  19.537  0.00  0.00    +0.000 C 
BRANCH  17  18
ATOM     18  C   UNL     1       2.284   4.327  19.228  0.00  0.00    +0.000 C 
ATOM     19  N   UNL     1       3.086   3.098  19.055  0.00  0.00    +0.000 NA
ATOM     20  C   UNL     1       3.732   2.659  20.297  0.00  0.00    +0.000 C 
ATOM     21  C   UNL     1       2.719   2.406  21.411  0.00  0.00    +0.000 C 
ATOM     22  C   UNL     1       1.780   3.595  21.621  0.00  0.00    +0.000 C 
ATOM     23  C   UNL     1       1.191   4.078  20.296  0.00  0.00    +0.000 C 
ATOM     24  H   UNL     1       3.809   3.226  18.344  0.00  0.00    +0.000 HD
BRANCH  23  25
ATOM     25  O   UNL     1       0.296   3.076  19.798  0.00  0.00    +0.000 OA
ATOM     26  H   UNL     1       0.716   2.735  18.982  0.00  0.00    +0.000 HD
ENDBRANCH  23  25
ENDBRANCH  17  18
ENDBRANCH  15  17
ENDBRANCH  14  15
ENDBRANCH   8  14
TORSDOF 6
ENDMDL
MODEL 6
REMARK VINA RESULT:      -7.0      4.443      7.742
REMARK  Name = 
REMARK  7 active torsions:
REMARK  status: ('A' for Active; 'I' for Inactive)
REMARK    1  A    between atoms: C_1  and  O_2
REMARK    2  A    between atoms: O_2  and  C_3
REMARK    3  A    between atoms: N_10  and  C_11
REMARK    4  A    between atoms: C_11  and  C_12
REMARK    5  A    between atoms: C_12  and  C_14
REMARK    6  A    between atoms: C_14  and  C_15
REMARK    7  A    between atoms: C_20  and  O_21
REMARK                            x       y       z     vdW  Elec       q    Type
REMARK                         _______ _______ _______ _____ _____    ______ ____
ROOT
ATOM      1  C   UNL     1      -0.232   9.733  21.209  0.00  0.00    +0.000 A 
ATOM      2  C   UNL     1      -0.900  10.924  20.888  0.00  0.00    +0.000 A 
ATOM      3  C   UNL     1      -0.602  11.609  19.709  0.00  0.00    +0.000 A 
ATOM      4  C   UNL     1       0.362  11.110  18.838  0.00  0.00    +0.000 A 
ATOM      5  C   UNL     1       1.014   9.912  19.145  0.00  0.00    +0.000 A 
ATOM      6  C   UNL     1       1.986   9.327  18.199  0.00  0.00    +0.000 A 
ATOM      7  O   UNL     1       2.264   9.912  17.155  0.00  0.00    +0.000 OA
ATOM      8  N   UNL     1       2.500   8.089  18.547  0.00  0.00    +0.000 N 
ATOM      9  C   UNL     1       2.190   7.506  19.750  0.00  0.00    +0.000 A 
ATOM     10  N   UNL     1       1.375   7.990  20.619  0.00  0.00    +0.000 NA
ATOM     11  C   UNL     1       0.731   9.209  20.322  0.00  0.00    +0.000 A 
ENDROOT
BRANCH   1  13
ATOM     12  C   UNL     1       0.051   9.506  23.571  0.00  0.00    +0.000 C 
ATOM     13  O   UNL     1      -0.464   9.001  22.348  0.00  0.00    +0.000 OA
ENDBRANCH   1  13
BRANCH   8  14
ATOM     14  C   UNL     1       3.371   7.399  17.615  0.00  0.00    +0.000 C 
BRANCH  14  15
ATOM     15  C   UNL     1       3.727   6.002  18.115  0.00  0.00    +0.000 C 
ATOM     16  O   UNL     1       4.790   5.744  18.681  0.00  0.00    +0.000 OA
BRANCH  15  17
ATOM     17  C   UNL     1       2.686   4.918  17.909  0.00  0.00    +0.000 C 
BRANCH  17  18
ATOM     18  C   UNL     1       3.095   3.568  18.512  0.00  0.00    +0.000 C 
ATOM     19  N   UNL     1       3.453   3.614  19.946  0.00  0.00    +0.000 NA
ATOM     20  C   UNL     1       2.307   3.918  20.810  0.00  0.00    +0.000 C 
ATOM     21  C   UNL     1       1.176   2.905  20.640  0.00  0.00    +0.000 C 
ATOM     22  C   UNL     1       0.779   2.721  19.175  0.00  0.00    +0.000 C 
ATOM     23  C   UNL     1       2.006   2.489  18.292  0.00  0.00    +0.000 C 
ATOM     24  H   UNL     1       4.182   4.308  20.122  0.00  0.00    +0.000 HD
BRANCH  23  25
ATOM     25  O   UNL     1       2.568   1.210  18.612  0.00  0.00    +0.000 OA
ATOM     26  H   UNL     1       1.806   0.597  18.662  0.00  0.00    +0.000 HD
ENDBRANCH  23  25
ENDBRANCH  17  18
ENDBRANCH  15  17
ENDBRANCH  14  15
ENDBRANCH   8  14
TORSDOF 6
ENDMDL
MODEL 7
REMARK VINA RESULT:      -7.0      4.780      8.030
REMARK  Name = 
REMARK  7 active torsions:
REMARK  status: ('A' for Active; 'I' for Inactive)
REMARK    1  A    between atoms: C_1  and  O_2
REMARK    2  A    between atoms: O_2  and  C_3
REMARK    3  A    between atoms: N_10  and  C_11
REMARK    4  A    between atoms: C_11  and  C_12
REMARK    5  A    between atoms: C_12  and  C_14
REMARK    6  A    between atoms: C_14  and  C_15
REMARK    7  A    between atoms: C_20  and  O_21
REMARK                            x       y       z     vdW  Elec       q    Type
REMARK                         _______ _______ _______ _____ _____    ______ ____
ROOT
ATOM      1  C   UNL     1       0.500  10.855  21.345  0.00  0.00    +0.000 A 
ATOM      2  C   UNL     1       0.221  12.101  20.767  0.00  0.00    +0.000 A 
ATOM      3  C   UNL     1       0.499  12.337  19.419  0.00  0.00    +0.000 A 
ATOM      4  C   UNL     1       1.054  11.329  18.636  0.00  0.00    +0.000 A 
ATOM      5  C   UNL     1       1.315  10.079  19.205  0.00  0.00    +0.000 A 
ATOM      6  C   UNL     1       1.835   8.974  18.375  0.00  0.00    +0.000 A 
ATOM      7  O   UNL     1       2.087   9.157  17.187  0.00  0.00    +0.000 OA
ATOM      8  N   UNL     1       1.962   7.749  19.008  0.00  0.00    +0.000 N 
ATOM      9  C   UNL     1       1.712   7.615  20.350  0.00  0.00    +0.000 A 
ATOM     10  N   UNL     1       1.288   8.553  21.121  0.00  0.00    +0.000 NA
ATOM     11  C   UNL     1       1.045   9.821  20.555  0.00  0.00    +0.000 A 
ENDROOT
BRANCH   1  13
ATOM     12  C   UNL     1      -1.046  10.774  23.166  0.00  0.00    +0.000 C 
ATOM     13  O   UNL     1       0.261  10.544  22.662  0.00  0.00    +0.000 OA
ENDBRANCH   1  13
BRANCH   8  14
ATOM     14  C   UNL     1       2.357   6.589  18.229  0.00  0.00    +0.000 C 
BRANCH  14  15
ATOM     15  C   UNL     1       3.867   6.378  18.273  0.00  0.00    +0.000 C 
ATOM     16  O   UNL     1       4.655   7.028  17.585  0.00  0.00    +0.000 OA
BRANCH  15  17
ATOM     17  C   UNL     1       4.382   5.327  19.239  0.00  0.00    +0.000 C 
BRANCH  17  18
ATOM     18  C   UNL     1       5.133   4.185  18.543  0.00  0.00    +0.000 C 
ATOM     19  N   UNL     1       5.305   2.967  19.364  0.00  0.00    +0.000 NA
ATOM     20  C   UNL     1       4.037   2.281  19.636  0.00  0.00    +0.000 C 
ATOM     21  C   UNL     1       3.313   1.883  18.353  0.00  0.00    +0.000 C 
ATOM     22  C   UNL     1       3.151   3.061  17.390  0.00  0.00    +0.000 C 
ATOM     23  C   UNL     1       4.473   3.803  17.195  0.00  0.00    +0.000 C 
ATOM     24  H   UNL     1       5.752   3.184  20.256  0.00  0.00    +0.000 HD
BRANCH  23  25
ATOM     25  O   UNL     1       5.376   2.953  16.477  0.00  0.00    +0.000 OA
ATOM     26  H   UNL     1       5.508   2.170  17.050  0.00  0.00    +0.000 HD
ENDBRANCH  23  25
ENDBRANCH  17  18
ENDBRANCH  15  17
ENDBRANCH  14  15
ENDBRANCH   8  14
TORSDOF 6
ENDMDL
MODEL 8
REMARK VINA RESULT:      -7.0      1.533      2.358
REMARK  Name = 
REMARK  7 active torsions:
REMARK  status: ('A' for Active; 'I' for Inactive)
REMARK    1  A    between atoms: C_1  and  O_2
REMARK    2  A    between atoms: O_2  and  C_3
REMARK    3  A    between atoms: N_10  and  C_11
REMARK    4  A    between atoms: C_11  and  C_12
REMARK    5  A    between atoms: C_12  and  C_14
REMARK    6  A    between atoms: C_14  and  C_15
REMARK    7  A    between atoms: C_20  and  O_21
REMARK                            x       y       z     vdW  Elec       q    Type
REMARK                         _______ _______ _______ _____ _____    ______ ____
ROOT
ATOM      1  C   UNL     1       7.572   5.030  13.200  0.00  0.00    +0.000 A 
ATOM      2  C   UNL     1       7.002   4.249  12.186  0.00  0.00    +0.000 A 
ATOM      3  C   UNL     1       5.918   3.411  12.458  0.00  0.00    +0.000 A 
ATOM      4  C   UNL     1       5.392   3.350  13.745  0.00  0.00    +0.000 A 
ATOM      5  C   UNL     1       5.945   4.145  14.754  0.00  0.00    +0.000 A 
ATOM      6  C   UNL     1       5.355   4.150  16.108  0.00  0.00    +0.000 A 
ATOM      7  O   UNL     1       4.402   3.423  16.372  0.00  0.00    +0.000 OA
ATOM      8  N   UNL     1       5.911   5.046  17.007  0.00  0.00    +0.000 N 
ATOM      9  C   UNL     1       7.007   5.800  16.670  0.00  0.00    +0.000 A 
ATOM     10  N   UNL     1       7.575   5.806  15.517  0.00  0.00    +0.000 NA
ATOM     11  C   UNL     1       7.033   4.990  14.503  0.00  0.00    +0.000 A 
ENDROOT
BRANCH   1  13
ATOM     12  C   UNL     1       8.674   6.644  11.823  0.00  0.00    +0.000 C 
ATOM     13  O   UNL     1       8.640   5.875  13.016  0.00  0.00    +0.000 OA
ENDBRANCH   1  13
BRANCH   8  14
ATOM     14  C   UNL     1       5.311   5.192  18.320  0.00  0.00    +0.000 C 
BRANCH  14  15
ATOM     15  C   UNL     1       3.967   5.909  18.241  0.00  0.00    +0.000 C 
ATOM     16  O   UNL     1       3.812   6.980  17.653  0.00  0.00    +0.000 OA
BRANCH  15  17
ATOM     17  C   UNL     1       2.789   5.227  18.910  0.00  0.00    +0.000 C 
BRANCH  17  18
ATOM     18  C   UNL     1       3.015   3.729  19.149  0.00  0.00    +0.000 C 
ATOM     19  N   UNL     1       3.405   3.375  20.530  0.00  0.00    +0.000 NA
ATOM     20  C   UNL     1       2.331   3.607  21.503  0.00  0.00    +0.000 C 
ATOM     21  C   UNL     1       1.066   2.825  21.157  0.00  0.00    +0.000 C 
ATOM     22  C   UNL     1       0.616   3.059  19.714  0.00  0.00    +0.000 C 
ATOM     23  C   UNL     1       1.779   2.890  18.737  0.00  0.00    +0.000 C 
ATOM     24  H   UNL     1       4.228   3.902  20.828  0.00  0.00    +0.000 HD
BRANCH  23  25
ATOM     25  O   UNL     1       2.162   1.510  18.710  0.00  0.00    +0.000 OA
ATOM     26  H   UNL     1       1.321   1.007  18.714  0.00  0.00    +0.000 HD
ENDBRANCH  23  25
ENDBRANCH  17  18
ENDBRANCH  15  17
ENDBRANCH  14  15
ENDBRANCH   8  14
TORSDOF 6
ENDMDL
MODEL 9
REMARK VINA RESULT:      -6.8      5.812      8.044
REMARK  Name = 
REMARK  7 active torsions:
REMARK  status: ('A' for Active; 'I' for Inactive)
REMARK    1  A    between atoms: C_1  and  O_2
REMARK    2  A    between atoms: O_2  and  C_3
REMARK    3  A    between atoms: N_10  and  C_11
REMARK    4  A    between atoms: C_11  and  C_12
REMARK    5  A    between atoms: C_12  and  C_14
REMARK    6  A    between atoms: C_14  and  C_15
REMARK    7  A    between atoms: C_20  and  O_21
REMARK                            x       y       z     vdW  Elec       q    Type
REMARK                         _______ _______ _______ _____ _____    ______ ____
ROOT
ATOM      1  C   UNL     1       2.650   4.621  20.190  0.00  0.00    +0.000 A 
ATOM      2  C   UNL     1       3.355   3.828  19.274  0.00  0.00    +0.000 A 
ATOM      3  C   UNL     1       3.704   4.330  18.019  0.00  0.00    +0.000 A 
ATOM      4  C   UNL     1       3.355   5.631  17.669  0.00  0.00    +0.000 A 
ATOM      5  C   UNL     1       2.671   6.432  18.588  0.00  0.00    +0.000 A 
ATOM      6  C   UNL     1       2.356   7.839  18.265  0.00  0.00    +0.000 A 
ATOM      7  O   UNL     1       2.653   8.304  17.168  0.00  0.00    +0.000 OA
ATOM      8  N   UNL     1       1.768   8.576  19.279  0.00  0.00    +0.000 N 
ATOM      9  C   UNL     1       1.415   7.990  20.468  0.00  0.00    +0.000 A 
ATOM     10  N   UNL     1       1.638   6.764  20.784  0.00  0.00    +0.000 NA
ATOM     11  C   UNL     1       2.310   5.948  19.851  0.00  0.00    +0.000 A 
ENDROOT
BRANCH   1  13
ATOM     12  C   UNL     1       1.606   2.948  21.541  0.00  0.00    +0.000 C 
ATOM     13  O   UNL     1       2.266   4.201  21.441  0.00  0.00    +0.000 OA
ENDBRANCH   1  13
BRANCH   8  14
ATOM     14  C   UNL     1       1.535   9.994  19.077  0.00  0.00    +0.000 C 
BRANCH  14  15
ATOM     15  C   UNL     1       0.055  10.289  18.859  0.00  0.00    +0.000 C 
ATOM     16  O   UNL     1      -0.574   9.877  17.883  0.00  0.00    +0.000 OA
BRANCH  15  17
ATOM     17  C   UNL     1      -0.643  11.109  19.927  0.00  0.00    +0.000 C 
BRANCH  17  18
ATOM     18  C   UNL     1       0.077  11.073  21.281  0.00  0.00    +0.000 C 
ATOM     19  N   UNL     1       0.736  12.340  21.665  0.00  0.00    +0.000 NA
ATOM     20  C   UNL     1      -0.220  13.419  21.937  0.00  0.00    +0.000 C 
ATOM     21  C   UNL     1      -1.204  13.048  23.044  0.00  0.00    +0.000 C 
ATOM     22  C   UNL     1      -1.889  11.706  22.783  0.00  0.00    +0.000 C 
ATOM     23  C   UNL     1      -0.871  10.625  22.422  0.00  0.00    +0.000 C 
ATOM     24  H   UNL     1       1.380  12.656  20.937  0.00  0.00    +0.000 HD
BRANCH  23  25
ATOM     25  O   UNL     1      -0.076  10.335  23.578  0.00  0.00    +0.000 OA
ATOM     26  H   UNL     1       0.236  11.204  23.904  0.00  0.00    +0.000 HD
ENDBRANCH  23  25
ENDBRANCH  17  18
ENDBRANCH  15  17
ENDBRANCH  14  15
ENDBRANCH   8  14
TORSDOF 6
ENDMDL
