MODEL 1
REMARK VINA RESULT:      -7.4      0.000      0.000
REMARK  Name = 
REMARK  7 active torsions:
REMARK  status: ('A' for Active; 'I' for Inactive)
REMARK    1  A    between atoms: C_1  and  O_2
REMARK    2  A    between atoms: O_2  and  C_3
REMARK    3  A    between atoms: C_5  and  O_6
REMARK    4  A    between atoms: O_6  and  C_7
REMARK    5  A    between atoms: C_9  and  C_10
REMARK    6  A    between atoms: C_12  and  N_13
REMARK    7  A    between atoms: C_14  and  C_15
REMARK                            x       y       z     vdW  Elec       q    Type
REMARK                         _______ _______ _______ _____ _____    ______ ____
ROOT
ATOM      1  C   UNL     1       5.172   5.203  16.178  0.00  0.00    +0.000 A 
ATOM      2  C   UNL     1       5.285   4.005  15.423  0.00  0.00    +0.000 A 
ATOM      3  C   UNL     1       6.186   4.265  14.424  0.00  0.00    +0.000 A 
ATOM      4  N   UNL     1       6.603   5.553  14.662  0.00  0.00    +0.000 N 
ATOM      5  N   UNL     1       6.027   6.129  15.726  0.00  0.00    +0.000 NA
ATOM      6  H   UNL     1       7.265   6.110  14.131  0.00  0.00    +0.000 HD
ENDROOT
BRANCH   1  11
ATOM      7  C   UNL     1       2.796   4.589  19.013  0.00  0.00    +0.000 A 
ATOM      8  C   UNL     1       2.357   5.890  19.268  0.00  0.00    +0.000 A 
ATOM      9  C   UNL     1       2.848   6.978  18.538  0.00  0.00    +0.000 A 
ATOM     10  C   UNL     1       3.796   6.759  17.538  0.00  0.00    +0.000 A 
ATOM     11  C   UNL     1       4.235   5.460  17.264  0.00  0.00    +0.000 A 
ATOM     12  C   UNL     1       3.742   4.380  18.015  0.00  0.00    +0.000 A 
BRANCH   7  14
ATOM     13  C   UNL     1       0.998   3.933  20.433  0.00  0.00    +0.000 C 
ATOM     14  O   UNL     1       2.220   3.612  19.778  0.00  0.00    +0.000 OA
ENDBRANCH   7  14
BRANCH   9  15
ATOM     15  O   UNL     1       2.315   8.189  18.880  0.00  0.00    +0.000 OA
ATOM     16  C   UNL     1       1.816   8.997  17.820  0.00  0.00    +0.000 C 
ENDBRANCH   9  15
ENDBRANCH   1  11
BRANCH   3  17
ATOM     17  N   UNL     1       6.632   3.497  13.369  0.00  0.00    +0.000 N 
ATOM     18  C   UNL     1       5.991   3.075  12.163  0.00  0.00    +0.000 C 
ATOM     19  C   UNL     1       4.590   3.380  11.764  0.00  0.00    +0.000 C 
ATOM     20  O   UNL     1       6.728   2.406  11.449  0.00  0.00    +0.000 OA
ATOM     21  H   UNL     1       7.589   3.158  13.402  0.00  0.00    +0.000 HD
ENDBRANCH   3  17
TORSDOF 4
ENDMDL
MODEL 2
REMARK VINA RESULT:      -7.3      1.892      3.516
REMARK  Name = 
REMARK  7 active torsions:
REMARK  status: ('A' for Active; 'I' for Inactive)
REMARK    1  A    between atoms: C_1  and  O_2
REMARK    2  A    between atoms: O_2  and  C_3
REMARK    3  A    between atoms: C_5  and  O_6
REMARK    4  A    between atoms: O_6  and  C_7
REMARK    5  A    between atoms: C_9  and  C_10
REMARK    6  A    between atoms: C_12  and  N_13
REMARK    7  A    between atoms: C_14  and  C_15
REMARK                            x       y       z     vdW  Elec       q    Type
REMARK                         _______ _______ _______ _____ _____    ______ ____
ROOT
ATOM      1  C   UNL     1       4.867   4.980  18.076  0.00  0.00    +0.000 A 
ATOM      2  C   UNL     1       5.163   5.486  16.782  0.00  0.00    +0.000 A 
ATOM      3  C   UNL     1       6.453   5.111  16.511  0.00  0.00    +0.000 A 
ATOM      4  N   UNL     1       6.832   4.365  17.601  0.00  0.00    +0.000 N 
ATOM      5  N   UNL     1       5.887   4.251  18.544  0.00  0.00    +0.000 NA
ATOM      6  H   UNL     1       7.726   3.918  17.778  0.00  0.00    +0.000 HD
ENDROOT
BRANCH   1  11
ATOM      7  C   UNL     1       2.144   6.837  19.864  0.00  0.00    +0.000 A 
ATOM      8  C   UNL     1       1.433   5.774  20.426  0.00  0.00    +0.000 A 
ATOM      9  C   UNL     1       1.819   4.448  20.208  0.00  0.00    +0.000 A 
ATOM     10  C   UNL     1       2.933   4.180  19.412  0.00  0.00    +0.000 A 
ATOM     11  C   UNL     1       3.661   5.236  18.853  0.00  0.00    +0.000 A 
ATOM     12  C   UNL     1       3.253   6.562  19.070  0.00  0.00    +0.000 A 
BRANCH   7  14
ATOM     13  C   UNL     1       1.181   8.288  21.492  0.00  0.00    +0.000 C 
ATOM     14  O   UNL     1       1.679   8.086  20.174  0.00  0.00    +0.000 OA
ENDBRANCH   7  14
BRANCH   9  15
ATOM     15  O   UNL     1       1.045   3.512  20.836  0.00  0.00    +0.000 OA
ATOM     16  C   UNL     1       1.714   2.590  21.690  0.00  0.00    +0.000 C 
ENDBRANCH   9  15
ENDBRANCH   1  11
BRANCH   3  17
ATOM     17  N   UNL     1       7.277   5.375  15.437  0.00  0.00    +0.000 N 
ATOM     18  C   UNL     1       7.250   4.920  14.082  0.00  0.00    +0.000 C 
ATOM     19  C   UNL     1       6.260   3.973  13.497  0.00  0.00    +0.000 C 
ATOM     20  O   UNL     1       8.154   5.397  13.407  0.00  0.00    +0.000 OA
ATOM     21  H   UNL     1       8.051   6.016  15.582  0.00  0.00    +0.000 HD
ENDBRANCH   3  17
TORSDOF 4
ENDMDL
MODEL 3
REMARK VINA RESULT:      -7.3      0.492      2.701
REMARK  Name = 
REMARK  7 active torsions:
REMARK  status: ('A' for Active; 'I' for Inactive)
REMARK    1  A    between atoms: C_1  and  O_2
REMARK    2  A    between atoms: O_2  and  C_3
REMARK    3  A    between atoms: C_5  and  O_6
REMARK    4  A    between atoms: O_6  and  C_7
REMARK    5  A    between atoms: C_9  and  C_10
REMARK    6  A    between atoms: C_12  and  N_13
REMARK    7  A    between atoms: C_14  and  C_15
REMARK                            x       y       z     vdW  Elec       q    Type
REMARK                         _______ _______ _______ _____ _____    ______ ____
ROOT
ATOM      1  C   UNL     1       5.114   5.169  16.292  0.00  0.00    +0.000 A 
ATOM      2  C   UNL     1       5.363   3.979  15.557  0.00  0.00    +0.000 A 
ATOM      3  C   UNL     1       6.159   4.341  14.501  0.00  0.00    +0.000 A 
ATOM      4  N   UNL     1       6.391   5.682  14.688  0.00  0.00    +0.000 N 
ATOM      5  N   UNL     1       5.795   6.198  15.771  0.00  0.00    +0.000 NA
ATOM      6  H   UNL     1       6.932   6.314  14.107  0.00  0.00    +0.000 HD
ENDROOT
BRANCH   1  11
ATOM      7  C   UNL     1       2.769   6.742  18.759  0.00  0.00    +0.000 A 
ATOM      8  C   UNL     1       2.571   5.678  19.641  0.00  0.00    +0.000 A 
ATOM      9  C   UNL     1       3.178   4.436  19.427  0.00  0.00    +0.000 A 
ATOM     10  C   UNL     1       3.994   4.255  18.310  0.00  0.00    +0.000 A 
ATOM     11  C   UNL     1       4.211   5.317  17.426  0.00  0.00    +0.000 A 
ATOM     12  C   UNL     1       3.584   6.554  17.647  0.00  0.00    +0.000 A 
BRANCH   7  14
ATOM     13  C   UNL     1       2.009   8.896  18.076  0.00  0.00    +0.000 C 
ATOM     14  O   UNL     1       2.141   7.910  19.094  0.00  0.00    +0.000 OA
ENDBRANCH   7  14
BRANCH   9  15
ATOM     15  O   UNL     1       2.913   3.493  20.382  0.00  0.00    +0.000 OA
ATOM     16  C   UNL     1       2.075   3.887  21.462  0.00  0.00    +0.000 C 
ENDBRANCH   9  15
ENDBRANCH   1  11
BRANCH   3  17
ATOM     17  N   UNL     1       6.655   3.616  13.438  0.00  0.00    +0.000 N 
ATOM     18  C   UNL     1       6.043   3.163  12.227  0.00  0.00    +0.000 C 
ATOM     19  C   UNL     1       4.623   3.374  11.833  0.00  0.00    +0.000 C 
ATOM     20  O   UNL     1       6.824   2.554  11.506  0.00  0.00    +0.000 OA
ATOM     21  H   UNL     1       7.633   3.344  13.466  0.00  0.00    +0.000 HD
ENDBRANCH   3  17
TORSDOF 4
ENDMDL
MODEL 4
REMARK VINA RESULT:      -7.2      1.805      2.311
REMARK  Name = 
REMARK  7 active torsions:
REMARK  status: ('A' for Active; 'I' for Inactive)
REMARK    1  A    between atoms: C_1  and  O_2
REMARK    2  A    between atoms: O_2  and  C_3
REMARK    3  A    between atoms: C_5  and  O_6
REMARK    4  A    between atoms: O_6  and  C_7
REMARK    5  A    between atoms: C_9  and  C_10
REMARK    6  A    between atoms: C_12  and  N_13
REMARK    7  A    between atoms: C_14  and  C_15
REMARK                            x       y       z     vdW  Elec       q    Type
REMARK                         _______ _______ _______ _____ _____    ______ ____
ROOT
ATOM      1  C   UNL     1       5.068   4.902  18.143  0.00  0.00    +0.000 A 
ATOM      2  C   UNL     1       5.280   5.414  16.835  0.00  0.00    +0.000 A 
ATOM      3  C   UNL     1       6.581   5.121  16.516  0.00  0.00    +0.000 A 
ATOM      4  N   UNL     1       7.050   4.413  17.595  0.00  0.00    +0.000 N 
ATOM      5  N   UNL     1       6.152   4.246  18.576  0.00  0.00    +0.000 NA
ATOM      6  H   UNL     1       7.977   4.027  17.741  0.00  0.00    +0.000 HD
ENDROOT
BRANCH   1  11
ATOM      7  C   UNL     1       1.988   4.104  20.126  0.00  0.00    +0.000 A 
ATOM      8  C   UNL     1       1.539   5.390  20.434  0.00  0.00    +0.000 A 
ATOM      9  C   UNL     1       2.247   6.524  20.021  0.00  0.00    +0.000 A 
ATOM     10  C   UNL     1       3.424   6.367  19.290  0.00  0.00    +0.000 A 
ATOM     11  C   UNL     1       3.878   5.085  18.964  0.00  0.00    +0.000 A 
ATOM     12  C   UNL     1       3.164   3.957  19.398  0.00  0.00    +0.000 A 
BRANCH   7  14
ATOM     13  C   UNL     1       1.516   2.498  21.823  0.00  0.00    +0.000 C 
ATOM     14  O   UNL     1       1.193   3.081  20.566  0.00  0.00    +0.000 OA
ENDBRANCH   7  14
BRANCH   9  15
ATOM     15  O   UNL     1       1.680   7.717  20.374  0.00  0.00    +0.000 OA
ATOM     16  C   UNL     1       1.581   8.710  19.359  0.00  0.00    +0.000 C 
ENDBRANCH   9  15
ENDBRANCH   1  11
BRANCH   3  17
ATOM     17  N   UNL     1       7.344   5.429  15.409  0.00  0.00    +0.000 N 
ATOM     18  C   UNL     1       7.282   4.976  14.054  0.00  0.00    +0.000 C 
ATOM     19  C   UNL     1       6.317   3.981  13.509  0.00  0.00    +0.000 C 
ATOM     20  O   UNL     1       8.131   5.500  13.344  0.00  0.00    +0.000 OA
ATOM     21  H   UNL     1       8.090   6.109  15.523  0.00  0.00    +0.000 HD
ENDBRANCH   3  17
TORSDOF 4
ENDMDL
MODEL 5
REMARK VINA RESULT:      -7.0      3.201      6.772
REMARK  Name = 
REMARK  7 active torsions:
REMARK  status: ('A' for Active; 'I' for Inactive)
REMARK    1  A    between atoms: C_1  and  O_2
REMARK    2  A    between atoms: O_2  and  C_3
REMARK    3  A    between atoms: C_5  and  O_6
REMARK    4  A    between atoms: O_6  and  C_7
REMARK    5  A    between atoms: C_9  and  C_10
REMARK    6  A    between atoms: C_12  and  N_13
REMARK    7  A    between atoms: C_14  and  C_15
REMARK                            x       y       z     vdW  Elec       q    Type
REMARK                         _______ _______ _______ _____ _____    ______ ____
ROOT
ATOM      1  C   UNL     1       3.952   3.480  17.140  0.00  0.00    +0.000 A 
ATOM      2  C   UNL     1       4.060   3.123  18.511  0.00  0.00    +0.000 A 
ATOM      3  C   UNL     1       2.804   2.748  18.909  0.00  0.00    +0.000 A 
ATOM      4  N   UNL     1       2.039   2.838  17.771  0.00  0.00    +0.000 N 
ATOM      5  N   UNL     1       2.712   3.252  16.688  0.00  0.00    +0.000 NA
ATOM      6  H   UNL     1       1.048   2.650  17.661  0.00  0.00    +0.000 HD
ENDROOT
BRANCH   1  11
ATOM      7  C   UNL     1       6.231   4.076  14.223  0.00  0.00    +0.000 A 
ATOM      8  C   UNL     1       7.050   5.083  14.738  0.00  0.00    +0.000 A 
ATOM      9  C   UNL     1       6.852   5.592  16.026  0.00  0.00    +0.000 A 
ATOM     10  C   UNL     1       5.816   5.087  16.810  0.00  0.00    +0.000 A 
ATOM     11  C   UNL     1       4.995   4.070  16.312  0.00  0.00    +0.000 A 
ATOM     12  C   UNL     1       5.198   3.579  15.012  0.00  0.00    +0.000 A 
BRANCH   7  14
ATOM     13  C   UNL     1       5.471   3.211  12.136  0.00  0.00    +0.000 C 
ATOM     14  O   UNL     1       6.544   3.648  12.962  0.00  0.00    +0.000 OA
ENDBRANCH   7  14
BRANCH   9  15
ATOM     15  O   UNL     1       7.741   6.559  16.406  0.00  0.00    +0.000 OA
ATOM     16  C   UNL     1       7.427   7.299  17.580  0.00  0.00    +0.000 C 
ENDBRANCH   9  15
ENDBRANCH   1  11
BRANCH   3  17
ATOM     17  N   UNL     1       2.308   2.367  20.139  0.00  0.00    +0.000 N 
ATOM     18  C   UNL     1       1.965   3.125  21.302  0.00  0.00    +0.000 C 
ATOM     19  C   UNL     1       2.099   4.599  21.456  0.00  0.00    +0.000 C 
ATOM     20  O   UNL     1       1.531   2.423  22.208  0.00  0.00    +0.000 OA
ATOM     21  H   UNL     1       2.122   1.380  20.289  0.00  0.00    +0.000 HD
ENDBRANCH   3  17
TORSDOF 4
ENDMDL
MODEL 6
REMARK VINA RESULT:      -6.9      3.203      6.934
REMARK  Name = 
REMARK  7 active torsions:
REMARK  status: ('A' for Active; 'I' for Inactive)
REMARK    1  A    between atoms: C_1  and  O_2
REMARK    2  A    between atoms: O_2  and  C_3
REMARK    3  A    between atoms: C_5  and  O_6
REMARK    4  A    between atoms: O_6  and  C_7
REMARK    5  A    between atoms: C_9  and  C_10
REMARK    6  A    between atoms: C_12  and  N_13
REMARK    7  A    between atoms: C_14  and  C_15
REMARK                            x       y       z     vdW  Elec       q    Type
REMARK                         _______ _______ _______ _____ _____    ______ ____
ROOT
ATOM      1  C   UNL     1       4.058   3.362  17.174  0.00  0.00    +0.000 A 
ATOM      2  C   UNL     1       4.110   3.059  18.561  0.00  0.00    +0.000 A 
ATOM      3  C   UNL     1       2.849   2.653  18.912  0.00  0.00    +0.000 A 
ATOM      4  N   UNL     1       2.140   2.673  17.736  0.00  0.00    +0.000 N 
ATOM      5  N   UNL     1       2.851   3.071  16.672  0.00  0.00    +0.000 NA
ATOM      6  H   UNL     1       1.163   2.444  17.585  0.00  0.00    +0.000 HD
ENDROOT
BRANCH   1  11
ATOM      7  C   UNL     1       6.866   5.629  16.159  0.00  0.00    +0.000 A 
ATOM      8  C   UNL     1       7.078   5.205  14.845  0.00  0.00    +0.000 A 
ATOM      9  C   UNL     1       6.328   4.163  14.290  0.00  0.00    +0.000 A 
ATOM     10  C   UNL     1       5.351   3.535  15.062  0.00  0.00    +0.000 A 
ATOM     11  C   UNL     1       5.120   3.958  16.375  0.00  0.00    +0.000 A 
ATOM     12  C   UNL     1       5.891   4.996  16.923  0.00  0.00    +0.000 A 
BRANCH   7  14
ATOM     13  C   UNL     1       7.625   6.992  17.962  0.00  0.00    +0.000 C 
ATOM     14  O   UNL     1       7.647   6.672  16.575  0.00  0.00    +0.000 OA
ENDBRANCH   7  14
BRANCH   9  15
ATOM     15  O   UNL     1       6.628   3.868  12.989  0.00  0.00    +0.000 OA
ATOM     16  C   UNL     1       5.639   3.168  12.241  0.00  0.00    +0.000 C 
ENDBRANCH   9  15
ENDBRANCH   1  11
BRANCH   3  17
ATOM     17  N   UNL     1       2.307   2.300  20.130  0.00  0.00    +0.000 N 
ATOM     18  C   UNL     1       1.982   3.074  21.287  0.00  0.00    +0.000 C 
ATOM     19  C   UNL     1       2.194   4.539  21.447  0.00  0.00    +0.000 C 
ATOM     20  O   UNL     1       1.490   2.397  22.182  0.00  0.00    +0.000 OA
ATOM     21  H   UNL     1       2.063   1.324  20.274  0.00  0.00    +0.000 HD
ENDBRANCH   3  17
TORSDOF 4
ENDMDL
MODEL 7
REMARK VINA RESULT:      -6.9      1.776      2.150
REMARK  Name = 
REMARK  7 active torsions:
REMARK  status: ('A' for Active; 'I' for Inactive)
REMARK    1  A    between atoms: C_1  and  O_2
REMARK    2  A    between atoms: O_2  and  C_3
REMARK    3  A    between atoms: C_5  and  O_6
REMARK    4  A    between atoms: O_6  and  C_7
REMARK    5  A    between atoms: C_9  and  C_10
REMARK    6  A    between atoms: C_12  and  N_13
REMARK    7  A    between atoms: C_14  and  C_15
REMARK                            x       y       z     vdW  Elec       q    Type
REMARK                         _______ _______ _______ _____ _____    ______ ____
ROOT
ATOM      1  C   UNL     1       4.638   4.835  17.102  0.00  0.00    +0.000 A 
ATOM      2  C   UNL     1       5.413   5.808  16.416  0.00  0.00    +0.000 A 
ATOM      3  C   UNL     1       6.306   5.112  15.645  0.00  0.00    +0.000 A 
ATOM      4  N   UNL     1       5.988   3.791  15.854  0.00  0.00    +0.000 N 
ATOM      5  N   UNL     1       4.971   3.600  16.707  0.00  0.00    +0.000 NA
ATOM      6  H   UNL     1       6.432   2.967  15.464  0.00  0.00    +0.000 HD
ENDROOT
BRANCH   1  11
ATOM      7  C   UNL     1       1.951   4.225  19.645  0.00  0.00    +0.000 A 
ATOM      8  C   UNL     1       1.663   5.534  20.035  0.00  0.00    +0.000 A 
ATOM      9  C   UNL     1       2.357   6.622  19.494  0.00  0.00    +0.000 A 
ATOM     10  C   UNL     1       3.356   6.394  18.548  0.00  0.00    +0.000 A 
ATOM     11  C   UNL     1       3.646   5.089  18.139  0.00  0.00    +0.000 A 
ATOM     12  C   UNL     1       2.950   4.006  18.702  0.00  0.00    +0.000 A 
BRANCH   7  14
ATOM     13  C   UNL     1       1.533   2.855  21.551  0.00  0.00    +0.000 C 
ATOM     14  O   UNL     1       1.185   3.254  20.229  0.00  0.00    +0.000 OA
ENDBRANCH   7  14
BRANCH   9  15
ATOM     15  O   UNL     1       1.956   7.846  19.951  0.00  0.00    +0.000 OA
ATOM     16  C   UNL     1       1.249   7.874  21.187  0.00  0.00    +0.000 C 
ENDBRANCH   9  15
ENDBRANCH   1  11
BRANCH   3  17
ATOM     17  N   UNL     1       7.333   5.533  14.826  0.00  0.00    +0.000 N 
ATOM     18  C   UNL     1       7.666   5.208  13.474  0.00  0.00    +0.000 C 
ATOM     19  C   UNL     1       6.931   4.256  12.597  0.00  0.00    +0.000 C 
ATOM     20  O   UNL     1       8.658   5.808  13.078  0.00  0.00    +0.000 OA
ATOM     21  H   UNL     1       7.991   6.209  15.203  0.00  0.00    +0.000 HD
ENDBRANCH   3  17
TORSDOF 4
ENDMDL
MODEL 8
REMARK VINA RESULT:      -6.9      1.356      1.462
REMARK  Name = 
REMARK  7 active torsions:
REMARK  status: ('A' for Active; 'I' for Inactive)
REMARK    1  A    between atoms: C_1  and  O_2
REMARK    2  A    between atoms: O_2  and  C_3
REMARK    3  A    between atoms: C_5  and  O_6
REMARK    4  A    between atoms: O_6  and  C_7
REMARK    5  A    between atoms: C_9  and  C_10
REMARK    6  A    between atoms: C_12  and  N_13
REMARK    7  A    between atoms: C_14  and  C_15
REMARK                            x       y       z     vdW  Elec       q    Type
REMARK                         _______ _______ _______ _____ _____    ______ ____
ROOT
ATOM      1  C   UNL     1       4.635   5.023  16.756  0.00  0.00    +0.000 A 
ATOM      2  C   UNL     1       5.112   5.396  15.471  0.00  0.00    +0.000 A 
ATOM      3  C   UNL     1       5.917   4.370  15.050  0.00  0.00    +0.000 A 
ATOM      4  N   UNL     1       5.832   3.431  16.050  0.00  0.00    +0.000 N 
ATOM      5  N   UNL     1       5.047   3.790  17.075  0.00  0.00    +0.000 NA
ATOM      6  H   UNL     1       6.296   2.531  16.110  0.00  0.00    +0.000 HD
ENDROOT
BRANCH   1  11
ATOM      7  C   UNL     1       2.519   6.024  19.686  0.00  0.00    +0.000 A 
ATOM      8  C   UNL     1       2.250   7.357  19.366  0.00  0.00    +0.000 A 
ATOM      9  C   UNL     1       2.774   7.946  18.211  0.00  0.00    +0.000 A 
ATOM     10  C   UNL     1       3.583   7.189  17.363  0.00  0.00    +0.000 A 
ATOM     11  C   UNL     1       3.850   5.850  17.665  0.00  0.00    +0.000 A 
ATOM     12  C   UNL     1       3.328   5.277  18.835  0.00  0.00    +0.000 A 
BRANCH   7  14
ATOM     13  C   UNL     1       2.119   4.189  21.153  0.00  0.00    +0.000 C 
ATOM     14  O   UNL     1       1.927   5.561  20.829  0.00  0.00    +0.000 OA
ENDBRANCH   7  14
BRANCH   9  15
ATOM     15  O   UNL     1       2.411   9.249  18.013  0.00  0.00    +0.000 OA
ATOM     16  C   UNL     1       1.019   9.543  18.043  0.00  0.00    +0.000 C 
ENDBRANCH   9  15
ENDBRANCH   1  11
BRANCH   3  17
ATOM     17  N   UNL     1       6.687   4.217  13.916  0.00  0.00    +0.000 N 
ATOM     18  C   UNL     1       6.362   3.765  12.599  0.00  0.00    +0.000 C 
ATOM     19  C   UNL     1       5.023   3.308  12.137  0.00  0.00    +0.000 C 
ATOM     20  O   UNL     1       7.327   3.785  11.844  0.00  0.00    +0.000 OA
ATOM     21  H   UNL     1       7.668   4.472  13.973  0.00  0.00    +0.000 HD
ENDBRANCH   3  17
TORSDOF 4
ENDMDL
MODEL 9
REMARK VINA RESULT:      -6.8      4.109      7.317
REMARK  Name = 
REMARK  7 active torsions:
REMARK  status: ('A' for Active; 'I' for Inactive)
REMARK    1  A    between atoms: C_1  and  O_2
REMARK    2  A    between atoms: O_2  and  C_3
REMARK    3  A    between atoms: C_5  and  O_6
REMARK    4  A    between atoms: O_6  and  C_7
REMARK    5  A    between atoms: C_9  and  C_10
REMARK    6  A    between atoms: C_12  and  N_13
REMARK    7  A    between atoms: C_14  and  C_15
REMARK                            x       y       z     vdW  Elec       q    Type
REMARK                         _______ _______ _______ _____ _____    ______ ____
ROOT
ATOM      1  C   UNL     1       2.279   7.627  18.534  0.00  0.00    +0.000 A 
ATOM      2  C   UNL     1       1.861   8.732  17.745  0.00  0.00    +0.000 A 
ATOM      3  C   UNL     1       1.218   9.591  18.598  0.00  0.00    +0.000 A 
ATOM      4  N   UNL     1       1.335   9.001  19.834  0.00  0.00    +0.000 N 
ATOM      5  N   UNL     1       1.991   7.832  19.825  0.00  0.00    +0.000 NA
ATOM      6  H   UNL     1       0.977   9.329  20.725  0.00  0.00    +0.000 HD
ENDROOT
BRANCH   1  11
ATOM      7  C   UNL     1       4.770   5.288  16.991  0.00  0.00    +0.000 A 
ATOM      8  C   UNL     1       4.046   4.094  17.006  0.00  0.00    +0.000 A 
ATOM      9  C   UNL     1       2.754   4.035  17.539  0.00  0.00    +0.000 A 
ATOM     10  C   UNL     1       2.179   5.190  18.069  0.00  0.00    +0.000 A 
ATOM     11  C   UNL     1       2.888   6.396  18.049  0.00  0.00    +0.000 A 
ATOM     12  C   UNL     1       4.189   6.435  17.522  0.00  0.00    +0.000 A 
BRANCH   7  14
ATOM     13  C   UNL     1       7.060   4.661  17.203  0.00  0.00    +0.000 C 
ATOM     14  O   UNL     1       6.011   5.218  16.419  0.00  0.00    +0.000 OA
ENDBRANCH   7  14
BRANCH   9  15
ATOM     15  O   UNL     1       2.157   2.808  17.468  0.00  0.00    +0.000 OA
ATOM     16  C   UNL     1       1.262   2.463  18.520  0.00  0.00    +0.000 C 
ENDBRANCH   9  15
ENDBRANCH   1  11
BRANCH   3  17
ATOM     17  N   UNL     1       0.560  10.782  18.376  0.00  0.00    +0.000 N 
ATOM     18  C   UNL     1      -0.826  11.085  18.193  0.00  0.00    +0.000 C 
ATOM     19  C   UNL     1      -1.941  10.099  18.183  0.00  0.00    +0.000 C 
ATOM     20  O   UNL     1      -1.028  12.283  18.037  0.00  0.00    +0.000 OA
ATOM     21  H   UNL     1       1.118  11.631  18.341  0.00  0.00    +0.000 HD
ENDBRANCH   3  17
TORSDOF 4
ENDMDL
