MODEL 1
REMARK VINA RESULT:      -7.8      0.000      0.000
REMARK  Name = 
REMARK  5 active torsions:
REMARK  status: ('A' for Active; 'I' for Inactive)
REMARK    1  A    between atoms: C_1  and  O_2
REMARK    2  A    between atoms: O_2  and  C_3
REMARK    3  A    between atoms: C_10  and  O_11
REMARK    4  A    between atoms: O_11  and  C_12
REMARK    5  A    between atoms: C_12  and  C_13
REMARK                            x       y       z     vdW  Elec       q    Type
REMARK                         _______ _______ _______ _____ _____    ______ ____
ROOT
ATOM      1  C   UNL     1       1.746   4.269  20.142  0.00  0.00    +0.000 A 
ATOM      2  C   UNL     1       1.456   5.444  20.712  0.00  0.00    +0.000 A 
ATOM      3  C   UNL     1       1.951   6.726  20.190  0.00  0.00    +0.000 A 
ATOM      4  O   UNL     1       1.687   7.773  20.771  0.00  0.00    +0.000 OA
ATOM      5  O   UNL     1       2.702   6.694  19.027  0.00  0.00    +0.000 OA
ATOM      6  C   UNL     1       3.046   5.470  18.425  0.00  0.00    +0.000 A 
ATOM      7  C   UNL     1       3.865   5.531  17.298  0.00  0.00    +0.000 A 
ATOM      8  C   UNL     1       4.284   4.347  16.694  0.00  0.00    +0.000 A 
ATOM      9  C   UNL     1       3.831   3.122  17.192  0.00  0.00    +0.000 A 
ATOM     10  C   UNL     1       3.004   3.080  18.317  0.00  0.00    +0.000 A 
ATOM     11  C   UNL     1       2.603   4.259  18.953  0.00  0.00    +0.000 A 
ENDROOT
BRANCH   1  13
ATOM     12  C   UNL     1       1.693   2.593  21.858  0.00  0.00    +0.000 C 
ATOM     13  O   UNL     1       1.321   3.025  20.555  0.00  0.00    +0.000 OA
ENDBRANCH   1  13
BRANCH   8  14
ATOM     14  O   UNL     1       5.133   4.490  15.631  0.00  0.00    +0.000 OA
BRANCH  14  15
ATOM     15  C   UNL     1       6.504   4.194  15.912  0.00  0.00    +0.000 C 
BRANCH  15  16
ATOM     16  C   UNL     1       7.099   5.207  16.861  0.00  0.00    +0.000 A 
ATOM     17  C   UNL     1       7.163   6.572  16.541  0.00  0.00    +0.000 A 
ATOM     18  C   UNL     1       7.654   7.499  17.465  0.00  0.00    +0.000 A 
ATOM     19  C   UNL     1       8.071   7.073  18.724  0.00  0.00    +0.000 A 
ATOM     20  C   UNL     1       7.992   5.724  19.049  0.00  0.00    +0.000 A 
ATOM     21  F   UNL     1       8.377   5.315  20.265  0.00  0.00    +0.000 F 
ATOM     22  C   UNL     1       7.509   4.793  18.137  0.00  0.00    +0.000 A 
ENDBRANCH  15  16
ENDBRANCH  14  15
ENDBRANCH   8  14
TORSDOF 4
ENDMDL
MODEL 2
REMARK VINA RESULT:      -7.7      3.501      6.026
REMARK  Name = 
REMARK  5 active torsions:
REMARK  status: ('A' for Active; 'I' for Inactive)
REMARK    1  A    between atoms: C_1  and  O_2
REMARK    2  A    between atoms: O_2  and  C_3
REMARK    3  A    between atoms: C_10  and  O_11
REMARK    4  A    between atoms: O_11  and  C_12
REMARK    5  A    between atoms: C_12  and  C_13
REMARK                            x       y       z     vdW  Elec       q    Type
REMARK                         _______ _______ _______ _____ _____    ______ ____
ROOT
ATOM      1  C   UNL     1       0.436  10.793  20.201  0.00  0.00    +0.000 A 
ATOM      2  C   UNL     1       0.193  10.780  21.518  0.00  0.00    +0.000 A 
ATOM      3  C   UNL     1       0.574   9.657  22.386  0.00  0.00    +0.000 A 
ATOM      4  O   UNL     1       0.294   9.677  23.580  0.00  0.00    +0.000 OA
ATOM      5  O   UNL     1       1.259   8.604  21.805  0.00  0.00    +0.000 OA
ATOM      6  C   UNL     1       1.500   8.580  20.419  0.00  0.00    +0.000 A 
ATOM      7  C   UNL     1       2.134   7.446  19.910  0.00  0.00    +0.000 A 
ATOM      8  C   UNL     1       2.346   7.342  18.537  0.00  0.00    +0.000 A 
ATOM      9  C   UNL     1       1.975   8.398  17.700  0.00  0.00    +0.000 A 
ATOM     10  C   UNL     1       1.349   9.531  18.228  0.00  0.00    +0.000 A 
ATOM     11  C   UNL     1       1.098   9.634  19.599  0.00  0.00    +0.000 A 
ENDROOT
BRANCH   1  13
ATOM     12  C   UNL     1      -1.245  12.150  19.158  0.00  0.00    +0.000 C 
ATOM     13  O   UNL     1       0.125  11.802  19.316  0.00  0.00    +0.000 OA
ENDBRANCH   1  13
BRANCH   8  14
ATOM     14  O   UNL     1       2.919   6.175  18.110  0.00  0.00    +0.000 OA
BRANCH  14  15
ATOM     15  C   UNL     1       2.028   5.057  18.044  0.00  0.00    +0.000 C 
BRANCH  15  16
ATOM     16  C   UNL     1       2.161   4.179  19.265  0.00  0.00    +0.000 A 
ATOM     17  C   UNL     1       1.074   3.922  20.114  0.00  0.00    +0.000 A 
ATOM     18  C   UNL     1       1.205   3.049  21.198  0.00  0.00    +0.000 A 
ATOM     19  C   UNL     1       2.420   2.412  21.435  0.00  0.00    +0.000 A 
ATOM     20  C   UNL     1       3.494   2.652  20.586  0.00  0.00    +0.000 A 
ATOM     21  F   UNL     1       4.659   2.027  20.803  0.00  0.00    +0.000 F 
ATOM     22  C   UNL     1       3.376   3.520  19.507  0.00  0.00    +0.000 A 
ENDBRANCH  15  16
ENDBRANCH  14  15
ENDBRANCH   8  14
TORSDOF 4
ENDMDL
MODEL 3
REMARK VINA RESULT:      -7.7      0.996      1.429
REMARK  Name = 
REMARK  5 active torsions:
REMARK  status: ('A' for Active; 'I' for Inactive)
REMARK    1  A    between atoms: C_1  and  O_2
REMARK    2  A    between atoms: O_2  and  C_3
REMARK    3  A    between atoms: C_10  and  O_11
REMARK    4  A    between atoms: O_11  and  C_12
REMARK    5  A    between atoms: C_12  and  C_13
REMARK                            x       y       z     vdW  Elec       q    Type
REMARK                         _______ _______ _______ _____ _____    ______ ____
ROOT
ATOM      1  C   UNL     1       1.903   4.216  20.071  0.00  0.00    +0.000 A 
ATOM      2  C   UNL     1       1.546   5.355  20.676  0.00  0.00    +0.000 A 
ATOM      3  C   UNL     1       1.959   6.679  20.189  0.00  0.00    +0.000 A 
ATOM      4  O   UNL     1       1.636   7.691  20.802  0.00  0.00    +0.000 OA
ATOM      5  O   UNL     1       2.702   6.726  19.022  0.00  0.00    +0.000 OA
ATOM      6  C   UNL     1       3.116   5.543  18.383  0.00  0.00    +0.000 A 
ATOM      7  C   UNL     1       3.922   5.685  17.254  0.00  0.00    +0.000 A 
ATOM      8  C   UNL     1       4.408   4.546  16.615  0.00  0.00    +0.000 A 
ATOM      9  C   UNL     1       4.033   3.283  17.079  0.00  0.00    +0.000 A 
ATOM     10  C   UNL     1       3.218   3.158  18.207  0.00  0.00    +0.000 A 
ATOM     11  C   UNL     1       2.751   4.292  18.879  0.00  0.00    +0.000 A 
ENDROOT
BRANCH   1  13
ATOM     12  C   UNL     1       1.594   2.621  21.836  0.00  0.00    +0.000 C 
ATOM     13  O   UNL     1       1.557   2.938  20.450  0.00  0.00    +0.000 OA
ENDBRANCH   1  13
BRANCH   8  14
ATOM     14  O   UNL     1       5.240   4.770  15.552  0.00  0.00    +0.000 OA
BRANCH  14  15
ATOM     15  C   UNL     1       6.626   4.530  15.812  0.00  0.00    +0.000 C 
BRANCH  15  16
ATOM     16  C   UNL     1       7.133   5.406  16.932  0.00  0.00    +0.000 A 
ATOM     17  C   UNL     1       7.569   4.868  18.153  0.00  0.00    +0.000 A 
ATOM     18  C   UNL     1       8.100   5.694  19.148  0.00  0.00    +0.000 A 
ATOM     19  C   UNL     1       8.214   7.064  18.927  0.00  0.00    +0.000 A 
ATOM     20  C   UNL     1       7.798   7.597  17.713  0.00  0.00    +0.000 A 
ATOM     21  F   UNL     1       7.923   8.912  17.492  0.00  0.00    +0.000 F 
ATOM     22  C   UNL     1       7.266   6.786  16.717  0.00  0.00    +0.000 A 
ENDBRANCH  15  16
ENDBRANCH  14  15
ENDBRANCH   8  14
TORSDOF 4
ENDMDL
MODEL 4
REMARK VINA RESULT:      -7.6      2.729      4.597
REMARK  Name = 
REMARK  5 active torsions:
REMARK  status: ('A' for Active; 'I' for Inactive)
REMARK    1  A    between atoms: C_1  and  O_2
REMARK    2  A    between atoms: O_2  and  C_3
REMARK    3  A    between atoms: C_10  and  O_11
REMARK    4  A    between atoms: O_11  and  C_12
REMARK    5  A    between atoms: C_12  and  C_13
REMARK                            x       y       z     vdW  Elec       q    Type
REMARK                         _______ _______ _______ _____ _____    ______ ____
ROOT
ATOM      1  C   UNL     1       0.530  10.569  19.942  0.00  0.00    +0.000 A 
ATOM      2  C   UNL     1       0.185  10.740  21.224  0.00  0.00    +0.000 A 
ATOM      3  C   UNL     1       0.474   9.745  22.266  0.00  0.00    +0.000 A 
ATOM      4  O   UNL     1       0.103   9.933  23.420  0.00  0.00    +0.000 OA
ATOM      5  O   UNL     1       1.181   8.615  21.892  0.00  0.00    +0.000 OA
ATOM      6  C   UNL     1       1.529   8.397  20.546  0.00  0.00    +0.000 A 
ATOM      7  C   UNL     1       2.178   7.198  20.249  0.00  0.00    +0.000 A 
ATOM      8  C   UNL     1       2.495   6.904  18.925  0.00  0.00    +0.000 A 
ATOM      9  C   UNL     1       2.212   7.837  17.925  0.00  0.00    +0.000 A 
ATOM     10  C   UNL     1       1.569   9.038  18.240  0.00  0.00    +0.000 A 
ATOM     11  C   UNL     1       1.215   9.331  19.560  0.00  0.00    +0.000 A 
ENDROOT
BRANCH   1  13
ATOM     12  C   UNL     1      -1.037  11.739  18.554  0.00  0.00    +0.000 C 
ATOM     13  O   UNL     1       0.310  11.448  18.906  0.00  0.00    +0.000 OA
ENDBRANCH   1  13
BRANCH   8  14
ATOM     14  O   UNL     1       3.075   5.683  18.710  0.00  0.00    +0.000 OA
BRANCH  14  15
ATOM     15  C   UNL     1       3.875   5.597  17.527  0.00  0.00    +0.000 C 
BRANCH  15  16
ATOM     16  C   UNL     1       5.313   5.959  17.812  0.00  0.00    +0.000 A 
ATOM     17  C   UNL     1       6.007   6.900  17.036  0.00  0.00    +0.000 A 
ATOM     18  C   UNL     1       7.315   7.269  17.363  0.00  0.00    +0.000 A 
ATOM     19  C   UNL     1       7.937   6.712  18.478  0.00  0.00    +0.000 A 
ATOM     20  C   UNL     1       7.246   5.793  19.257  0.00  0.00    +0.000 A 
ATOM     21  F   UNL     1       7.836   5.269  20.340  0.00  0.00    +0.000 F 
ATOM     22  C   UNL     1       5.946   5.416  18.940  0.00  0.00    +0.000 A 
ENDBRANCH  15  16
ENDBRANCH  14  15
ENDBRANCH   8  14
TORSDOF 4
ENDMDL
MODEL 5
REMARK VINA RESULT:      -7.6      2.800      4.273
REMARK  Name = 
REMARK  5 active torsions:
REMARK  status: ('A' for Active; 'I' for Inactive)
REMARK    1  A    between atoms: C_1  and  O_2
REMARK    2  A    between atoms: O_2  and  C_3
REMARK    3  A    between atoms: C_10  and  O_11
REMARK    4  A    between atoms: O_11  and  C_12
REMARK    5  A    between atoms: C_12  and  C_13
REMARK                            x       y       z     vdW  Elec       q    Type
REMARK                         _______ _______ _______ _____ _____    ______ ____
ROOT
ATOM      1  C   UNL     1       2.245   5.867  20.292  0.00  0.00    +0.000 A 
ATOM      2  C   UNL     1       1.798   4.969  21.179  0.00  0.00    +0.000 A 
ATOM      3  C   UNL     1       2.278   3.581  21.216  0.00  0.00    +0.000 A 
ATOM      4  O   UNL     1       1.809   2.786  22.024  0.00  0.00    +0.000 OA
ATOM      5  O   UNL     1       3.273   3.225  20.321  0.00  0.00    +0.000 OA
ATOM      6  C   UNL     1       3.738   4.141  19.360  0.00  0.00    +0.000 A 
ATOM      7  C   UNL     1       4.690   3.674  18.453  0.00  0.00    +0.000 A 
ATOM      8  C   UNL     1       5.143   4.520  17.444  0.00  0.00    +0.000 A 
ATOM      9  C   UNL     1       4.683   5.838  17.391  0.00  0.00    +0.000 A 
ATOM     10  C   UNL     1       3.735   6.293  18.312  0.00  0.00    +0.000 A 
ATOM     11  C   UNL     1       3.246   5.444  19.310  0.00  0.00    +0.000 A 
ENDROOT
BRANCH   1  13
ATOM     12  C   UNL     1       1.291   7.804  21.338  0.00  0.00    +0.000 C 
ATOM     13  O   UNL     1       1.860   7.186  20.191  0.00  0.00    +0.000 OA
ENDBRANCH   1  13
BRANCH   8  14
ATOM     14  O   UNL     1       6.030   3.969  16.560  0.00  0.00    +0.000 OA
BRANCH  14  15
ATOM     15  C   UNL     1       6.895   4.907  15.912  0.00  0.00    +0.000 C 
BRANCH  15  16
ATOM     16  C   UNL     1       6.907   4.699  14.417  0.00  0.00    +0.000 A 
ATOM     17  C   UNL     1       7.756   5.433  13.574  0.00  0.00    +0.000 A 
ATOM     18  C   UNL     1       7.798   5.172  12.201  0.00  0.00    +0.000 A 
ATOM     19  C   UNL     1       7.003   4.165  11.660  0.00  0.00    +0.000 A 
ATOM     20  C   UNL     1       6.174   3.426  12.494  0.00  0.00    +0.000 A 
ATOM     21  F   UNL     1       5.422   2.445  11.978  0.00  0.00    +0.000 F 
ATOM     22  C   UNL     1       6.121   3.678  13.861  0.00  0.00    +0.000 A 
ENDBRANCH  15  16
ENDBRANCH  14  15
ENDBRANCH   8  14
TORSDOF 4
ENDMDL
MODEL 6
REMARK VINA RESULT:      -7.6      3.035      5.009
REMARK  Name = 
REMARK  5 active torsions:
REMARK  status: ('A' for Active; 'I' for Inactive)
REMARK    1  A    between atoms: C_1  and  O_2
REMARK    2  A    between atoms: O_2  and  C_3
REMARK    3  A    between atoms: C_10  and  O_11
REMARK    4  A    between atoms: O_11  and  C_12
REMARK    5  A    between atoms: C_12  and  C_13
REMARK                            x       y       z     vdW  Elec       q    Type
REMARK                         _______ _______ _______ _____ _____    ______ ____
ROOT
ATOM      1  C   UNL     1       0.573  10.855  19.984  0.00  0.00    +0.000 A 
ATOM      2  C   UNL     1       0.211  10.977  21.267  0.00  0.00    +0.000 A 
ATOM      3  C   UNL     1       0.420   9.912  22.258  0.00  0.00    +0.000 A 
ATOM      4  O   UNL     1       0.034  10.059  23.413  0.00  0.00    +0.000 OA
ATOM      5  O   UNL     1       1.069   8.765  21.835  0.00  0.00    +0.000 OA
ATOM      6  C   UNL     1       1.433   8.599  20.487  0.00  0.00    +0.000 A 
ATOM      7  C   UNL     1       2.019   7.383  20.137  0.00  0.00    +0.000 A 
ATOM      8  C   UNL     1       2.347   7.141  18.804  0.00  0.00    +0.000 A 
ATOM      9  C   UNL     1       2.140   8.142  17.852  0.00  0.00    +0.000 A 
ATOM     10  C   UNL     1       1.560   9.359  18.221  0.00  0.00    +0.000 A 
ATOM     11  C   UNL     1       1.194   9.602  19.548  0.00  0.00    +0.000 A 
ENDROOT
BRANCH   1  13
ATOM     12  C   UNL     1       0.907  13.114  19.249  0.00  0.00    +0.000 C 
ATOM     13  O   UNL     1       0.426  11.800  18.993  0.00  0.00    +0.000 OA
ENDBRANCH   1  13
BRANCH   8  14
ATOM     14  O   UNL     1       2.862   5.902  18.533  0.00  0.00    +0.000 OA
BRANCH  14  15
ATOM     15  C   UNL     1       3.800   5.864  17.455  0.00  0.00    +0.000 C 
BRANCH  15  16
ATOM     16  C   UNL     1       5.212   6.069  17.950  0.00  0.00    +0.000 A 
ATOM     17  C   UNL     1       5.743   5.310  19.005  0.00  0.00    +0.000 A 
ATOM     18  C   UNL     1       7.075   5.470  19.398  0.00  0.00    +0.000 A 
ATOM     19  C   UNL     1       7.893   6.378  18.732  0.00  0.00    +0.000 A 
ATOM     20  C   UNL     1       7.374   7.118  17.676  0.00  0.00    +0.000 A 
ATOM     21  F   UNL     1       8.165   7.980  17.022  0.00  0.00    +0.000 F 
ATOM     22  C   UNL     1       6.051   6.970  17.278  0.00  0.00    +0.000 A 
ENDBRANCH  15  16
ENDBRANCH  14  15
ENDBRANCH   8  14
TORSDOF 4
ENDMDL
MODEL 7
REMARK VINA RESULT:      -7.4      2.799      4.901
REMARK  Name = 
REMARK  5 active torsions:
REMARK  status: ('A' for Active; 'I' for Inactive)
REMARK    1  A    between atoms: C_1  and  O_2
REMARK    2  A    between atoms: O_2  and  C_3
REMARK    3  A    between atoms: C_10  and  O_11
REMARK    4  A    between atoms: O_11  and  C_12
REMARK    5  A    between atoms: C_12  and  C_13
REMARK                            x       y       z     vdW  Elec       q    Type
REMARK                         _______ _______ _______ _____ _____    ______ ____
ROOT
ATOM      1  C   UNL     1       0.467  10.636  19.878  0.00  0.00    +0.000 A 
ATOM      2  C   UNL     1       0.048  10.883  21.126  0.00  0.00    +0.000 A 
ATOM      3  C   UNL     1       0.262   9.946  22.237  0.00  0.00    +0.000 A 
ATOM      4  O   UNL     1      -0.175  10.203  23.355  0.00  0.00    +0.000 OA
ATOM      5  O   UNL     1       0.976   8.791  21.970  0.00  0.00    +0.000 OA
ATOM      6  C   UNL     1       1.400   8.493  20.662  0.00  0.00    +0.000 A 
ATOM      7  C   UNL     1       2.049   7.273  20.473  0.00  0.00    +0.000 A 
ATOM      8  C   UNL     1       2.441   6.900  19.189  0.00  0.00    +0.000 A 
ATOM      9  C   UNL     1       2.230   7.778  18.122  0.00  0.00    +0.000 A 
ATOM     10  C   UNL     1       1.585   9.000  18.331  0.00  0.00    +0.000 A 
ATOM     11  C   UNL     1       1.156   9.372  19.608  0.00  0.00    +0.000 A 
ENDROOT
BRANCH   1  13
ATOM     12  C   UNL     1      -0.951  12.058  18.567  0.00  0.00    +0.000 C 
ATOM     13  O   UNL     1       0.319  11.457  18.782  0.00  0.00    +0.000 OA
ENDBRANCH   1  13
BRANCH   8  14
ATOM     14  O   UNL     1       3.017   5.664  19.078  0.00  0.00    +0.000 OA
BRANCH  14  15
ATOM     15  C   UNL     1       3.185   5.197  17.736  0.00  0.00    +0.000 C 
BRANCH  15  16
ATOM     16  C   UNL     1       4.637   4.913  17.433  0.00  0.00    +0.000 A 
ATOM     17  C   UNL     1       5.049   4.411  16.190  0.00  0.00    +0.000 A 
ATOM     18  C   UNL     1       6.405   4.223  15.909  0.00  0.00    +0.000 A 
ATOM     19  C   UNL     1       7.364   4.551  16.864  0.00  0.00    +0.000 A 
ATOM     20  C   UNL     1       6.960   5.065  18.090  0.00  0.00    +0.000 A 
ATOM     21  F   UNL     1       7.882   5.397  19.003  0.00  0.00    +0.000 F 
ATOM     22  C   UNL     1       5.614   5.252  18.381  0.00  0.00    +0.000 A 
ENDBRANCH  15  16
ENDBRANCH  14  15
ENDBRANCH   8  14
TORSDOF 4
ENDMDL
MODEL 8
REMARK VINA RESULT:      -7.4      3.637      6.459
REMARK  Name = 
REMARK  5 active torsions:
REMARK  status: ('A' for Active; 'I' for Inactive)
REMARK    1  A    between atoms: C_1  and  O_2
REMARK    2  A    between atoms: O_2  and  C_3
REMARK    3  A    between atoms: C_10  and  O_11
REMARK    4  A    between atoms: O_11  and  C_12
REMARK    5  A    between atoms: C_12  and  C_13
REMARK                            x       y       z     vdW  Elec       q    Type
REMARK                         _______ _______ _______ _____ _____    ______ ____
ROOT
ATOM      1  C   UNL     1       0.092  10.903  20.054  0.00  0.00    +0.000 A 
ATOM      2  C   UNL     1      -0.170  10.941  21.366  0.00  0.00    +0.000 A 
ATOM      3  C   UNL     1       0.298   9.909  22.302  0.00  0.00    +0.000 A 
ATOM      4  O   UNL     1      -0.002   9.970  23.489  0.00  0.00    +0.000 OA
ATOM      5  O   UNL     1       1.086   8.892  21.789  0.00  0.00    +0.000 OA
ATOM      6  C   UNL     1       1.350   8.813  20.409  0.00  0.00    +0.000 A 
ATOM      7  C   UNL     1       2.093   7.716  19.973  0.00  0.00    +0.000 A 
ATOM      8  C   UNL     1       2.337   7.556  18.610  0.00  0.00    +0.000 A 
ATOM      9  C   UNL     1       1.884   8.525  17.711  0.00  0.00    +0.000 A 
ATOM     10  C   UNL     1       1.149   9.622  18.166  0.00  0.00    +0.000 A 
ATOM     11  C   UNL     1       0.868   9.778  19.527  0.00  0.00    +0.000 A 
ENDROOT
BRANCH   1  13
ATOM     12  C   UNL     1      -0.908  13.028  19.565  0.00  0.00    +0.000 C 
ATOM     13  O   UNL     1      -0.295  11.828  19.110  0.00  0.00    +0.000 OA
ENDBRANCH   1  13
BRANCH   8  14
ATOM     14  O   UNL     1       3.020   6.424  18.257  0.00  0.00    +0.000 OA
BRANCH  14  15
ATOM     15  C   UNL     1       3.623   5.721  19.347  0.00  0.00    +0.000 C 
BRANCH  15  16
ATOM     16  C   UNL     1       2.754   4.576  19.808  0.00  0.00    +0.000 A 
ATOM     17  C   UNL     1       2.683   4.197  21.157  0.00  0.00    +0.000 A 
ATOM     18  C   UNL     1       1.817   3.179  21.569  0.00  0.00    +0.000 A 
ATOM     19  C   UNL     1       1.002   2.541  20.637  0.00  0.00    +0.000 A 
ATOM     20  C   UNL     1       1.057   2.927  19.304  0.00  0.00    +0.000 A 
ATOM     21  F   UNL     1       0.261   2.326  18.409  0.00  0.00    +0.000 F 
ATOM     22  C   UNL     1       1.917   3.935  18.882  0.00  0.00    +0.000 A 
ENDBRANCH  15  16
ENDBRANCH  14  15
ENDBRANCH   8  14
TORSDOF 4
ENDMDL
MODEL 9
REMARK VINA RESULT:      -7.3      3.624      6.225
REMARK  Name = 
REMARK  5 active torsions:
REMARK  status: ('A' for Active; 'I' for Inactive)
REMARK    1  A    between atoms: C_1  and  O_2
REMARK    2  A    between atoms: O_2  and  C_3
REMARK    3  A    between atoms: C_10  and  O_11
REMARK    4  A    between atoms: O_11  and  C_12
REMARK    5  A    between atoms: C_12  and  C_13
REMARK                            x       y       z     vdW  Elec       q    Type
REMARK                         _______ _______ _______ _____ _____    ______ ____
ROOT
ATOM      1  C   UNL     1      -0.408  10.759  20.342  0.00  0.00    +0.000 A 
ATOM      2  C   UNL     1      -0.549  10.674  21.670  0.00  0.00    +0.000 A 
ATOM      3  C   UNL     1       0.167   9.683  22.485  0.00  0.00    +0.000 A 
ATOM      4  O   UNL     1      -0.026   9.621  23.695  0.00  0.00    +0.000 OA
ATOM      5  O   UNL     1       1.061   8.848  21.835  0.00  0.00    +0.000 OA
ATOM      6  C   UNL     1       1.205   8.897  20.437  0.00  0.00    +0.000 A 
ATOM      7  C   UNL     1       2.074   7.971  19.860  0.00  0.00    +0.000 A 
ATOM      8  C   UNL     1       2.213   7.935  18.475  0.00  0.00    +0.000 A 
ATOM      9  C   UNL     1       1.525   8.865  17.690  0.00  0.00    +0.000 A 
ATOM     10  C   UNL     1       0.664   9.791  18.284  0.00  0.00    +0.000 A 
ATOM     11  C   UNL     1       0.490   9.816  19.671  0.00  0.00    +0.000 A 
ENDROOT
BRANCH   1  13
ATOM     12  C   UNL     1      -0.984  13.036  19.854  0.00  0.00    +0.000 C 
ATOM     13  O   UNL     1      -1.029  11.658  19.504  0.00  0.00    +0.000 OA
ENDBRANCH   1  13
BRANCH   8  14
ATOM     14  O   UNL     1       3.037   6.960  17.984  0.00  0.00    +0.000 OA
BRANCH  14  15
ATOM     15  C   UNL     1       3.494   6.013  18.955  0.00  0.00    +0.000 C 
BRANCH  15  16
ATOM     16  C   UNL     1       3.054   4.612  18.602  0.00  0.00    +0.000 A 
ATOM     17  C   UNL     1       3.920   3.700  17.978  0.00  0.00    +0.000 A 
ATOM     18  C   UNL     1       3.512   2.388  17.726  0.00  0.00    +0.000 A 
ATOM     19  C   UNL     1       2.240   1.969  18.108  0.00  0.00    +0.000 A 
ATOM     20  C   UNL     1       1.387   2.865  18.741  0.00  0.00    +0.000 A 
ATOM     21  F   UNL     1       0.170   2.459  19.125  0.00  0.00    +0.000 F 
ATOM     22  C   UNL     1       1.781   4.174  18.994  0.00  0.00    +0.000 A 
ENDBRANCH  15  16
ENDBRANCH  14  15
ENDBRANCH   8  14
TORSDOF 4
ENDMDL
