MODEL 1
REMARK VINA RESULT:      -8.1      0.000      0.000
REMARK  Name = 
REMARK  4 active torsions:
REMARK  status: ('A' for Active; 'I' for Inactive)
REMARK    1  A    between atoms: C_2  and  C_3
REMARK    2  A    between atoms: C_3  and  C_4
REMARK    3  A    between atoms: C_4  and  C_6
REMARK    4  A    between atoms: C_9  and  N_10
REMARK                            x       y       z     vdW  Elec       q    Type
REMARK                         _______ _______ _______ _____ _____    ______ ____
ROOT
ATOM      1  C   UNL     1       6.947   5.963  17.638  0.00  0.00    +0.000 C 
ATOM      2  C   UNL     1       6.824   5.522  16.364  0.00  0.00    +0.000 C 
ATOM      3  N   UNL     1       7.489   5.924  15.205  0.00  0.00    +0.000 N 
ATOM      4  C   UNL     1       7.222   5.084  14.100  0.00  0.00    +0.000 A 
ATOM      5  C   UNL     1       7.771   5.175  12.832  0.00  0.00    +0.000 A 
ATOM      6  C   UNL     1       7.346   4.275  11.836  0.00  0.00    +0.000 A 
ATOM      7  C   UNL     1       6.356   3.315  12.096  0.00  0.00    +0.000 A 
ATOM      8  C   UNL     1       5.780   3.239  13.357  0.00  0.00    +0.000 A 
ATOM      9  C   UNL     1       6.225   4.120  14.331  0.00  0.00    +0.000 A 
ATOM     10  S   UNL     1       5.676   4.153  16.008  0.00  0.00    +0.000 S 
ATOM     11  H   UNL     1       8.341   6.463  15.244  0.00  0.00    +0.000 HD
ENDROOT
BRANCH   1  13
ATOM     12  N   UNL     1       8.506   8.062  18.584  0.00  0.00    +0.000 NA
ATOM     13  C   UNL     1       7.799   7.111  18.155  0.00  0.00    +0.000 C 
ENDBRANCH   1  13
BRANCH   1  14
ATOM     14  C   UNL     1       6.130   5.358  18.793  0.00  0.00    +0.000 C 
ATOM     15  O   UNL     1       6.702   4.821  19.741  0.00  0.00    +0.000 OA
BRANCH  14  16
ATOM     16  C   UNL     1       4.656   5.325  18.733  0.00  0.00    +0.000 A 
ATOM     17  C   UNL     1       3.709   6.235  18.282  0.00  0.00    +0.000 A 
ATOM     18  C   UNL     1       2.367   5.724  18.378  0.00  0.00    +0.000 A 
ATOM     19  C   UNL     1       2.347   4.463  18.939  0.00  0.00    +0.000 A 
ATOM     20  S   UNL     1       3.889   3.903  19.340  0.00  0.00    +0.000 S 
BRANCH  19  21
ATOM     21  N   UNL     1       1.187   3.646  19.194  0.00  0.00    +0.000 N 
ATOM     22  O   UNL     1       0.679   3.758  20.316  0.00  0.00    +0.000 OA
ATOM     23  O   UNL     1       0.783   2.903  18.293  0.00  0.00    +0.000 OA
ENDBRANCH  19  21
ENDBRANCH  14  16
ENDBRANCH   1  14
TORSDOF 4
ENDMDL
MODEL 2
REMARK VINA RESULT:      -8.0      3.054      6.335
REMARK  Name = 
REMARK  4 active torsions:
REMARK  status: ('A' for Active; 'I' for Inactive)
REMARK    1  A    between atoms: C_2  and  C_3
REMARK    2  A    between atoms: C_3  and  C_4
REMARK    3  A    between atoms: C_4  and  C_6
REMARK    4  A    between atoms: C_9  and  N_10
REMARK                            x       y       z     vdW  Elec       q    Type
REMARK                         _______ _______ _______ _____ _____    ______ ____
ROOT
ATOM      1  C   UNL     1       6.310   5.713  17.487  0.00  0.00    +0.000 C 
ATOM      2  C   UNL     1       5.243   5.290  18.206  0.00  0.00    +0.000 C 
ATOM      3  N   UNL     1       4.335   6.015  18.978  0.00  0.00    +0.000 N 
ATOM      4  C   UNL     1       3.240   5.234  19.415  0.00  0.00    +0.000 A 
ATOM      5  C   UNL     1       2.144   5.668  20.142  0.00  0.00    +0.000 A 
ATOM      6  C   UNL     1       1.170   4.731  20.534  0.00  0.00    +0.000 A 
ATOM      7  C   UNL     1       1.308   3.367  20.234  0.00  0.00    +0.000 A 
ATOM      8  C   UNL     1       2.420   2.921  19.533  0.00  0.00    +0.000 A 
ATOM      9  C   UNL     1       3.359   3.861  19.136  0.00  0.00    +0.000 A 
ATOM     10  S   UNL     1       4.807   3.522  18.186  0.00  0.00    +0.000 S 
ATOM     11  H   UNL     1       4.245   7.017  18.889  0.00  0.00    +0.000 HD
ENDROOT
BRANCH   1  13
ATOM     12  N   UNL     1       7.352   8.286  17.316  0.00  0.00    +0.000 NA
ATOM     13  C   UNL     1       6.879   7.119  17.393  0.00  0.00    +0.000 C 
ENDBRANCH   1  13
BRANCH   1  14
ATOM     14  C   UNL     1       7.179   4.742  16.669  0.00  0.00    +0.000 C 
ATOM     15  O   UNL     1       8.100   4.130  17.209  0.00  0.00    +0.000 OA
BRANCH  14  16
ATOM     16  C   UNL     1       6.985   4.607  15.212  0.00  0.00    +0.000 A 
ATOM     17  C   UNL     1       7.596   5.206  14.119  0.00  0.00    +0.000 A 
ATOM     18  C   UNL     1       7.095   4.704  12.866  0.00  0.00    +0.000 A 
ATOM     19  C   UNL     1       6.093   3.775  13.060  0.00  0.00    +0.000 A 
ATOM     20  S   UNL     1       5.759   3.508  14.695  0.00  0.00    +0.000 S 
BRANCH  19  21
ATOM     21  N   UNL     1       5.358   3.065  12.043  0.00  0.00    +0.000 N 
ATOM     22  O   UNL     1       5.885   2.032  11.613  0.00  0.00    +0.000 OA
ATOM     23  O   UNL     1       4.272   3.525  11.674  0.00  0.00    +0.000 OA
ENDBRANCH  19  21
ENDBRANCH  14  16
ENDBRANCH   1  14
TORSDOF 4
ENDMDL
MODEL 3
REMARK VINA RESULT:      -7.8      3.386      6.637
REMARK  Name = 
REMARK  4 active torsions:
REMARK  status: ('A' for Active; 'I' for Inactive)
REMARK    1  A    between atoms: C_2  and  C_3
REMARK    2  A    between atoms: C_3  and  C_4
REMARK    3  A    between atoms: C_4  and  C_6
REMARK    4  A    between atoms: C_9  and  N_10
REMARK                            x       y       z     vdW  Elec       q    Type
REMARK                         _______ _______ _______ _____ _____    ______ ____
ROOT
ATOM      1  C   UNL     1       6.142   4.669  17.402  0.00  0.00    +0.000 C 
ATOM      2  C   UNL     1       5.050   4.220  18.065  0.00  0.00    +0.000 C 
ATOM      3  N   UNL     1       4.956   3.456  19.229  0.00  0.00    +0.000 N 
ATOM      4  C   UNL     1       3.632   3.359  19.716  0.00  0.00    +0.000 A 
ATOM      5  C   UNL     1       3.214   2.727  20.875  0.00  0.00    +0.000 A 
ATOM      6  C   UNL     1       1.840   2.689  21.176  0.00  0.00    +0.000 A 
ATOM      7  C   UNL     1       0.888   3.247  20.308  0.00  0.00    +0.000 A 
ATOM      8  C   UNL     1       1.298   3.854  19.129  0.00  0.00    +0.000 A 
ATOM      9  C   UNL     1       2.658   3.901  18.859  0.00  0.00    +0.000 A 
ATOM     10  S   UNL     1       3.396   4.677  17.457  0.00  0.00    +0.000 S 
ATOM     11  H   UNL     1       5.740   3.343  19.854  0.00  0.00    +0.000 HD
ENDROOT
BRANCH   1  13
ATOM     12  N   UNL     1       8.817   4.137  17.946  0.00  0.00    +0.000 NA
ATOM     13  C   UNL     1       7.604   4.378  17.700  0.00  0.00    +0.000 C 
ENDBRANCH   1  13
BRANCH   1  14
ATOM     14  C   UNL     1       6.030   5.535  16.136  0.00  0.00    +0.000 C 
ATOM     15  O   UNL     1       5.658   6.706  16.218  0.00  0.00    +0.000 OA
BRANCH  14  16
ATOM     16  C   UNL     1       6.268   4.950  14.803  0.00  0.00    +0.000 A 
ATOM     17  C   UNL     1       7.330   5.031  13.913  0.00  0.00    +0.000 A 
ATOM     18  C   UNL     1       7.125   4.226  12.737  0.00  0.00    +0.000 A 
ATOM     19  C   UNL     1       5.895   3.601  12.764  0.00  0.00    +0.000 A 
ATOM     20  S   UNL     1       5.009   3.963  14.156  0.00  0.00    +0.000 S 
BRANCH  19  21
ATOM     21  N   UNL     1       5.346   2.723  11.760  0.00  0.00    +0.000 N 
ATOM     22  O   UNL     1       4.225   3.022  11.331  0.00  0.00    +0.000 OA
ATOM     23  O   UNL     1       6.017   1.750  11.400  0.00  0.00    +0.000 OA
ENDBRANCH  19  21
ENDBRANCH  14  16
ENDBRANCH   1  14
TORSDOF 4
ENDMDL
MODEL 4
REMARK VINA RESULT:      -7.7      3.026      7.211
REMARK  Name = 
REMARK  4 active torsions:
REMARK  status: ('A' for Active; 'I' for Inactive)
REMARK    1  A    between atoms: C_2  and  C_3
REMARK    2  A    between atoms: C_3  and  C_4
REMARK    3  A    between atoms: C_4  and  C_6
REMARK    4  A    between atoms: C_9  and  N_10
REMARK                            x       y       z     vdW  Elec       q    Type
REMARK                         _______ _______ _______ _____ _____    ______ ____
ROOT
ATOM      1  C   UNL     1       2.769   4.266  19.869  0.00  0.00    +0.000 C 
ATOM      2  C   UNL     1       2.340   5.545  19.751  0.00  0.00    +0.000 C 
ATOM      3  N   UNL     1       1.784   6.399  20.704  0.00  0.00    +0.000 N 
ATOM      4  C   UNL     1       1.648   7.727  20.238  0.00  0.00    +0.000 A 
ATOM      5  C   UNL     1       1.189   8.819  20.956  0.00  0.00    +0.000 A 
ATOM      6  C   UNL     1       1.074  10.064  20.308  0.00  0.00    +0.000 A 
ATOM      7  C   UNL     1       1.380  10.207  18.945  0.00  0.00    +0.000 A 
ATOM      8  C   UNL     1       1.810   9.109  18.214  0.00  0.00    +0.000 A 
ATOM      9  C   UNL     1       1.937   7.896  18.873  0.00  0.00    +0.000 A 
ATOM     10  S   UNL     1       2.525   6.396  18.151  0.00  0.00    +0.000 S 
ATOM     11  H   UNL     1       1.856   6.209  21.693  0.00  0.00    +0.000 HD
ENDROOT
BRANCH   1  13
ATOM     12  N   UNL     1       2.596   2.598  22.088  0.00  0.00    +0.000 NA
ATOM     13  C   UNL     1       2.674   3.355  21.082  0.00  0.00    +0.000 C 
ENDBRANCH   1  13
BRANCH   1  14
ATOM     14  C   UNL     1       3.388   3.501  18.688  0.00  0.00    +0.000 C 
ATOM     15  O   UNL     1       2.898   2.435  18.315  0.00  0.00    +0.000 OA
BRANCH  14  16
ATOM     16  C   UNL     1       4.631   3.980  18.052  0.00  0.00    +0.000 A 
ATOM     17  C   UNL     1       5.814   4.496  18.563  0.00  0.00    +0.000 A 
ATOM     18  C   UNL     1       6.780   4.779  17.534  0.00  0.00    +0.000 A 
ATOM     19  C   UNL     1       6.273   4.507  16.279  0.00  0.00    +0.000 A 
ATOM     20  S   UNL     1       4.687   3.927  16.328  0.00  0.00    +0.000 S 
BRANCH  19  21
ATOM     21  N   UNL     1       6.949   4.670  15.016  0.00  0.00    +0.000 N 
ATOM     22  O   UNL     1       6.620   3.886  14.118  0.00  0.00    +0.000 OA
ATOM     23  O   UNL     1       7.795   5.566  14.914  0.00  0.00    +0.000 OA
ENDBRANCH  19  21
ENDBRANCH  14  16
ENDBRANCH   1  14
TORSDOF 4
ENDMDL
MODEL 5
REMARK VINA RESULT:      -7.7      2.343      2.491
REMARK  Name = 
REMARK  4 active torsions:
REMARK  status: ('A' for Active; 'I' for Inactive)
REMARK    1  A    between atoms: C_2  and  C_3
REMARK    2  A    between atoms: C_3  and  C_4
REMARK    3  A    between atoms: C_4  and  C_6
REMARK    4  A    between atoms: C_9  and  N_10
REMARK                            x       y       z     vdW  Elec       q    Type
REMARK                         _______ _______ _______ _____ _____    ______ ____
ROOT
ATOM      1  C   UNL     1       6.586   5.482  17.632  0.00  0.00    +0.000 C 
ATOM      2  C   UNL     1       6.525   5.176  16.314  0.00  0.00    +0.000 C 
ATOM      3  N   UNL     1       7.367   5.548  15.266  0.00  0.00    +0.000 N 
ATOM      4  C   UNL     1       7.081   4.863  14.062  0.00  0.00    +0.000 A 
ATOM      5  C   UNL     1       7.768   4.960  12.864  0.00  0.00    +0.000 A 
ATOM      6  C   UNL     1       7.305   4.235  11.750  0.00  0.00    +0.000 A 
ATOM      7  C   UNL     1       6.144   3.448  11.823  0.00  0.00    +0.000 A 
ATOM      8  C   UNL     1       5.434   3.372  13.013  0.00  0.00    +0.000 A 
ATOM      9  C   UNL     1       5.917   4.076  14.106  0.00  0.00    +0.000 A 
ATOM     10  S   UNL     1       5.207   4.067  15.722  0.00  0.00    +0.000 S 
ATOM     11  H   UNL     1       8.290   5.922  15.434  0.00  0.00    +0.000 HD
ENDROOT
BRANCH   1  13
ATOM     12  N   UNL     1       8.369   7.185  18.918  0.00  0.00    +0.000 NA
ATOM     13  C   UNL     1       7.560   6.413  18.335  0.00  0.00    +0.000 C 
ENDBRANCH   1  13
BRANCH   1  14
ATOM     14  C   UNL     1       5.562   4.938  18.643  0.00  0.00    +0.000 C 
ATOM     15  O   UNL     1       5.725   3.832  19.157  0.00  0.00    +0.000 OA
BRANCH  14  16
ATOM     16  C   UNL     1       4.325   5.688  18.935  0.00  0.00    +0.000 A 
ATOM     17  C   UNL     1       3.322   5.525  19.881  0.00  0.00    +0.000 A 
ATOM     18  C   UNL     1       2.325   6.560  19.810  0.00  0.00    +0.000 A 
ATOM     19  C   UNL     1       2.589   7.445  18.784  0.00  0.00    +0.000 A 
ATOM     20  S   UNL     1       3.991   7.050  17.928  0.00  0.00    +0.000 S 
BRANCH  19  21
ATOM     21  N   UNL     1       1.810   8.599  18.412  0.00  0.00    +0.000 N 
ATOM     22  O   UNL     1       1.975   9.017  17.259  0.00  0.00    +0.000 OA
ATOM     23  O   UNL     1       1.044   9.086  19.250  0.00  0.00    +0.000 OA
ENDBRANCH  19  21
ENDBRANCH  14  16
ENDBRANCH   1  14
TORSDOF 4
ENDMDL
MODEL 6
REMARK VINA RESULT:      -7.4      3.168      7.536
REMARK  Name = 
REMARK  4 active torsions:
REMARK  status: ('A' for Active; 'I' for Inactive)
REMARK    1  A    between atoms: C_2  and  C_3
REMARK    2  A    between atoms: C_3  and  C_4
REMARK    3  A    between atoms: C_4  and  C_6
REMARK    4  A    between atoms: C_9  and  N_10
REMARK                            x       y       z     vdW  Elec       q    Type
REMARK                         _______ _______ _______ _____ _____    ______ ____
ROOT
ATOM      1  C   UNL     1       2.168   4.975  19.915  0.00  0.00    +0.000 C 
ATOM      2  C   UNL     1       1.829   6.285  19.932  0.00  0.00    +0.000 C 
ATOM      3  N   UNL     1       1.514   7.118  21.007  0.00  0.00    +0.000 N 
ATOM      4  C   UNL     1       1.406   8.478  20.634  0.00  0.00    +0.000 A 
ATOM      5  C   UNL     1       1.166   9.555  21.470  0.00  0.00    +0.000 A 
ATOM      6  C   UNL     1       1.040  10.840  20.911  0.00  0.00    +0.000 A 
ATOM      7  C   UNL     1       1.117  11.042  19.524  0.00  0.00    +0.000 A 
ATOM      8  C   UNL     1       1.326   9.962  18.678  0.00  0.00    +0.000 A 
ATOM      9  C   UNL     1       1.469   8.706  19.248  0.00  0.00    +0.000 A 
ATOM     10  S   UNL     1       1.803   7.214  18.366  0.00  0.00    +0.000 S 
ATOM     11  H   UNL     1       1.740   6.865  21.957  0.00  0.00    +0.000 HD
ENDROOT
BRANCH   1  13
ATOM     12  N   UNL     1       2.247   3.194  22.050  0.00  0.00    +0.000 NA
ATOM     13  C   UNL     1       2.212   4.002  21.082  0.00  0.00    +0.000 C 
ENDBRANCH   1  13
BRANCH   1  14
ATOM     14  C   UNL     1       2.513   4.239  18.608  0.00  0.00    +0.000 C 
ATOM     15  O   UNL     1       1.680   3.510  18.069  0.00  0.00    +0.000 OA
BRANCH  14  16
ATOM     16  C   UNL     1       3.872   4.317  18.040  0.00  0.00    +0.000 A 
ATOM     17  C   UNL     1       4.370   4.143  16.755  0.00  0.00    +0.000 A 
ATOM     18  C   UNL     1       5.787   4.380  16.678  0.00  0.00    +0.000 A 
ATOM     19  C   UNL     1       6.316   4.683  17.917  0.00  0.00    +0.000 A 
ATOM     20  S   UNL     1       5.150   4.686  19.140  0.00  0.00    +0.000 S 
BRANCH  19  21
ATOM     21  N   UNL     1       7.693   4.976  18.224  0.00  0.00    +0.000 N 
ATOM     22  O   UNL     1       8.521   4.128  17.870  0.00  0.00    +0.000 OA
ATOM     23  O   UNL     1       7.953   6.033  18.809  0.00  0.00    +0.000 OA
ENDBRANCH  19  21
ENDBRANCH  14  16
ENDBRANCH   1  14
TORSDOF 4
ENDMDL
MODEL 7
REMARK VINA RESULT:      -7.4      3.527      7.886
REMARK  Name = 
REMARK  4 active torsions:
REMARK  status: ('A' for Active; 'I' for Inactive)
REMARK    1  A    between atoms: C_2  and  C_3
REMARK    2  A    between atoms: C_3  and  C_4
REMARK    3  A    between atoms: C_4  and  C_6
REMARK    4  A    between atoms: C_9  and  N_10
REMARK                            x       y       z     vdW  Elec       q    Type
REMARK                         _______ _______ _______ _____ _____    ______ ____
ROOT
ATOM      1  C   UNL     1       2.242   5.405  20.049  0.00  0.00    +0.000 C 
ATOM      2  C   UNL     1       1.797   6.680  20.137  0.00  0.00    +0.000 C 
ATOM      3  N   UNL     1       1.276   7.377  21.228  0.00  0.00    +0.000 N 
ATOM      4  C   UNL     1       1.106   8.757  20.968  0.00  0.00    +0.000 A 
ATOM      5  C   UNL     1       0.671   9.726  21.856  0.00  0.00    +0.000 A 
ATOM      6  C   UNL     1       0.514  11.049  21.402  0.00  0.00    +0.000 A 
ATOM      7  C   UNL     1       0.756  11.394  20.063  0.00  0.00    +0.000 A 
ATOM      8  C   UNL     1       1.162  10.421  19.161  0.00  0.00    +0.000 A 
ATOM      9  C   UNL     1       1.332   9.126  19.630  0.00  0.00    +0.000 A 
ATOM     10  S   UNL     1       1.900   7.757  18.673  0.00  0.00    +0.000 S 
ATOM     11  H   UNL     1       1.396   7.047  22.175  0.00  0.00    +0.000 HD
ENDROOT
BRANCH   1  13
ATOM     12  N   UNL     1       2.187   3.430  22.006  0.00  0.00    +0.000 NA
ATOM     13  C   UNL     1       2.212   4.325  21.119  0.00  0.00    +0.000 C 
ENDBRANCH   1  13
BRANCH   1  14
ATOM     14  C   UNL     1       2.814   4.829  18.742  0.00  0.00    +0.000 C 
ATOM     15  O   UNL     1       2.088   4.200  17.972  0.00  0.00    +0.000 OA
BRANCH  14  16
ATOM     16  C   UNL     1       4.255   4.936  18.443  0.00  0.00    +0.000 A 
ATOM     17  C   UNL     1       5.388   4.429  19.065  0.00  0.00    +0.000 A 
ATOM     18  C   UNL     1       6.598   4.763  18.359  0.00  0.00    +0.000 A 
ATOM     19  C   UNL     1       6.336   5.547  17.254  0.00  0.00    +0.000 A 
ATOM     20  S   UNL     1       4.690   5.875  17.062  0.00  0.00    +0.000 S 
BRANCH  19  21
ATOM     21  N   UNL     1       7.297   6.073  16.316  0.00  0.00    +0.000 N 
ATOM     22  O   UNL     1       7.511   5.382  15.313  0.00  0.00    +0.000 OA
ATOM     23  O   UNL     1       7.832   7.158  16.570  0.00  0.00    +0.000 OA
ENDBRANCH  19  21
ENDBRANCH  14  16
ENDBRANCH   1  14
TORSDOF 4
ENDMDL
MODEL 8
REMARK VINA RESULT:      -7.3      2.823      3.735
REMARK  Name = 
REMARK  4 active torsions:
REMARK  status: ('A' for Active; 'I' for Inactive)
REMARK    1  A    between atoms: C_2  and  C_3
REMARK    2  A    between atoms: C_3  and  C_4
REMARK    3  A    between atoms: C_4  and  C_6
REMARK    4  A    between atoms: C_9  and  N_10
REMARK                            x       y       z     vdW  Elec       q    Type
REMARK                         _______ _______ _______ _____ _____    ______ ____
ROOT
ATOM      1  C   UNL     1       4.760   3.773  17.393  0.00  0.00    +0.000 C 
ATOM      2  C   UNL     1       5.464   3.940  16.248  0.00  0.00    +0.000 C 
ATOM      3  N   UNL     1       5.426   3.216  15.056  0.00  0.00    +0.000 N 
ATOM      4  C   UNL     1       6.173   3.825  14.020  0.00  0.00    +0.000 A 
ATOM      5  C   UNL     1       6.286   3.393  12.710  0.00  0.00    +0.000 A 
ATOM      6  C   UNL     1       7.120   4.103  11.826  0.00  0.00    +0.000 A 
ATOM      7  C   UNL     1       7.862   5.214  12.257  0.00  0.00    +0.000 A 
ATOM      8  C   UNL     1       7.776   5.633  13.577  0.00  0.00    +0.000 A 
ATOM      9  C   UNL     1       6.934   4.934  14.429  0.00  0.00    +0.000 A 
ATOM     10  S   UNL     1       6.629   5.334  16.121  0.00  0.00    +0.000 S 
ATOM     11  H   UNL     1       4.661   2.595  14.837  0.00  0.00    +0.000 HD
ENDROOT
BRANCH   1  13
ATOM     12  N   UNL     1       2.961   1.747  18.020  0.00  0.00    +0.000 NA
ATOM     13  C   UNL     1       3.777   2.666  17.735  0.00  0.00    +0.000 C 
ENDBRANCH   1  13
BRANCH   1  14
ATOM     14  C   UNL     1       4.931   4.711  18.600  0.00  0.00    +0.000 C 
ATOM     15  O   UNL     1       5.924   4.620  19.320  0.00  0.00    +0.000 OA
BRANCH  14  16
ATOM     16  C   UNL     1       3.864   5.662  18.967  0.00  0.00    +0.000 A 
ATOM     17  C   UNL     1       2.969   5.715  20.027  0.00  0.00    +0.000 A 
ATOM     18  C   UNL     1       2.136   6.887  19.986  0.00  0.00    +0.000 A 
ATOM     19  C   UNL     1       2.402   7.656  18.871  0.00  0.00    +0.000 A 
ATOM     20  S   UNL     1       3.617   6.996  17.900  0.00  0.00    +0.000 S 
BRANCH  19  21
ATOM     21  N   UNL     1       1.764   8.894  18.498  0.00  0.00    +0.000 N 
ATOM     22  O   UNL     1       2.014   9.313  17.362  0.00  0.00    +0.000 OA
ATOM     23  O   UNL     1       1.024   9.444  19.320  0.00  0.00    +0.000 OA
ENDBRANCH  19  21
ENDBRANCH  14  16
ENDBRANCH   1  14
TORSDOF 4
ENDMDL
MODEL 9
REMARK VINA RESULT:      -7.3      6.150      8.202
REMARK  Name = 
REMARK  4 active torsions:
REMARK  status: ('A' for Active; 'I' for Inactive)
REMARK    1  A    between atoms: C_2  and  C_3
REMARK    2  A    between atoms: C_3  and  C_4
REMARK    3  A    between atoms: C_4  and  C_6
REMARK    4  A    between atoms: C_9  and  N_10
REMARK                            x       y       z     vdW  Elec       q    Type
REMARK                         _______ _______ _______ _____ _____    ______ ____
ROOT
ATOM      1  C   UNL     1       0.910   9.434  20.591  0.00  0.00    +0.000 C 
ATOM      2  C   UNL     1       1.549   8.313  20.182  0.00  0.00    +0.000 C 
ATOM      3  N   UNL     1       1.866   7.151  20.886  0.00  0.00    +0.000 N 
ATOM      4  C   UNL     1       2.363   6.122  20.052  0.00  0.00    +0.000 A 
ATOM      5  C   UNL     1       2.709   4.836  20.430  0.00  0.00    +0.000 A 
ATOM      6  C   UNL     1       3.237   3.958  19.465  0.00  0.00    +0.000 A 
ATOM      7  C   UNL     1       3.453   4.373  18.142  0.00  0.00    +0.000 A 
ATOM      8  C   UNL     1       3.137   5.671  17.764  0.00  0.00    +0.000 A 
ATOM      9  C   UNL     1       2.598   6.516  18.723  0.00  0.00    +0.000 A 
ATOM     10  S   UNL     1       2.070   8.176  18.442  0.00  0.00    +0.000 S 
ATOM     11  H   UNL     1       1.424   6.926  21.765  0.00  0.00    +0.000 HD
ENDROOT
BRANCH   1  13
ATOM     12  N   UNL     1       0.033  10.069  23.153  0.00  0.00    +0.000 NA
ATOM     13  C   UNL     1       0.431   9.781  21.991  0.00  0.00    +0.000 C 
ENDBRANCH   1  13
BRANCH   1  14
ATOM     14  C   UNL     1       0.629  10.608  19.637  0.00  0.00    +0.000 C 
ATOM     15  O   UNL     1       1.413  11.555  19.573  0.00  0.00    +0.000 OA
BRANCH  14  16
ATOM     16  C   UNL     1      -0.626  10.661  18.864  0.00  0.00    +0.000 A 
ATOM     17  C   UNL     1      -1.053  10.015  17.712  0.00  0.00    +0.000 A 
ATOM     18  C   UNL     1      -2.406  10.356  17.360  0.00  0.00    +0.000 A 
ATOM     19  C   UNL     1      -2.937  11.282  18.235  0.00  0.00    +0.000 A 
ATOM     20  S   UNL     1      -1.849  11.731  19.447  0.00  0.00    +0.000 S 
BRANCH  19  21
ATOM     21  N   UNL     1      -4.258  11.857  18.195  0.00  0.00    +0.000 N 
ATOM     22  O   UNL     1      -4.812  11.870  17.089  0.00  0.00    +0.000 OA
ATOM     23  O   UNL     1      -4.743  12.289  19.246  0.00  0.00    +0.000 OA
ENDBRANCH  19  21
ENDBRANCH  14  16
ENDBRANCH   1  14
TORSDOF 4
ENDMDL
