MODEL 1
REMARK VINA RESULT:      -7.6      0.000      0.000
REMARK  Name = 
REMARK  14 active torsions:
REMARK  status: ('A' for Active; 'I' for Inactive)
REMARK    1  A    between atoms: C_1  and  O_2
REMARK    2  A    between atoms: O_2  and  C_3
REMARK    3  A    between atoms: C_3  and  C_5
REMARK    4  A    between atoms: C_5  and  C_6
REMARK    5  A    between atoms: C_5  and  N_21
REMARK    6  A    between atoms: C_6  and  C_7
REMARK    7  A    between atoms: C_10  and  O_11
REMARK    8  A    between atoms: O_11  and  C_12
REMARK    9  A    between atoms: C_12  and  C_13
REMARK   10  A    between atoms: C_15  and  O_16
REMARK   11  A    between atoms: O_16  and  C_17
REMARK   12  A    between atoms: C_17  and  C_18
REMARK   13  A    between atoms: C_22  and  C_24
REMARK   14  A    between atoms: C_24  and  N_25
REMARK                            x       y       z     vdW  Elec       q    Type
REMARK                         _______ _______ _______ _____ _____    ______ ____
ROOT
ATOM      1  C   UNL     1       3.713   5.870  17.248  0.00  0.00    +0.000 C 
ENDROOT
BRANCH   1   2
ATOM      2  N   UNL     1       3.452   4.772  18.172  0.00  0.00    +0.000 N 
ATOM      3  C   UNL     1       2.233   4.132  18.156  0.00  0.00    +0.000 C 
ATOM      4  O   UNL     1       1.353   4.437  17.351  0.00  0.00    +0.000 OA
ATOM      5  H   UNL     1       4.028   4.618  18.993  0.00  0.00    +0.000 HD
BRANCH   3   6
ATOM      6  C   UNL     1       2.049   3.020  19.203  0.00  0.00    +0.000 C 
ATOM      7  C   UNL     1       0.949   3.425  20.194  0.00  0.00    +0.000 C 
ATOM      8  C   UNL     1       1.324   2.786  21.527  0.00  0.00    +0.000 C 
ATOM      9  C   UNL     1       2.807   2.441  21.446  0.00  0.00    +0.000 C 
ATOM     10  C   UNL     1       3.296   2.938  20.091  0.00  0.00    +0.000 C 
BRANCH   6  11
ATOM     11  N   UNL     1       1.748   1.709  18.575  0.00  0.00    +0.000 NA
ATOM     12  H   UNL     1       1.871   0.980  19.280  0.00  0.00    +0.000 HD
ATOM     13  H   UNL     1       2.455   1.512  17.864  0.00  0.00    +0.000 HD
ENDBRANCH   6  11
ENDBRANCH   3   6
ENDBRANCH   1   2
BRANCH   1  14
ATOM     14  C   UNL     1       4.964   5.546  16.430  0.00  0.00    +0.000 C 
ATOM     15  O   UNL     1       5.339   6.143  15.429  0.00  0.00    +0.000 OA
BRANCH  14  17
ATOM     16  C   UNL     1       7.025   4.445  16.711  0.00  0.00    +0.000 C 
ATOM     17  O   UNL     1       5.634   4.505  17.016  0.00  0.00    +0.000 OA
ENDBRANCH  14  17
ENDBRANCH   1  14
BRANCH   1  18
ATOM     18  C   UNL     1       3.837   7.193  18.019  0.00  0.00    +0.000 C 
BRANCH  18  19
ATOM     19  C   UNL     1       2.573   7.956  18.362  0.00  0.00    +0.000 A 
ATOM     20  C   UNL     1       2.045   8.996  17.592  0.00  0.00    +0.000 A 
ATOM     21  C   UNL     1       1.007   9.784  18.093  0.00  0.00    +0.000 A 
ATOM     22  C   UNL     1       0.485   9.539  19.368  0.00  0.00    +0.000 A 
ATOM     23  C   UNL     1       0.980   8.483  20.136  0.00  0.00    +0.000 A 
ATOM     24  C   UNL     1       1.969   7.656  19.598  0.00  0.00    +0.000 A 
BRANCH  22  25
ATOM     25  O   UNL     1      -0.450  10.513  19.795  0.00  0.00    +0.000 OA
BRANCH  25  26
ATOM     26  C   UNL     1      -0.270  11.891  19.707  0.00  0.00    +0.000 C 
ATOM     27  C   UNL     1       0.742  12.315  20.731  0.00  0.00    +0.000 C 
ATOM     28  O   UNL     1      -0.771  12.654  18.890  0.00  0.00    +0.000 OA
ENDBRANCH  25  26
ENDBRANCH  22  25
BRANCH  23  29
ATOM     29  O   UNL     1       0.580   8.387  21.492  0.00  0.00    +0.000 OA
BRANCH  29  30
ATOM     30  C   UNL     1       1.002   9.193  22.559  0.00  0.00    +0.000 C 
ATOM     31  C   UNL     1      -0.196   9.668  23.329  0.00  0.00    +0.000 C 
ATOM     32  O   UNL     1       2.146   9.539  22.820  0.00  0.00    +0.000 OA
ENDBRANCH  29  30
ENDBRANCH  23  29
ENDBRANCH  18  19
ENDBRANCH   1  18
TORSDOF 11
ENDMDL
MODEL 2
REMARK VINA RESULT:      -7.3      1.490      2.768
REMARK  Name = 
REMARK  14 active torsions:
REMARK  status: ('A' for Active; 'I' for Inactive)
REMARK    1  A    between atoms: C_1  and  O_2
REMARK    2  A    between atoms: O_2  and  C_3
REMARK    3  A    between atoms: C_3  and  C_5
REMARK    4  A    between atoms: C_5  and  C_6
REMARK    5  A    between atoms: C_5  and  N_21
REMARK    6  A    between atoms: C_6  and  C_7
REMARK    7  A    between atoms: C_10  and  O_11
REMARK    8  A    between atoms: O_11  and  C_12
REMARK    9  A    between atoms: C_12  and  C_13
REMARK   10  A    between atoms: C_15  and  O_16
REMARK   11  A    between atoms: O_16  and  C_17
REMARK   12  A    between atoms: C_17  and  C_18
REMARK   13  A    between atoms: C_22  and  C_24
REMARK   14  A    between atoms: C_24  and  N_25
REMARK                            x       y       z     vdW  Elec       q    Type
REMARK                         _______ _______ _______ _____ _____    ______ ____
ROOT
ATOM      1  C   UNL     1       4.391   5.763  17.385  0.00  0.00    +0.000 C 
ENDROOT
BRANCH   1   2
ATOM      2  N   UNL     1       3.616   4.932  18.299  0.00  0.00    +0.000 N 
ATOM      3  C   UNL     1       3.506   3.578  18.072  0.00  0.00    +0.000 C 
ATOM      4  O   UNL     1       4.077   3.031  17.130  0.00  0.00    +0.000 OA
ATOM      5  H   UNL     1       2.950   5.334  18.950  0.00  0.00    +0.000 HD
BRANCH   3   6
ATOM      6  C   UNL     1       2.628   2.804  19.071  0.00  0.00    +0.000 C 
ATOM      7  C   UNL     1       1.368   3.622  19.388  0.00  0.00    +0.000 C 
ATOM      8  C   UNL     1       0.987   3.274  20.823  0.00  0.00    +0.000 C 
ATOM      9  C   UNL     1       2.228   2.670  21.472  0.00  0.00    +0.000 C 
ATOM     10  C   UNL     1       3.337   2.729  20.429  0.00  0.00    +0.000 C 
BRANCH   6  11
ATOM     11  N   UNL     1       2.277   1.451  18.572  0.00  0.00    +0.000 NA
ATOM     12  H   UNL     1       3.067   0.828  18.749  0.00  0.00    +0.000 HD
ATOM     13  H   UNL     1       2.192   1.485  17.554  0.00  0.00    +0.000 HD
ENDBRANCH   6  11
ENDBRANCH   3   6
ENDBRANCH   1   2
BRANCH   1  14
ATOM     14  C   UNL     1       5.787   5.980  17.971  0.00  0.00    +0.000 C 
ATOM     15  O   UNL     1       6.155   5.642  19.089  0.00  0.00    +0.000 OA
BRANCH  14  17
ATOM     16  C   UNL     1       7.541   7.495  17.560  0.00  0.00    +0.000 C 
ATOM     17  O   UNL     1       6.587   6.576  17.033  0.00  0.00    +0.000 OA
ENDBRANCH  14  17
ENDBRANCH   1  14
BRANCH   1  18
ATOM     18  C   UNL     1       3.653   7.084  17.115  0.00  0.00    +0.000 C 
BRANCH  18  19
ATOM     19  C   UNL     1       2.868   7.721  18.245  0.00  0.00    +0.000 A 
ATOM     20  C   UNL     1       2.647   7.122  19.489  0.00  0.00    +0.000 A 
ATOM     21  C   UNL     1       1.734   7.681  20.385  0.00  0.00    +0.000 A 
ATOM     22  C   UNL     1       1.033   8.844  20.048  0.00  0.00    +0.000 A 
ATOM     23  C   UNL     1       1.268   9.472  18.823  0.00  0.00    +0.000 A 
ATOM     24  C   UNL     1       2.234   8.945  17.963  0.00  0.00    +0.000 A 
BRANCH  22  25
ATOM     25  O   UNL     1       0.036   9.199  20.989  0.00  0.00    +0.000 OA
BRANCH  25  26
ATOM     26  C   UNL     1       0.162  10.192  21.956  0.00  0.00    +0.000 C 
ATOM     27  C   UNL     1      -0.230   9.624  23.289  0.00  0.00    +0.000 C 
ATOM     28  O   UNL     1       0.595  11.327  21.802  0.00  0.00    +0.000 OA
ENDBRANCH  25  26
ENDBRANCH  22  25
BRANCH  23  29
ATOM     29  O   UNL     1       0.402  10.521  18.424  0.00  0.00    +0.000 OA
BRANCH  29  30
ATOM     30  C   UNL     1      -0.942  10.413  18.043  0.00  0.00    +0.000 C 
ATOM     31  C   UNL     1      -1.779  11.311  18.905  0.00  0.00    +0.000 C 
ATOM     32  O   UNL     1      -1.415   9.667  17.195  0.00  0.00    +0.000 OA
ENDBRANCH  29  30
ENDBRANCH  23  29
ENDBRANCH  18  19
ENDBRANCH   1  18
TORSDOF 11
ENDMDL
MODEL 3
REMARK VINA RESULT:      -7.3      1.773      4.143
REMARK  Name = 
REMARK  14 active torsions:
REMARK  status: ('A' for Active; 'I' for Inactive)
REMARK    1  A    between atoms: C_1  and  O_2
REMARK    2  A    between atoms: O_2  and  C_3
REMARK    3  A    between atoms: C_3  and  C_5
REMARK    4  A    between atoms: C_5  and  C_6
REMARK    5  A    between atoms: C_5  and  N_21
REMARK    6  A    between atoms: C_6  and  C_7
REMARK    7  A    between atoms: C_10  and  O_11
REMARK    8  A    between atoms: O_11  and  C_12
REMARK    9  A    between atoms: C_12  and  C_13
REMARK   10  A    between atoms: C_15  and  O_16
REMARK   11  A    between atoms: O_16  and  C_17
REMARK   12  A    between atoms: C_17  and  C_18
REMARK   13  A    between atoms: C_22  and  C_24
REMARK   14  A    between atoms: C_24  and  N_25
REMARK                            x       y       z     vdW  Elec       q    Type
REMARK                         _______ _______ _______ _____ _____    ______ ____
ROOT
ATOM      1  C   UNL     1       3.274   4.569  18.968  0.00  0.00    +0.000 C 
ENDROOT
BRANCH   1   2
ATOM      2  N   UNL     1       4.154   4.554  17.806  0.00  0.00    +0.000 N 
ATOM      3  C   UNL     1       5.508   4.364  17.970  0.00  0.00    +0.000 C 
ATOM      4  O   UNL     1       6.004   4.169  19.079  0.00  0.00    +0.000 OA
ATOM      5  H   UNL     1       3.858   4.923  16.909  0.00  0.00    +0.000 HD
BRANCH   3   6
ATOM      6  C   UNL     1       6.349   4.411  16.682  0.00  0.00    +0.000 C 
ATOM      7  C   UNL     1       6.098   5.739  15.954  0.00  0.00    +0.000 C 
ATOM      8  C   UNL     1       6.259   5.444  14.467  0.00  0.00    +0.000 C 
ATOM      9  C   UNL     1       6.124   3.934  14.302  0.00  0.00    +0.000 C 
ATOM     10  C   UNL     1       5.823   3.371  15.686  0.00  0.00    +0.000 C 
BRANCH   6  11
ATOM     11  N   UNL     1       7.795   4.215  16.954  0.00  0.00    +0.000 NA
ATOM     12  H   UNL     1       8.256   5.125  16.911  0.00  0.00    +0.000 HD
ATOM     13  H   UNL     1       8.205   3.675  16.190  0.00  0.00    +0.000 HD
ENDBRANCH   6  11
ENDBRANCH   3   6
ENDBRANCH   1   2
BRANCH   1  14
ATOM     14  C   UNL     1       1.836   4.322  18.508  0.00  0.00    +0.000 C 
ATOM     15  O   UNL     1       1.441   4.347  17.350  0.00  0.00    +0.000 OA
BRANCH  14  17
ATOM     16  C   UNL     1       0.761   2.637  19.752  0.00  0.00    +0.000 C 
ATOM     17  O   UNL     1       1.056   4.023  19.593  0.00  0.00    +0.000 OA
ENDBRANCH  14  17
ENDBRANCH   1  14
BRANCH   1  18
ATOM     18  C   UNL     1       3.429   5.893  19.733  0.00  0.00    +0.000 C 
BRANCH  18  19
ATOM     19  C   UNL     1       2.532   7.057  19.361  0.00  0.00    +0.000 A 
ATOM     20  C   UNL     1       2.462   7.623  18.084  0.00  0.00    +0.000 A 
ATOM     21  C   UNL     1       1.778   8.823  17.886  0.00  0.00    +0.000 A 
ATOM     22  C   UNL     1       1.156   9.470  18.959  0.00  0.00    +0.000 A 
ATOM     23  C   UNL     1       1.190   8.900  20.233  0.00  0.00    +0.000 A 
ATOM     24  C   UNL     1       1.815   7.663  20.409  0.00  0.00    +0.000 A 
BRANCH  22  25
ATOM     25  O   UNL     1       0.641  10.747  18.631  0.00  0.00    +0.000 OA
BRANCH  25  26
ATOM     26  C   UNL     1      -0.704  11.038  18.412  0.00  0.00    +0.000 C 
ATOM     27  C   UNL     1      -1.083  12.232  19.239  0.00  0.00    +0.000 C 
ATOM     28  O   UNL     1      -1.463  10.489  17.623  0.00  0.00    +0.000 OA
ENDBRANCH  25  26
ENDBRANCH  22  25
BRANCH  23  29
ATOM     29  O   UNL     1       0.734   9.671  21.332  0.00  0.00    +0.000 OA
BRANCH  29  30
ATOM     30  C   UNL     1      -0.363   9.402  22.160  0.00  0.00    +0.000 C 
ATOM     31  C   UNL     1      -0.771  10.657  22.874  0.00  0.00    +0.000 C 
ATOM     32  O   UNL     1      -0.896   8.317  22.357  0.00  0.00    +0.000 OA
ENDBRANCH  29  30
ENDBRANCH  23  29
ENDBRANCH  18  19
ENDBRANCH   1  18
TORSDOF 11
ENDMDL
MODEL 4
REMARK VINA RESULT:      -7.2      1.777      4.144
REMARK  Name = 
REMARK  14 active torsions:
REMARK  status: ('A' for Active; 'I' for Inactive)
REMARK    1  A    between atoms: C_1  and  O_2
REMARK    2  A    between atoms: O_2  and  C_3
REMARK    3  A    between atoms: C_3  and  C_5
REMARK    4  A    between atoms: C_5  and  C_6
REMARK    5  A    between atoms: C_5  and  N_21
REMARK    6  A    between atoms: C_6  and  C_7
REMARK    7  A    between atoms: C_10  and  O_11
REMARK    8  A    between atoms: O_11  and  C_12
REMARK    9  A    between atoms: C_12  and  C_13
REMARK   10  A    between atoms: C_15  and  O_16
REMARK   11  A    between atoms: O_16  and  C_17
REMARK   12  A    between atoms: C_17  and  C_18
REMARK   13  A    between atoms: C_22  and  C_24
REMARK   14  A    between atoms: C_24  and  N_25
REMARK                            x       y       z     vdW  Elec       q    Type
REMARK                         _______ _______ _______ _____ _____    ______ ____
ROOT
ATOM      1  C   UNL     1       3.092   4.550  19.207  0.00  0.00    +0.000 C 
ENDROOT
BRANCH   1   2
ATOM      2  N   UNL     1       3.959   4.637  18.037  0.00  0.00    +0.000 N 
ATOM      3  C   UNL     1       5.296   4.327  18.147  0.00  0.00    +0.000 C 
ATOM      4  O   UNL     1       5.786   3.940  19.208  0.00  0.00    +0.000 OA
ATOM      5  H   UNL     1       3.684   5.150  17.207  0.00  0.00    +0.000 HD
BRANCH   3   6
ATOM      6  C   UNL     1       6.127   4.496  16.863  0.00  0.00    +0.000 C 
ATOM      7  C   UNL     1       5.754   5.819  16.180  0.00  0.00    +0.000 C 
ATOM      8  C   UNL     1       5.940   5.591  14.684  0.00  0.00    +0.000 C 
ATOM      9  C   UNL     1       5.944   4.082  14.468  0.00  0.00    +0.000 C 
ATOM     10  C   UNL     1       5.699   3.446  15.831  0.00  0.00    +0.000 C 
BRANCH   6  11
ATOM     11  N   UNL     1       7.586   4.424  17.131  0.00  0.00    +0.000 NA
ATOM     12  H   UNL     1       7.723   3.984  18.043  0.00  0.00    +0.000 HD
ATOM     13  H   UNL     1       7.950   5.372  17.238  0.00  0.00    +0.000 HD
ENDBRANCH   6  11
ENDBRANCH   3   6
ENDBRANCH   1   2
BRANCH   1  14
ATOM     14  C   UNL     1       1.668   4.231  18.749  0.00  0.00    +0.000 C 
ATOM     15  O   UNL     1       1.285   4.175  17.588  0.00  0.00    +0.000 OA
BRANCH  14  17
ATOM     16  C   UNL     1       1.256   2.808  20.578  0.00  0.00    +0.000 C 
ATOM     17  O   UNL     1       0.886   3.972  19.843  0.00  0.00    +0.000 OA
ENDBRANCH  14  17
ENDBRANCH   1  14
BRANCH   1  18
ATOM     18  C   UNL     1       3.173   5.850  20.023  0.00  0.00    +0.000 C 
BRANCH  18  19
ATOM     19  C   UNL     1       2.386   7.056  19.547  0.00  0.00    +0.000 A 
ATOM     20  C   UNL     1       2.323   7.483  18.218  0.00  0.00    +0.000 A 
ATOM     21  C   UNL     1       1.760   8.722  17.905  0.00  0.00    +0.000 A 
ATOM     22  C   UNL     1       1.252   9.545  18.916  0.00  0.00    +0.000 A 
ATOM     23  C   UNL     1       1.278   9.116  20.245  0.00  0.00    +0.000 A 
ATOM     24  C   UNL     1       1.779   7.846  20.541  0.00  0.00    +0.000 A 
BRANCH  22  25
ATOM     25  O   UNL     1       0.858  10.826  18.461  0.00  0.00    +0.000 OA
BRANCH  25  26
ATOM     26  C   UNL     1       1.457  12.028  18.831  0.00  0.00    +0.000 C 
ATOM     27  C   UNL     1       2.663  12.254  17.968  0.00  0.00    +0.000 C 
ATOM     28  O   UNL     1       1.053  12.834  19.659  0.00  0.00    +0.000 OA
ENDBRANCH  25  26
ENDBRANCH  22  25
BRANCH  23  29
ATOM     29  O   UNL     1       0.949  10.047  21.262  0.00  0.00    +0.000 OA
BRANCH  29  30
ATOM     30  C   UNL     1      -0.319  10.302  21.801  0.00  0.00    +0.000 C 
ATOM     31  C   UNL     1      -0.541   9.419  22.994  0.00  0.00    +0.000 C 
ATOM     32  O   UNL     1      -1.172  11.063  21.364  0.00  0.00    +0.000 OA
ENDBRANCH  29  30
ENDBRANCH  23  29
ENDBRANCH  18  19
ENDBRANCH   1  18
TORSDOF 11
ENDMDL
MODEL 5
REMARK VINA RESULT:      -7.2      1.634      4.040
REMARK  Name = 
REMARK  14 active torsions:
REMARK  status: ('A' for Active; 'I' for Inactive)
REMARK    1  A    between atoms: C_1  and  O_2
REMARK    2  A    between atoms: O_2  and  C_3
REMARK    3  A    between atoms: C_3  and  C_5
REMARK    4  A    between atoms: C_5  and  C_6
REMARK    5  A    between atoms: C_5  and  N_21
REMARK    6  A    between atoms: C_6  and  C_7
REMARK    7  A    between atoms: C_10  and  O_11
REMARK    8  A    between atoms: O_11  and  C_12
REMARK    9  A    between atoms: C_12  and  C_13
REMARK   10  A    between atoms: C_15  and  O_16
REMARK   11  A    between atoms: O_16  and  C_17
REMARK   12  A    between atoms: C_17  and  C_18
REMARK   13  A    between atoms: C_22  and  C_24
REMARK   14  A    between atoms: C_24  and  N_25
REMARK                            x       y       z     vdW  Elec       q    Type
REMARK                         _______ _______ _______ _____ _____    ______ ____
ROOT
ATOM      1  C   UNL     1       3.192   4.576  19.075  0.00  0.00    +0.000 C 
ENDROOT
BRANCH   1   2
ATOM      2  N   UNL     1       4.078   4.655  17.920  0.00  0.00    +0.000 N 
ATOM      3  C   UNL     1       5.397   4.276  18.037  0.00  0.00    +0.000 C 
ATOM      4  O   UNL     1       5.852   3.834  19.090  0.00  0.00    +0.000 OA
ATOM      5  H   UNL     1       3.840   5.207  17.103  0.00  0.00    +0.000 HD
BRANCH   3   6
ATOM      6  C   UNL     1       6.253   4.443  16.769  0.00  0.00    +0.000 C 
ATOM      7  C   UNL     1       5.885   5.759  16.071  0.00  0.00    +0.000 C 
ATOM      8  C   UNL     1       6.104   5.524  14.580  0.00  0.00    +0.000 C 
ATOM      9  C   UNL     1       6.122   4.014  14.373  0.00  0.00    +0.000 C 
ATOM     10  C   UNL     1       5.852   3.384  15.735  0.00  0.00    +0.000 C 
BRANCH   6  11
ATOM     11  N   UNL     1       7.706   4.382  17.067  0.00  0.00    +0.000 NA
ATOM     12  H   UNL     1       7.821   4.200  18.066  0.00  0.00    +0.000 HD
ATOM     13  H   UNL     1       8.114   5.307  16.919  0.00  0.00    +0.000 HD
ENDBRANCH   6  11
ENDBRANCH   3   6
ENDBRANCH   1   2
BRANCH   1  14
ATOM     14  C   UNL     1       1.762   4.331  18.591  0.00  0.00    +0.000 C 
ATOM     15  O   UNL     1       1.360   4.473  17.443  0.00  0.00    +0.000 OA
BRANCH  14  17
ATOM     16  C   UNL     1       1.250   2.534  20.022  0.00  0.00    +0.000 C 
ATOM     17  O   UNL     1       0.998   3.883  19.635  0.00  0.00    +0.000 OA
ENDBRANCH  14  17
ENDBRANCH   1  14
BRANCH   1  18
ATOM     18  C   UNL     1       3.316   5.849  19.926  0.00  0.00    +0.000 C 
BRANCH  18  19
ATOM     19  C   UNL     1       2.334   6.980  19.690  0.00  0.00    +0.000 A 
ATOM     20  C   UNL     1       2.415   7.887  18.629  0.00  0.00    +0.000 A 
ATOM     21  C   UNL     1       1.602   9.022  18.614  0.00  0.00    +0.000 A 
ATOM     22  C   UNL     1       0.700   9.262  19.656  0.00  0.00    +0.000 A 
ATOM     23  C   UNL     1       0.585   8.348  20.705  0.00  0.00    +0.000 A 
ATOM     24  C   UNL     1       1.351   7.180  20.677  0.00  0.00    +0.000 A 
BRANCH  22  25
ATOM     25  O   UNL     1       0.063  10.524  19.576  0.00  0.00    +0.000 OA
BRANCH  25  26
ATOM     26  C   UNL     1       0.674  11.749  19.830  0.00  0.00    +0.000 C 
ATOM     27  C   UNL     1       0.197  12.748  18.818  0.00  0.00    +0.000 C 
ATOM     28  O   UNL     1       1.418  12.028  20.762  0.00  0.00    +0.000 OA
ENDBRANCH  25  26
ENDBRANCH  22  25
BRANCH  23  29
ATOM     29  O   UNL     1      -0.179   8.714  21.841  0.00  0.00    +0.000 OA
BRANCH  29  30
ATOM     30  C   UNL     1       0.200   9.583  22.873  0.00  0.00    +0.000 C 
ATOM     31  C   UNL     1      -0.885  10.596  23.097  0.00  0.00    +0.000 C 
ATOM     32  O   UNL     1       1.263   9.596  23.479  0.00  0.00    +0.000 OA
ENDBRANCH  29  30
ENDBRANCH  23  29
ENDBRANCH  18  19
ENDBRANCH   1  18
TORSDOF 11
ENDMDL
MODEL 6
REMARK VINA RESULT:      -7.1      1.310      2.618
REMARK  Name = 
REMARK  14 active torsions:
REMARK  status: ('A' for Active; 'I' for Inactive)
REMARK    1  A    between atoms: C_1  and  O_2
REMARK    2  A    between atoms: O_2  and  C_3
REMARK    3  A    between atoms: C_3  and  C_5
REMARK    4  A    between atoms: C_5  and  C_6
REMARK    5  A    between atoms: C_5  and  N_21
REMARK    6  A    between atoms: C_6  and  C_7
REMARK    7  A    between atoms: C_10  and  O_11
REMARK    8  A    between atoms: O_11  and  C_12
REMARK    9  A    between atoms: C_12  and  C_13
REMARK   10  A    between atoms: C_15  and  O_16
REMARK   11  A    between atoms: O_16  and  C_17
REMARK   12  A    between atoms: C_17  and  C_18
REMARK   13  A    between atoms: C_22  and  C_24
REMARK   14  A    between atoms: C_24  and  N_25
REMARK                            x       y       z     vdW  Elec       q    Type
REMARK                         _______ _______ _______ _____ _____    ______ ____
ROOT
ATOM      1  C   UNL     1       4.593   5.693  17.297  0.00  0.00    +0.000 C 
ENDROOT
BRANCH   1   2
ATOM      2  N   UNL     1       4.057   4.758  18.279  0.00  0.00    +0.000 N 
ATOM      3  C   UNL     1       3.254   3.716  17.871  0.00  0.00    +0.000 C 
ATOM      4  O   UNL     1       2.997   3.524  16.684  0.00  0.00    +0.000 OA
ATOM      5  H   UNL     1       4.039   4.977  19.269  0.00  0.00    +0.000 HD
BRANCH   3   6
ATOM      6  C   UNL     1       2.706   2.818  18.994  0.00  0.00    +0.000 C 
ATOM      7  C   UNL     1       1.305   3.297  19.397  0.00  0.00    +0.000 C 
ATOM      8  C   UNL     1       1.156   2.973  20.880  0.00  0.00    +0.000 C 
ATOM      9  C   UNL     1       2.564   2.768  21.427  0.00  0.00    +0.000 C 
ATOM     10  C   UNL     1       3.523   3.036  20.273  0.00  0.00    +0.000 C 
BRANCH   6  11
ATOM     11  N   UNL     1       2.690   1.385  18.603  0.00  0.00    +0.000 NA
ATOM     12  H   UNL     1       3.625   1.003  18.750  0.00  0.00    +0.000 HD
ATOM     13  H   UNL     1       2.533   1.319  17.595  0.00  0.00    +0.000 HD
ENDBRANCH   6  11
ENDBRANCH   3   6
ENDBRANCH   1   2
BRANCH   1  14
ATOM     14  C   UNL     1       5.960   6.188  17.774  0.00  0.00    +0.000 C 
ATOM     15  O   UNL     1       6.634   7.057  17.237  0.00  0.00    +0.000 OA
BRANCH  14  17
ATOM     16  C   UNL     1       7.644   5.750  19.360  0.00  0.00    +0.000 C 
ATOM     17  O   UNL     1       6.301   5.538  18.930  0.00  0.00    +0.000 OA
ENDBRANCH  14  17
ENDBRANCH   1  14
BRANCH   1  18
ATOM     18  C   UNL     1       3.599   6.840  17.060  0.00  0.00    +0.000 C 
BRANCH  18  19
ATOM     19  C   UNL     1       2.894   7.448  18.257  0.00  0.00    +0.000 A 
ATOM     20  C   UNL     1       2.681   6.785  19.469  0.00  0.00    +0.000 A 
ATOM     21  C   UNL     1       1.835   7.338  20.432  0.00  0.00    +0.000 A 
ATOM     22  C   UNL     1       1.195   8.560  20.195  0.00  0.00    +0.000 A 
ATOM     23  C   UNL     1       1.425   9.250  19.003  0.00  0.00    +0.000 A 
ATOM     24  C   UNL     1       2.327   8.723  18.076  0.00  0.00    +0.000 A 
BRANCH  22  25
ATOM     25  O   UNL     1       0.255   8.911  21.194  0.00  0.00    +0.000 OA
BRANCH  25  26
ATOM     26  C   UNL     1       0.564   9.510  22.412  0.00  0.00    +0.000 C 
ATOM     27  C   UNL     1      -0.704  10.000  23.048  0.00  0.00    +0.000 C 
ATOM     28  O   UNL     1       1.662   9.574  22.950  0.00  0.00    +0.000 OA
ENDBRANCH  25  26
ENDBRANCH  22  25
BRANCH  23  29
ATOM     29  O   UNL     1       0.612  10.372  18.704  0.00  0.00    +0.000 OA
BRANCH  29  30
ATOM     30  C   UNL     1       0.811  11.697  19.113  0.00  0.00    +0.000 C 
ATOM     31  C   UNL     1      -0.410  12.185  19.835  0.00  0.00    +0.000 C 
ATOM     32  O   UNL     1       1.781  12.407  18.883  0.00  0.00    +0.000 OA
ENDBRANCH  29  30
ENDBRANCH  23  29
ENDBRANCH  18  19
ENDBRANCH   1  18
TORSDOF 11
ENDMDL
MODEL 7
REMARK VINA RESULT:      -7.1      1.715      4.636
REMARK  Name = 
REMARK  14 active torsions:
REMARK  status: ('A' for Active; 'I' for Inactive)
REMARK    1  A    between atoms: C_1  and  O_2
REMARK    2  A    between atoms: O_2  and  C_3
REMARK    3  A    between atoms: C_3  and  C_5
REMARK    4  A    between atoms: C_5  and  C_6
REMARK    5  A    between atoms: C_5  and  N_21
REMARK    6  A    between atoms: C_6  and  C_7
REMARK    7  A    between atoms: C_10  and  O_11
REMARK    8  A    between atoms: O_11  and  C_12
REMARK    9  A    between atoms: C_12  and  C_13
REMARK   10  A    between atoms: C_15  and  O_16
REMARK   11  A    between atoms: O_16  and  C_17
REMARK   12  A    between atoms: C_17  and  C_18
REMARK   13  A    between atoms: C_22  and  C_24
REMARK   14  A    between atoms: C_24  and  N_25
REMARK                            x       y       z     vdW  Elec       q    Type
REMARK                         _______ _______ _______ _____ _____    ______ ____
ROOT
ATOM      1  C   UNL     1       3.339   5.794  18.329  0.00  0.00    +0.000 C 
ENDROOT
BRANCH   1   2
ATOM      2  N   UNL     1       4.321   5.343  17.350  0.00  0.00    +0.000 N 
ATOM      3  C   UNL     1       5.615   5.078  17.744  0.00  0.00    +0.000 C 
ATOM      4  O   UNL     1       5.966   5.179  18.919  0.00  0.00    +0.000 OA
ATOM      5  H   UNL     1       4.169   5.451  16.353  0.00  0.00    +0.000 HD
BRANCH   3   6
ATOM      6  C   UNL     1       6.579   4.652  16.623  0.00  0.00    +0.000 C 
ATOM      7  C   UNL     1       6.810   5.832  15.669  0.00  0.00    +0.000 C 
ATOM      8  C   UNL     1       7.053   5.222  14.293  0.00  0.00    +0.000 C 
ATOM      9  C   UNL     1       6.508   3.799  14.341  0.00  0.00    +0.000 C 
ATOM     10  C   UNL     1       5.896   3.614  15.724  0.00  0.00    +0.000 C 
BRANCH   6  11
ATOM     11  N   UNL     1       7.864   4.138  17.161  0.00  0.00    +0.000 NA
ATOM     12  H   UNL     1       7.657   3.387  17.822  0.00  0.00    +0.000 HD
ATOM     13  H   UNL     1       8.304   4.869  17.721  0.00  0.00    +0.000 HD
ENDBRANCH   6  11
ENDBRANCH   3   6
ENDBRANCH   1   2
BRANCH   1  14
ATOM     14  C   UNL     1       2.201   4.775  18.399  0.00  0.00    +0.000 C 
ATOM     15  O   UNL     1       1.432   4.496  17.488  0.00  0.00    +0.000 OA
BRANCH  14  17
ATOM     16  C   UNL     1       2.893   2.942  19.704  0.00  0.00    +0.000 C 
ATOM     17  O   UNL     1       2.195   4.184  19.634  0.00  0.00    +0.000 OA
ENDBRANCH  14  17
ENDBRANCH   1  14
BRANCH   1  18
ATOM     18  C   UNL     1       2.847   7.206  17.972  0.00  0.00    +0.000 C 
BRANCH  18  19
ATOM     19  C   UNL     1       2.079   7.992  19.016  0.00  0.00    +0.000 A 
ATOM     20  C   UNL     1       1.904   7.584  20.342  0.00  0.00    +0.000 A 
ATOM     21  C   UNL     1       1.003   8.256  21.170  0.00  0.00    +0.000 A 
ATOM     22  C   UNL     1       0.269   9.343  20.684  0.00  0.00    +0.000 A 
ATOM     23  C   UNL     1       0.457   9.782  19.372  0.00  0.00    +0.000 A 
ATOM     24  C   UNL     1       1.412   9.149  18.572  0.00  0.00    +0.000 A 
BRANCH  22  25
ATOM     25  O   UNL     1      -0.710   9.818  21.589  0.00  0.00    +0.000 OA
BRANCH  25  26
ATOM     26  C   UNL     1      -0.446  10.362  22.844  0.00  0.00    +0.000 C 
ATOM     27  C   UNL     1      -1.196  11.655  22.979  0.00  0.00    +0.000 C 
ATOM     28  O   UNL     1       0.214   9.861  23.746  0.00  0.00    +0.000 OA
ENDBRANCH  25  26
ENDBRANCH  22  25
BRANCH  23  29
ATOM     29  O   UNL     1      -0.441  10.745  18.845  0.00  0.00    +0.000 OA
BRANCH  29  30
ATOM     30  C   UNL     1      -0.345  12.139  18.947  0.00  0.00    +0.000 C 
ATOM     31  C   UNL     1      -1.649  12.694  19.439  0.00  0.00    +0.000 C 
ATOM     32  O   UNL     1       0.606  12.842  18.632  0.00  0.00    +0.000 OA
ENDBRANCH  29  30
ENDBRANCH  23  29
ENDBRANCH  18  19
ENDBRANCH   1  18
TORSDOF 11
ENDMDL
MODEL 8
REMARK VINA RESULT:      -7.1      1.698      4.261
REMARK  Name = 
REMARK  14 active torsions:
REMARK  status: ('A' for Active; 'I' for Inactive)
REMARK    1  A    between atoms: C_1  and  O_2
REMARK    2  A    between atoms: O_2  and  C_3
REMARK    3  A    between atoms: C_3  and  C_5
REMARK    4  A    between atoms: C_5  and  C_6
REMARK    5  A    between atoms: C_5  and  N_21
REMARK    6  A    between atoms: C_6  and  C_7
REMARK    7  A    between atoms: C_10  and  O_11
REMARK    8  A    between atoms: O_11  and  C_12
REMARK    9  A    between atoms: C_12  and  C_13
REMARK   10  A    between atoms: C_15  and  O_16
REMARK   11  A    between atoms: O_16  and  C_17
REMARK   12  A    between atoms: C_17  and  C_18
REMARK   13  A    between atoms: C_22  and  C_24
REMARK   14  A    between atoms: C_24  and  N_25
REMARK                            x       y       z     vdW  Elec       q    Type
REMARK                         _______ _______ _______ _____ _____    ______ ____
ROOT
ATOM      1  C   UNL     1       3.095   4.672  18.800  0.00  0.00    +0.000 C 
ENDROOT
BRANCH   1   2
ATOM      2  N   UNL     1       3.691   4.987  17.507  0.00  0.00    +0.000 N 
ATOM      3  C   UNL     1       5.052   4.864  17.328  0.00  0.00    +0.000 C 
ATOM      4  O   UNL     1       5.788   4.458  18.226  0.00  0.00    +0.000 OA
ATOM      5  H   UNL     1       3.194   5.529  16.809  0.00  0.00    +0.000 HD
BRANCH   3   6
ATOM      6  C   UNL     1       5.580   5.266  15.940  0.00  0.00    +0.000 C 
ATOM      7  C   UNL     1       5.111   4.242  14.897  0.00  0.00    +0.000 C 
ATOM      8  C   UNL     1       6.200   4.195  13.830  0.00  0.00    +0.000 C 
ATOM      9  C   UNL     1       7.457   4.786  14.460  0.00  0.00    +0.000 C 
ATOM     10  C   UNL     1       7.106   5.114  15.906  0.00  0.00    +0.000 C 
BRANCH   6  11
ATOM     11  N   UNL     1       5.167   6.641  15.564  0.00  0.00    +0.000 NA
ATOM     12  H   UNL     1       4.946   7.155  16.419  0.00  0.00    +0.000 HD
ATOM     13  H   UNL     1       4.286   6.593  15.049  0.00  0.00    +0.000 HD
ENDBRANCH   6  11
ENDBRANCH   3   6
ENDBRANCH   1   2
BRANCH   1  14
ATOM     14  C   UNL     1       1.656   4.201  18.584  0.00  0.00    +0.000 C 
ATOM     15  O   UNL     1       1.145   3.933  17.504  0.00  0.00    +0.000 OA
BRANCH  14  17
ATOM     16  C   UNL     1       1.246   2.838  20.458  0.00  0.00    +0.000 C 
ATOM     17  O   UNL     1       1.029   4.081  19.795  0.00  0.00    +0.000 OA
ENDBRANCH  14  17
ENDBRANCH   1  14
BRANCH   1  18
ATOM     18  C   UNL     1       3.183   5.889  19.735  0.00  0.00    +0.000 C 
BRANCH  18  19
ATOM     19  C   UNL     1       2.426   7.148  19.361  0.00  0.00    +0.000 A 
ATOM     20  C   UNL     1       2.524   7.790  18.123  0.00  0.00    +0.000 A 
ATOM     21  C   UNL     1       1.965   9.057  17.944  0.00  0.00    +0.000 A 
ATOM     22  C   UNL     1       1.302   9.695  18.998  0.00  0.00    +0.000 A 
ATOM     23  C   UNL     1       1.169   9.052  20.230  0.00  0.00    +0.000 A 
ATOM     24  C   UNL     1       1.669   7.756  20.379  0.00  0.00    +0.000 A 
BRANCH  22  25
ATOM     25  O   UNL     1       0.929  11.030  18.710  0.00  0.00    +0.000 OA
BRANCH  25  26
ATOM     26  C   UNL     1       1.570  12.165  19.199  0.00  0.00    +0.000 C 
ATOM     27  C   UNL     1       2.485  12.701  18.137  0.00  0.00    +0.000 C 
ATOM     28  O   UNL     1       1.385  12.715  20.277  0.00  0.00    +0.000 OA
ENDBRANCH  25  26
ENDBRANCH  22  25
BRANCH  23  29
ATOM     29  O   UNL     1       0.680   9.797  21.333  0.00  0.00    +0.000 OA
BRANCH  29  30
ATOM     30  C   UNL     1      -0.371   9.449  22.192  0.00  0.00    +0.000 C 
ATOM     31  C   UNL     1      -0.749  10.638  23.025  0.00  0.00    +0.000 C 
ATOM     32  O   UNL     1      -0.885   8.346  22.327  0.00  0.00    +0.000 OA
ENDBRANCH  29  30
ENDBRANCH  23  29
ENDBRANCH  18  19
ENDBRANCH   1  18
TORSDOF 11
ENDMDL
MODEL 9
REMARK VINA RESULT:      -7.0      1.892      4.650
REMARK  Name = 
REMARK  14 active torsions:
REMARK  status: ('A' for Active; 'I' for Inactive)
REMARK    1  A    between atoms: C_1  and  O_2
REMARK    2  A    between atoms: O_2  and  C_3
REMARK    3  A    between atoms: C_3  and  C_5
REMARK    4  A    between atoms: C_5  and  C_6
REMARK    5  A    between atoms: C_5  and  N_21
REMARK    6  A    between atoms: C_6  and  C_7
REMARK    7  A    between atoms: C_10  and  O_11
REMARK    8  A    between atoms: O_11  and  C_12
REMARK    9  A    between atoms: C_12  and  C_13
REMARK   10  A    between atoms: C_15  and  O_16
REMARK   11  A    between atoms: O_16  and  C_17
REMARK   12  A    between atoms: C_17  and  C_18
REMARK   13  A    between atoms: C_22  and  C_24
REMARK   14  A    between atoms: C_24  and  N_25
REMARK                            x       y       z     vdW  Elec       q    Type
REMARK                         _______ _______ _______ _____ _____    ______ ____
ROOT
ATOM      1  C   UNL     1       2.979   6.009  18.323  0.00  0.00    +0.000 C 
ENDROOT
BRANCH   1   2
ATOM      2  N   UNL     1       4.050   5.491  17.480  0.00  0.00    +0.000 N 
ATOM      3  C   UNL     1       5.260   5.142  18.039  0.00  0.00    +0.000 C 
ATOM      4  O   UNL     1       5.459   5.220  19.251  0.00  0.00    +0.000 OA
ATOM      5  H   UNL     1       4.039   5.608  16.472  0.00  0.00    +0.000 HD
BRANCH   3   6
ATOM      6  C   UNL     1       6.334   4.651  17.053  0.00  0.00    +0.000 C 
ATOM      7  C   UNL     1       6.800   5.822  16.177  0.00  0.00    +0.000 C 
ATOM      8  C   UNL     1       7.184   5.217  14.830  0.00  0.00    +0.000 C 
ATOM      9  C   UNL     1       6.516   3.848  14.758  0.00  0.00    +0.000 C 
ATOM     10  C   UNL     1       5.699   3.694  16.036  0.00  0.00    +0.000 C 
BRANCH   6  11
ATOM     11  N   UNL     1       7.479   4.014  17.750  0.00  0.00    +0.000 NA
ATOM     12  H   UNL     1       8.332   4.509  17.483  0.00  0.00    +0.000 HD
ATOM     13  H   UNL     1       7.601   3.066  17.388  0.00  0.00    +0.000 HD
ENDBRANCH   6  11
ENDBRANCH   3   6
ENDBRANCH   1   2
BRANCH   1  14
ATOM     14  C   UNL     1       1.855   4.974  18.391  0.00  0.00    +0.000 C 
ATOM     15  O   UNL     1       1.326   4.427  17.432  0.00  0.00    +0.000 OA
BRANCH  14  17
ATOM     16  C   UNL     1       1.402   3.334  20.018  0.00  0.00    +0.000 C 
ATOM     17  O   UNL     1       1.553   4.716  19.702  0.00  0.00    +0.000 OA
ENDBRANCH  14  17
ENDBRANCH   1  14
BRANCH   1  18
ATOM     18  C   UNL     1       2.499   7.369  17.794  0.00  0.00    +0.000 C 
BRANCH  18  19
ATOM     19  C   UNL     1       1.829   8.328  18.758  0.00  0.00    +0.000 A 
ATOM     20  C   UNL     1       1.747   8.129  20.140  0.00  0.00    +0.000 A 
ATOM     21  C   UNL     1       0.927   8.948  20.918  0.00  0.00    +0.000 A 
ATOM     22  C   UNL     1       0.181   9.973  20.326  0.00  0.00    +0.000 A 
ATOM     23  C   UNL     1       0.279  10.204  18.952  0.00  0.00    +0.000 A 
ATOM     24  C   UNL     1       1.156   9.426  18.192  0.00  0.00    +0.000 A 
BRANCH  22  25
ATOM     25  O   UNL     1      -0.716  10.610  21.216  0.00  0.00    +0.000 OA
BRANCH  25  26
ATOM     26  C   UNL     1      -0.386  11.655  22.076  0.00  0.00    +0.000 C 
ATOM     27  C   UNL     1       0.348  12.709  21.300  0.00  0.00    +0.000 C 
ATOM     28  O   UNL     1      -0.695  11.771  23.256  0.00  0.00    +0.000 OA
ENDBRANCH  25  26
ENDBRANCH  22  25
BRANCH  23  29
ATOM     29  O   UNL     1      -0.636  11.105  18.351  0.00  0.00    +0.000 OA
BRANCH  29  30
ATOM     30  C   UNL     1      -2.009  10.913  18.153  0.00  0.00    +0.000 C 
ATOM     31  C   UNL     1      -2.221   9.937  17.033  0.00  0.00    +0.000 C 
ATOM     32  O   UNL     1      -2.929  11.479  18.731  0.00  0.00    +0.000 OA
ENDBRANCH  29  30
ENDBRANCH  23  29
ENDBRANCH  18  19
ENDBRANCH   1  18
TORSDOF 11
ENDMDL
