MODEL 1
REMARK VINA RESULT:      -6.5      0.000      0.000
REMARK  Name = 
REMARK  6 active torsions:
REMARK  status: ('A' for Active; 'I' for Inactive)
REMARK    1  A    between atoms: C_1  and  C_2
REMARK    2  A    between atoms: C_2  and  S_3
REMARK    3  A    between atoms: S_3  and  N_6
REMARK    4  A    between atoms: N_6  and  C_7
REMARK    5  A    between atoms: C_7  and  C_8
REMARK    6  A    between atoms: C_13  and  C_14
REMARK                            x       y       z     vdW  Elec       q    Type
REMARK                         _______ _______ _______ _____ _____    ______ ____
ROOT
ATOM      1  C   UNL     1       5.035   4.840  18.276  0.00  0.00    +0.000 C 
ATOM      2  C   UNL     1       4.054   6.028  18.400  0.00  0.00    +0.000 C 
ATOM      3  C   UNL     1       2.650   5.783  17.856  0.00  0.00    +0.000 C 
ATOM      4  C   UNL     1       2.035   4.477  18.341  0.00  0.00    +0.000 C 
ATOM      5  C   UNL     1       2.980   3.278  18.209  0.00  0.00    +0.000 C 
ATOM      6  C   UNL     1       2.335   2.048  18.855  0.00  0.00    +0.000 C 
ATOM      7  C   UNL     1       4.346   3.572  18.846  0.00  0.00    +0.000 C 
ENDROOT
BRANCH   1   8
ATOM      8  N   UNL     1       5.456   4.537  16.835  0.00  0.00    +0.000 NA
ATOM      9  H   UNL     1       5.499   3.520  16.722  0.00  0.00    +0.000 HD
BRANCH   8  10
ATOM     10  S   UNL     1       6.933   5.191  16.302  0.00  0.00    +0.000 S 
ATOM     11  O   UNL     1       7.964   4.362  16.859  0.00  0.00    +0.000 OA
ATOM     12  O   UNL     1       6.890   6.621  16.514  0.00  0.00    +0.000 OA
BRANCH  10  14
ATOM     13  C   UNL     1       5.668   4.066  14.145  0.00  0.00    +0.000 C 
ATOM     14  C   UNL     1       6.884   4.903  14.519  0.00  0.00    +0.000 C 
ENDBRANCH  10  14
ENDBRANCH   8  10
ENDBRANCH   1   8
BRANCH   1  15
ATOM     15  C   UNL     1       6.211   5.154  19.187  0.00  0.00    +0.000 C 
ATOM     16  N   UNL     1       7.186   5.415  19.942  0.00  0.00    +0.000 NA
ENDBRANCH   1  15
TORSDOF 4
ENDMDL
MODEL 2
REMARK VINA RESULT:      -5.9      2.983      4.834
REMARK  Name = 
REMARK  6 active torsions:
REMARK  status: ('A' for Active; 'I' for Inactive)
REMARK    1  A    between atoms: C_1  and  C_2
REMARK    2  A    between atoms: C_2  and  S_3
REMARK    3  A    between atoms: S_3  and  N_6
REMARK    4  A    between atoms: N_6  and  C_7
REMARK    5  A    between atoms: C_7  and  C_8
REMARK    6  A    between atoms: C_13  and  C_14
REMARK                            x       y       z     vdW  Elec       q    Type
REMARK                         _______ _______ _______ _____ _____    ______ ____
ROOT
ATOM      1  C   UNL     1       5.010   4.685  18.462  0.00  0.00    +0.000 C 
ATOM      2  C   UNL     1       6.360   5.368  18.783  0.00  0.00    +0.000 C 
ATOM      3  C   UNL     1       7.558   4.864  17.986  0.00  0.00    +0.000 C 
ATOM      4  C   UNL     1       7.297   4.785  16.487  0.00  0.00    +0.000 C 
ATOM      5  C   UNL     1       5.974   4.093  16.141  0.00  0.00    +0.000 C 
ATOM      6  C   UNL     1       5.727   4.193  14.632  0.00  0.00    +0.000 C 
ATOM      7  C   UNL     1       4.803   4.705  16.924  0.00  0.00    +0.000 C 
ENDROOT
BRANCH   1   8
ATOM      8  N   UNL     1       4.930   3.229  18.927  0.00  0.00    +0.000 NA
ATOM      9  H   UNL     1       5.625   2.688  18.407  0.00  0.00    +0.000 HD
BRANCH   8  10
ATOM     10  S   UNL     1       3.428   2.444  18.774  0.00  0.00    +0.000 S 
ATOM     11  O   UNL     1       3.720   1.054  18.568  0.00  0.00    +0.000 OA
ATOM     12  O   UNL     1       2.616   3.210  17.854  0.00  0.00    +0.000 OA
BRANCH  10  14
ATOM     13  C   UNL     1       1.269   3.120  20.324  0.00  0.00    +0.000 C 
ATOM     14  C   UNL     1       2.706   2.626  20.420  0.00  0.00    +0.000 C 
ENDBRANCH  10  14
ENDBRANCH   8  10
ENDBRANCH   1   8
BRANCH   1  15
ATOM     15  C   UNL     1       3.927   5.565  19.066  0.00  0.00    +0.000 C 
ATOM     16  N   UNL     1       3.030   6.296  19.567  0.00  0.00    +0.000 NA
ENDBRANCH   1  15
TORSDOF 4
ENDMDL
MODEL 3
REMARK VINA RESULT:      -5.9      2.493      3.461
REMARK  Name = 
REMARK  6 active torsions:
REMARK  status: ('A' for Active; 'I' for Inactive)
REMARK    1  A    between atoms: C_1  and  C_2
REMARK    2  A    between atoms: C_2  and  S_3
REMARK    3  A    between atoms: S_3  and  N_6
REMARK    4  A    between atoms: N_6  and  C_7
REMARK    5  A    between atoms: C_7  and  C_8
REMARK    6  A    between atoms: C_13  and  C_14
REMARK                            x       y       z     vdW  Elec       q    Type
REMARK                         _______ _______ _______ _____ _____    ______ ____
ROOT
ATOM      1  C   UNL     1       2.746   5.405  19.235  0.00  0.00    +0.000 C 
ATOM      2  C   UNL     1       2.077   4.820  17.969  0.00  0.00    +0.000 C 
ATOM      3  C   UNL     1       1.995   3.299  17.911  0.00  0.00    +0.000 C 
ATOM      4  C   UNL     1       1.450   2.675  19.189  0.00  0.00    +0.000 C 
ATOM      5  C   UNL     1       2.110   3.222  20.459  0.00  0.00    +0.000 C 
ATOM      6  C   UNL     1       1.399   2.652  21.690  0.00  0.00    +0.000 C 
ATOM      7  C   UNL     1       2.087   4.758  20.481  0.00  0.00    +0.000 C 
ENDROOT
BRANCH   1   8
ATOM      8  N   UNL     1       4.252   5.145  19.312  0.00  0.00    +0.000 NA
ATOM      9  H   UNL     1       4.634   5.704  20.080  0.00  0.00    +0.000 HD
BRANCH   8  10
ATOM     10  S   UNL     1       5.171   5.469  17.917  0.00  0.00    +0.000 S 
ATOM     11  O   UNL     1       4.702   6.728  17.411  0.00  0.00    +0.000 OA
ATOM     12  O   UNL     1       5.192   4.270  17.109  0.00  0.00    +0.000 OA
BRANCH  10  14
ATOM     13  C   UNL     1       7.530   6.865  17.861  0.00  0.00    +0.000 C 
ATOM     14  C   UNL     1       6.835   5.714  18.575  0.00  0.00    +0.000 C 
ENDBRANCH  10  14
ENDBRANCH   8  10
ENDBRANCH   1   8
BRANCH   1  15
ATOM     15  C   UNL     1       2.393   6.884  19.264  0.00  0.00    +0.000 C 
ATOM     16  N   UNL     1       2.099   8.110  19.287  0.00  0.00    +0.000 NA
ENDBRANCH   1  15
TORSDOF 4
ENDMDL
MODEL 4
REMARK VINA RESULT:      -5.8      1.859      3.340
REMARK  Name = 
REMARK  6 active torsions:
REMARK  status: ('A' for Active; 'I' for Inactive)
REMARK    1  A    between atoms: C_1  and  C_2
REMARK    2  A    between atoms: C_2  and  S_3
REMARK    3  A    between atoms: S_3  and  N_6
REMARK    4  A    between atoms: N_6  and  C_7
REMARK    5  A    between atoms: C_7  and  C_8
REMARK    6  A    between atoms: C_13  and  C_14
REMARK                            x       y       z     vdW  Elec       q    Type
REMARK                         _______ _______ _______ _____ _____    ______ ____
ROOT
ATOM      1  C   UNL     1       4.974   4.264  17.165  0.00  0.00    +0.000 C 
ATOM      2  C   UNL     1       3.771   3.291  17.125  0.00  0.00    +0.000 C 
ATOM      3  C   UNL     1       2.654   3.585  18.119  0.00  0.00    +0.000 C 
ATOM      4  C   UNL     1       2.213   5.043  18.118  0.00  0.00    +0.000 C 
ATOM      5  C   UNL     1       3.385   6.029  18.179  0.00  0.00    +0.000 C 
ATOM      6  C   UNL     1       2.857   7.458  18.021  0.00  0.00    +0.000 C 
ATOM      7  C   UNL     1       4.432   5.716  17.099  0.00  0.00    +0.000 C 
ENDROOT
BRANCH   1   8
ATOM      8  N   UNL     1       5.826   4.138  18.430  0.00  0.00    +0.000 NA
ATOM      9  H   UNL     1       5.266   4.453  19.226  0.00  0.00    +0.000 HD
BRANCH   8  10
ATOM     10  S   UNL     1       7.305   4.979  18.458  0.00  0.00    +0.000 S 
ATOM     11  O   UNL     1       8.240   4.172  17.727  0.00  0.00    +0.000 OA
ATOM     12  O   UNL     1       7.549   5.406  19.818  0.00  0.00    +0.000 OA
BRANCH  10  14
ATOM     13  C   UNL     1       7.843   7.611  17.909  0.00  0.00    +0.000 C 
ATOM     14  C   UNL     1       6.951   6.454  17.478  0.00  0.00    +0.000 C 
ENDBRANCH  10  14
ENDBRANCH   8  10
ENDBRANCH   1   8
BRANCH   1  15
ATOM     15  C   UNL     1       5.762   4.026  15.887  0.00  0.00    +0.000 C 
ATOM     16  N   UNL     1       6.418   3.828  14.828  0.00  0.00    +0.000 NA
ENDBRANCH   1  15
TORSDOF 4
ENDMDL
MODEL 5
REMARK VINA RESULT:      -5.8      2.769      4.944
REMARK  Name = 
REMARK  6 active torsions:
REMARK  status: ('A' for Active; 'I' for Inactive)
REMARK    1  A    between atoms: C_1  and  C_2
REMARK    2  A    between atoms: C_2  and  S_3
REMARK    3  A    between atoms: S_3  and  N_6
REMARK    4  A    between atoms: N_6  and  C_7
REMARK    5  A    between atoms: C_7  and  C_8
REMARK    6  A    between atoms: C_13  and  C_14
REMARK                            x       y       z     vdW  Elec       q    Type
REMARK                         _______ _______ _______ _____ _____    ______ ____
ROOT
ATOM      1  C   UNL     1       4.645   5.426  17.461  0.00  0.00    +0.000 C 
ATOM      2  C   UNL     1       5.939   5.638  18.282  0.00  0.00    +0.000 C 
ATOM      3  C   UNL     1       7.091   4.695  17.950  0.00  0.00    +0.000 C 
ATOM      4  C   UNL     1       7.370   4.584  16.457  0.00  0.00    +0.000 C 
ATOM      5  C   UNL     1       6.107   4.353  15.622  0.00  0.00    +0.000 C 
ATOM      6  C   UNL     1       6.463   4.406  14.133  0.00  0.00    +0.000 C 
ATOM      7  C   UNL     1       5.020   5.387  15.956  0.00  0.00    +0.000 C 
ENDROOT
BRANCH   1   8
ATOM      8  N   UNL     1       3.910   4.126  17.795  0.00  0.00    +0.000 NA
ATOM      9  H   UNL     1       2.981   4.165  17.368  0.00  0.00    +0.000 HD
BRANCH   8  10
ATOM     10  S   UNL     1       3.717   3.742  19.442  0.00  0.00    +0.000 S 
ATOM     11  O   UNL     1       3.392   4.972  20.106  0.00  0.00    +0.000 OA
ATOM     12  O   UNL     1       4.837   2.919  19.842  0.00  0.00    +0.000 OA
BRANCH  10  14
ATOM     13  C   UNL     1       1.220   3.216  20.445  0.00  0.00    +0.000 C 
ATOM     14  C   UNL     1       2.244   2.697  19.444  0.00  0.00    +0.000 C 
ENDBRANCH  10  14
ENDBRANCH   8  10
ENDBRANCH   1   8
BRANCH   1  15
ATOM     15  C   UNL     1       3.793   6.666  17.674  0.00  0.00    +0.000 C 
ATOM     16  N   UNL     1       3.086   7.696  17.851  0.00  0.00    +0.000 NA
ENDBRANCH   1  15
TORSDOF 4
ENDMDL
MODEL 6
REMARK VINA RESULT:      -5.7      3.097      4.970
REMARK  Name = 
REMARK  6 active torsions:
REMARK  status: ('A' for Active; 'I' for Inactive)
REMARK    1  A    between atoms: C_1  and  C_2
REMARK    2  A    between atoms: C_2  and  S_3
REMARK    3  A    between atoms: S_3  and  N_6
REMARK    4  A    between atoms: N_6  and  C_7
REMARK    5  A    between atoms: C_7  and  C_8
REMARK    6  A    between atoms: C_13  and  C_14
REMARK                            x       y       z     vdW  Elec       q    Type
REMARK                         _______ _______ _______ _____ _____    ______ ____
ROOT
ATOM      1  C   UNL     1       3.558   4.613  17.804  0.00  0.00    +0.000 C 
ATOM      2  C   UNL     1       3.584   6.153  17.660  0.00  0.00    +0.000 C 
ATOM      3  C   UNL     1       4.958   6.768  17.416  0.00  0.00    +0.000 C 
ATOM      4  C   UNL     1       5.742   6.074  16.309  0.00  0.00    +0.000 C 
ATOM      5  C   UNL     1       5.750   4.548  16.440  0.00  0.00    +0.000 C 
ATOM      6  C   UNL     1       6.427   3.934  15.211  0.00  0.00    +0.000 C 
ATOM      7  C   UNL     1       4.326   3.996  16.606  0.00  0.00    +0.000 C 
ENDROOT
BRANCH   1   8
ATOM      8  N   UNL     1       4.209   4.104  19.092  0.00  0.00    +0.000 NA
ATOM      9  H   UNL     1       5.222   4.226  19.008  0.00  0.00    +0.000 HD
BRANCH   8  10
ATOM     10  S   UNL     1       3.907   2.488  19.530  0.00  0.00    +0.000 S 
ATOM     11  O   UNL     1       5.004   2.086  20.364  0.00  0.00    +0.000 OA
ATOM     12  O   UNL     1       3.537   1.763  18.335  0.00  0.00    +0.000 OA
BRANCH  10  14
ATOM     13  C   UNL     1       2.394   3.966  21.275  0.00  0.00    +0.000 C 
ATOM     14  C   UNL     1       2.433   2.618  20.567  0.00  0.00    +0.000 C 
ENDBRANCH  10  14
ENDBRANCH   8  10
ENDBRANCH   1   8
BRANCH   1  15
ATOM     15  C   UNL     1       2.104   4.193  17.664  0.00  0.00    +0.000 C 
ATOM     16  N   UNL     1       0.898   3.843  17.547  0.00  0.00    +0.000 NA
ENDBRANCH   1  15
TORSDOF 4
ENDMDL
MODEL 7
REMARK VINA RESULT:      -5.7      3.063      4.897
REMARK  Name = 
REMARK  6 active torsions:
REMARK  status: ('A' for Active; 'I' for Inactive)
REMARK    1  A    between atoms: C_1  and  C_2
REMARK    2  A    between atoms: C_2  and  S_3
REMARK    3  A    between atoms: S_3  and  N_6
REMARK    4  A    between atoms: N_6  and  C_7
REMARK    5  A    between atoms: C_7  and  C_8
REMARK    6  A    between atoms: C_13  and  C_14
REMARK                            x       y       z     vdW  Elec       q    Type
REMARK                         _______ _______ _______ _____ _____    ______ ____
ROOT
ATOM      1  C   UNL     1       4.446   5.432  17.401  0.00  0.00    +0.000 C 
ATOM      2  C   UNL     1       5.536   5.482  18.497  0.00  0.00    +0.000 C 
ATOM      3  C   UNL     1       6.741   4.575  18.269  0.00  0.00    +0.000 C 
ATOM      4  C   UNL     1       7.329   4.693  16.868  0.00  0.00    +0.000 C 
ATOM      5  C   UNL     1       6.271   4.626  15.762  0.00  0.00    +0.000 C 
ATOM      6  C   UNL     1       6.932   4.903  14.408  0.00  0.00    +0.000 C 
ATOM      7  C   UNL     1       5.129   5.620  16.021  0.00  0.00    +0.000 C 
ENDROOT
BRANCH   1   8
ATOM      8  N   UNL     1       3.669   4.114  17.365  0.00  0.00    +0.000 NA
ATOM      9  H   UNL     1       3.435   3.907  16.390  0.00  0.00    +0.000 HD
BRANCH   8  10
ATOM     10  S   UNL     1       2.237   4.029  18.280  0.00  0.00    +0.000 S 
ATOM     11  O   UNL     1       1.170   4.397  17.393  0.00  0.00    +0.000 OA
ATOM     12  O   UNL     1       2.469   4.708  19.535  0.00  0.00    +0.000 OA
BRANCH  10  14
ATOM     13  C   UNL     1       3.421   1.559  18.422  0.00  0.00    +0.000 C 
ATOM     14  C   UNL     1       2.088   2.264  18.635  0.00  0.00    +0.000 C 
ENDBRANCH  10  14
ENDBRANCH   8  10
ENDBRANCH   1   8
BRANCH   1  15
ATOM     15  C   UNL     1       3.556   6.644  17.625  0.00  0.00    +0.000 C 
ATOM     16  N   UNL     1       2.816   7.648  17.811  0.00  0.00    +0.000 NA
ENDBRANCH   1  15
TORSDOF 4
ENDMDL
MODEL 8
REMARK VINA RESULT:      -5.7      1.675      3.634
REMARK  Name = 
REMARK  6 active torsions:
REMARK  status: ('A' for Active; 'I' for Inactive)
REMARK    1  A    between atoms: C_1  and  C_2
REMARK    2  A    between atoms: C_2  and  S_3
REMARK    3  A    between atoms: S_3  and  N_6
REMARK    4  A    between atoms: N_6  and  C_7
REMARK    5  A    between atoms: C_7  and  C_8
REMARK    6  A    between atoms: C_13  and  C_14
REMARK                            x       y       z     vdW  Elec       q    Type
REMARK                         _______ _______ _______ _____ _____    ______ ____
ROOT
ATOM      1  C   UNL     1       4.983   4.459  16.903  0.00  0.00    +0.000 C 
ATOM      2  C   UNL     1       3.764   3.542  17.161  0.00  0.00    +0.000 C 
ATOM      3  C   UNL     1       2.810   4.007  18.255  0.00  0.00    +0.000 C 
ATOM      4  C   UNL     1       2.410   5.472  18.126  0.00  0.00    +0.000 C 
ATOM      5  C   UNL     1       3.602   6.405  17.892  0.00  0.00    +0.000 C 
ATOM      6  C   UNL     1       3.094   7.825  17.625  0.00  0.00    +0.000 C 
ATOM      7  C   UNL     1       4.474   5.914  16.726  0.00  0.00    +0.000 C 
ENDROOT
BRANCH   1   8
ATOM      8  N   UNL     1       6.007   4.456  18.041  0.00  0.00    +0.000 NA
ATOM      9  H   UNL     1       5.626   5.005  18.816  0.00  0.00    +0.000 HD
BRANCH   8  10
ATOM     10  S   UNL     1       7.563   5.047  17.689  0.00  0.00    +0.000 S 
ATOM     11  O   UNL     1       7.440   5.802  16.475  0.00  0.00    +0.000 OA
ATOM     12  O   UNL     1       8.498   3.954  17.830  0.00  0.00    +0.000 OA
BRANCH  10  14
ATOM     13  C   UNL     1       8.192   7.591  18.496  0.00  0.00    +0.000 C 
ATOM     14  C   UNL     1       7.871   6.206  19.041  0.00  0.00    +0.000 C 
ENDBRANCH  10  14
ENDBRANCH   8  10
ENDBRANCH   1   8
BRANCH   1  15
ATOM     15  C   UNL     1       5.571   4.029  15.569  0.00  0.00    +0.000 C 
ATOM     16  N   UNL     1       6.059   3.672  14.462  0.00  0.00    +0.000 NA
ENDBRANCH   1  15
TORSDOF 4
ENDMDL
MODEL 9
REMARK VINA RESULT:      -5.6      2.355      3.008
REMARK  Name = 
REMARK  6 active torsions:
REMARK  status: ('A' for Active; 'I' for Inactive)
REMARK    1  A    between atoms: C_1  and  C_2
REMARK    2  A    between atoms: C_2  and  S_3
REMARK    3  A    between atoms: S_3  and  N_6
REMARK    4  A    between atoms: N_6  and  C_7
REMARK    5  A    between atoms: C_7  and  C_8
REMARK    6  A    between atoms: C_13  and  C_14
REMARK                            x       y       z     vdW  Elec       q    Type
REMARK                         _______ _______ _______ _____ _____    ______ ____
ROOT
ATOM      1  C   UNL     1       2.724   5.416  19.142  0.00  0.00    +0.000 C 
ATOM      2  C   UNL     1       2.000   4.844  17.901  0.00  0.00    +0.000 C 
ATOM      3  C   UNL     1       1.892   3.324  17.845  0.00  0.00    +0.000 C 
ATOM      4  C   UNL     1       1.384   2.707  19.142  0.00  0.00    +0.000 C 
ATOM      5  C   UNL     1       2.100   3.241  20.386  0.00  0.00    +0.000 C 
ATOM      6  C   UNL     1       1.425   2.681  21.643  0.00  0.00    +0.000 C 
ATOM      7  C   UNL     1       2.101   4.777  20.412  0.00  0.00    +0.000 C 
ENDROOT
BRANCH   1   8
ATOM      8  N   UNL     1       4.228   5.132  19.163  0.00  0.00    +0.000 NA
ATOM      9  H   UNL     1       4.621   5.551  20.010  0.00  0.00    +0.000 HD
BRANCH   8  10
ATOM     10  S   UNL     1       5.141   5.674  17.834  0.00  0.00    +0.000 S 
ATOM     11  O   UNL     1       6.400   6.114  18.364  0.00  0.00    +0.000 OA
ATOM     12  O   UNL     1       4.296   6.531  17.032  0.00  0.00    +0.000 OA
BRANCH  10  14
ATOM     13  C   UNL     1       5.302   4.421  15.400  0.00  0.00    +0.000 C 
ATOM     14  C   UNL     1       5.428   4.158  16.895  0.00  0.00    +0.000 C 
ENDBRANCH  10  14
ENDBRANCH   8  10
ENDBRANCH   1   8
BRANCH   1  15
ATOM     15  C   UNL     1       2.396   6.900  19.186  0.00  0.00    +0.000 C 
ATOM     16  N   UNL     1       2.125   8.131  19.223  0.00  0.00    +0.000 NA
ENDBRANCH   1  15
TORSDOF 4
ENDMDL
