MODEL 1
REMARK VINA RESULT:      -8.8      0.000      0.000
REMARK  Name = 
REMARK  10 active torsions:
REMARK  status: ('A' for Active; 'I' for Inactive)
REMARK    1  A    between atoms: C_1  and  C_2
REMARK    2  A    between atoms: C_4  and  C_5
REMARK    3  A    between atoms: C_7  and  N_8
REMARK    4  A    between atoms: N_8  and  C_17
REMARK    5  A    between atoms: C_9  and  C_11
REMARK    6  A    between atoms: C_11  and  C_12
REMARK    7  A    between atoms: C_17  and  C_18
REMARK    8  A    between atoms: C_17  and  C_26
REMARK    9  A    between atoms: N_20  and  C_21
REMARK   10  A    between atoms: C_29  and  C_30
REMARK                            x       y       z     vdW  Elec       q    Type
REMARK                         _______ _______ _______ _____ _____    ______ ____
ROOT
ATOM      1  N   UNL     1       3.863   5.884  17.930  0.00  0.00    +0.000 N 
ATOM      2  C   UNL     1       3.129   7.028  18.293  0.00  0.00    +0.000 C 
ATOM      3  O   UNL     1       3.385   8.126  17.792  0.00  0.00    +0.000 OA
ENDROOT
BRANCH   1  10
ATOM      4  C   UNL     1       4.903   2.021  20.801  0.00  0.00    +0.000 C 
ATOM      5  C   UNL     1       3.986   2.675  19.812  0.00  0.00    +0.000 A 
ATOM      6  C   UNL     1       2.677   2.206  19.643  0.00  0.00    +0.000 A 
ATOM      7  C   UNL     1       1.780   2.879  18.809  0.00  0.00    +0.000 A 
ATOM      8  C   UNL     1       0.409   2.305  18.577  0.00  0.00    +0.000 C 
ATOM      9  C   UNL     1       2.183   4.085  18.204  0.00  0.00    +0.000 A 
ATOM     10  C   UNL     1       3.492   4.572  18.370  0.00  0.00    +0.000 A 
ATOM     11  C   UNL     1       4.399   3.826  19.126  0.00  0.00    +0.000 A 
ENDBRANCH   1  10
BRANCH   2  12
ATOM     12  C   UNL     1       1.982   6.848  19.293  0.00  0.00    +0.000 C 
BRANCH  12  13
ATOM     13  C   UNL     1       1.569   8.077  20.069  0.00  0.00    +0.000 A 
ATOM     14  C   UNL     1       1.477   8.338  21.422  0.00  0.00    +0.000 A 
ATOM     15  C   UNL     1       0.992   9.653  21.697  0.00  0.00    +0.000 A 
ATOM     16  C   UNL     1       0.727  10.361  20.548  0.00  0.00    +0.000 A 
ATOM     17  S   UNL     1       1.065   9.449  19.150  0.00  0.00    +0.000 S 
ENDBRANCH  12  13
ENDBRANCH   2  12
BRANCH   1  18
ATOM     18  C   UNL     1       4.967   6.053  16.949  0.00  0.00    +0.000 C 
BRANCH  18  19
ATOM     19  C   UNL     1       6.270   6.505  17.559  0.00  0.00    +0.000 A 
ATOM     20  C   UNL     1       7.213   5.935  18.391  0.00  0.00    +0.000 A 
ATOM     21  C   UNL     1       8.232   6.904  18.590  0.00  0.00    +0.000 A 
ATOM     22  C   UNL     1       7.821   8.039  17.923  0.00  0.00    +0.000 A 
ATOM     23  C   UNL     1       8.409   9.390  17.803  0.00  0.00    +0.000 C 
ATOM     24  O   UNL     1       6.634   7.809  17.300  0.00  0.00    +0.000 OA
ENDBRANCH  18  19
BRANCH  18  25
ATOM     25  C   UNL     1       5.204   4.815  16.047  0.00  0.00    +0.000 C 
ATOM     26  O   UNL     1       4.714   3.709  16.260  0.00  0.00    +0.000 OA
ATOM     27  N   UNL     1       5.928   5.096  14.889  0.00  0.00    +0.000 N 
ATOM     28  H   UNL     1       6.448   5.965  14.834  0.00  0.00    +0.000 HD
BRANCH  27  29
ATOM     29  C   UNL     1       6.197   4.071  13.906  0.00  0.00    +0.000 C 
ATOM     30  C   UNL     1       4.997   3.785  13.012  0.00  0.00    +0.000 C 
ATOM     31  C   UNL     1       5.605   3.004  11.857  0.00  0.00    +0.000 C 
ATOM     32  C   UNL     1       7.034   3.532  11.709  0.00  0.00    +0.000 C 
ATOM     33  C   UNL     1       7.272   4.463  12.898  0.00  0.00    +0.000 C 
ENDBRANCH  27  29
ENDBRANCH  18  25
ENDBRANCH   1  18
TORSDOF 7
ENDMDL
MODEL 2
REMARK VINA RESULT:      -8.7      2.222      7.739
REMARK  Name = 
REMARK  10 active torsions:
REMARK  status: ('A' for Active; 'I' for Inactive)
REMARK    1  A    between atoms: C_1  and  C_2
REMARK    2  A    between atoms: C_4  and  C_5
REMARK    3  A    between atoms: C_7  and  N_8
REMARK    4  A    between atoms: N_8  and  C_17
REMARK    5  A    between atoms: C_9  and  C_11
REMARK    6  A    between atoms: C_11  and  C_12
REMARK    7  A    between atoms: C_17  and  C_18
REMARK    8  A    between atoms: C_17  and  C_26
REMARK    9  A    between atoms: N_20  and  C_21
REMARK   10  A    between atoms: C_29  and  C_30
REMARK                            x       y       z     vdW  Elec       q    Type
REMARK                         _______ _______ _______ _____ _____    ______ ____
ROOT
ATOM      1  N   UNL     1       4.672   5.210  17.204  0.00  0.00    +0.000 N 
ATOM      2  C   UNL     1       4.895   4.289  16.162  0.00  0.00    +0.000 C 
ATOM      3  O   UNL     1       3.949   3.813  15.530  0.00  0.00    +0.000 OA
ENDROOT
BRANCH   1  10
ATOM      4  C   UNL     1       8.346   5.030  20.478  0.00  0.00    +0.000 C 
ATOM      5  C   UNL     1       7.585   5.804  19.444  0.00  0.00    +0.000 A 
ATOM      6  C   UNL     1       8.135   6.962  18.880  0.00  0.00    +0.000 A 
ATOM      7  C   UNL     1       7.485   7.625  17.836  0.00  0.00    +0.000 A 
ATOM      8  C   UNL     1       8.052   8.915  17.308  0.00  0.00    +0.000 C 
ATOM      9  C   UNL     1       6.308   7.067  17.299  0.00  0.00    +0.000 A 
ATOM     10  C   UNL     1       5.748   5.900  17.850  0.00  0.00    +0.000 A 
ATOM     11  C   UNL     1       6.363   5.316  18.959  0.00  0.00    +0.000 A 
ENDBRANCH   1  10
BRANCH   2  12
ATOM     12  C   UNL     1       6.348   3.942  15.821  0.00  0.00    +0.000 C 
BRANCH  12  13
ATOM     13  C   UNL     1       6.832   4.358  14.451  0.00  0.00    +0.000 A 
ATOM     14  C   UNL     1       7.684   5.360  14.028  0.00  0.00    +0.000 A 
ATOM     15  C   UNL     1       7.819   5.404  12.606  0.00  0.00    +0.000 A 
ATOM     16  C   UNL     1       7.068   4.435  11.982  0.00  0.00    +0.000 A 
ATOM     17  S   UNL     1       6.212   3.477  13.101  0.00  0.00    +0.000 S 
ENDBRANCH  12  13
ENDBRANCH   2  12
BRANCH   1  18
ATOM     18  C   UNL     1       3.265   5.559  17.528  0.00  0.00    +0.000 C 
BRANCH  18  19
ATOM     19  C   UNL     1       2.539   4.511  18.333  0.00  0.00    +0.000 A 
ATOM     20  C   UNL     1       1.406   3.743  18.147  0.00  0.00    +0.000 A 
ATOM     21  C   UNL     1       1.265   2.926  19.301  0.00  0.00    +0.000 A 
ATOM     22  C   UNL     1       2.281   3.290  20.159  0.00  0.00    +0.000 A 
ATOM     23  C   UNL     1       2.632   2.855  21.528  0.00  0.00    +0.000 C 
ATOM     24  O   UNL     1       3.055   4.251  19.584  0.00  0.00    +0.000 OA
ENDBRANCH  18  19
BRANCH  18  25
ATOM     25  C   UNL     1       3.098   6.950  18.192  0.00  0.00    +0.000 C 
ATOM     26  O   UNL     1       3.535   7.994  17.714  0.00  0.00    +0.000 OA
ATOM     27  N   UNL     1       2.292   6.935  19.330  0.00  0.00    +0.000 N 
ATOM     28  H   UNL     1       2.094   6.047  19.779  0.00  0.00    +0.000 HD
BRANCH  27  29
ATOM     29  C   UNL     1       1.985   8.151  20.048  0.00  0.00    +0.000 C 
ATOM     30  C   UNL     1       1.125   9.111  19.235  0.00  0.00    +0.000 C 
ATOM     31  C   UNL     1       0.618  10.091  20.283  0.00  0.00    +0.000 C 
ATOM     32  C   UNL     1       0.511   9.289  21.581  0.00  0.00    +0.000 C 
ATOM     33  C   UNL     1       1.136   7.924  21.294  0.00  0.00    +0.000 C 
ENDBRANCH  27  29
ENDBRANCH  18  25
ENDBRANCH   1  18
TORSDOF 7
ENDMDL
MODEL 3
REMARK VINA RESULT:      -8.6      6.151     10.718
REMARK  Name = 
REMARK  10 active torsions:
REMARK  status: ('A' for Active; 'I' for Inactive)
REMARK    1  A    between atoms: C_1  and  C_2
REMARK    2  A    between atoms: C_4  and  C_5
REMARK    3  A    between atoms: C_7  and  N_8
REMARK    4  A    between atoms: N_8  and  C_17
REMARK    5  A    between atoms: C_9  and  C_11
REMARK    6  A    between atoms: C_11  and  C_12
REMARK    7  A    between atoms: C_17  and  C_18
REMARK    8  A    between atoms: C_17  and  C_26
REMARK    9  A    between atoms: N_20  and  C_21
REMARK   10  A    between atoms: C_29  and  C_30
REMARK                            x       y       z     vdW  Elec       q    Type
REMARK                         _______ _______ _______ _____ _____    ______ ____
ROOT
ATOM      1  N   UNL     1      -0.444  12.100  18.804  0.00  0.00    +0.000 N 
ATOM      2  C   UNL     1       0.329  13.272  18.900  0.00  0.00    +0.000 C 
ATOM      3  O   UNL     1      -0.175  14.379  18.693  0.00  0.00    +0.000 OA
ENDROOT
BRANCH   1  10
ATOM      4  C   UNL     1       2.572   8.348  17.765  0.00  0.00    +0.000 C 
ATOM      5  C   UNL     1       1.580   8.978  18.697  0.00  0.00    +0.000 A 
ATOM      6  C   UNL     1       1.469   8.532  20.019  0.00  0.00    +0.000 A 
ATOM      7  C   UNL     1       0.631   9.187  20.925  0.00  0.00    +0.000 A 
ATOM      8  C   UNL     1       0.463   8.635  22.315  0.00  0.00    +0.000 C 
ATOM      9  C   UNL     1      -0.041  10.355  20.514  0.00  0.00    +0.000 A 
ATOM     10  C   UNL     1       0.066  10.819  19.190  0.00  0.00    +0.000 A 
ATOM     11  C   UNL     1       0.830  10.087  18.278  0.00  0.00    +0.000 A 
ENDBRANCH   1  10
BRANCH   2  12
ATOM     12  C   UNL     1       1.797  13.121  19.313  0.00  0.00    +0.000 C 
BRANCH  12  13
ATOM     13  C   UNL     1       2.712  14.273  18.971  0.00  0.00    +0.000 A 
ATOM     14  C   UNL     1       3.216  14.739  17.772  0.00  0.00    +0.000 A 
ATOM     15  C   UNL     1       4.092  15.855  17.940  0.00  0.00    +0.000 A 
ATOM     16  C   UNL     1       4.232  16.213  19.260  0.00  0.00    +0.000 A 
ATOM     17  S   UNL     1       3.312  15.214  20.289  0.00  0.00    +0.000 S 
ENDBRANCH  12  13
ENDBRANCH   2  12
BRANCH   1  18
ATOM     18  C   UNL     1      -1.872  12.244  18.417  0.00  0.00    +0.000 C 
BRANCH  18  19
ATOM     19  C   UNL     1      -2.405  11.103  17.587  0.00  0.00    +0.000 A 
ATOM     20  C   UNL     1      -2.874   9.832  17.855  0.00  0.00    +0.000 A 
ATOM     21  C   UNL     1      -3.240   9.254  16.610  0.00  0.00    +0.000 A 
ATOM     22  C   UNL     1      -2.910  10.179  15.643  0.00  0.00    +0.000 A 
ATOM     23  C   UNL     1      -2.988  10.146  14.167  0.00  0.00    +0.000 C 
ATOM     24  O   UNL     1      -2.400  11.299  16.223  0.00  0.00    +0.000 OA
ENDBRANCH  18  19
BRANCH  18  25
ATOM     25  C   UNL     1      -2.822  12.524  19.609  0.00  0.00    +0.000 C 
ATOM     26  O   UNL     1      -2.447  12.629  20.774  0.00  0.00    +0.000 OA
ATOM     27  N   UNL     1      -4.140  12.775  19.228  0.00  0.00    +0.000 N 
ATOM     28  H   UNL     1      -4.438  12.518  18.293  0.00  0.00    +0.000 HD
BRANCH  27  29
ATOM     29  C   UNL     1      -5.153  13.107  20.204  0.00  0.00    +0.000 C 
ATOM     30  C   UNL     1      -6.141  14.148  19.695  0.00  0.00    +0.000 C 
ATOM     31  C   UNL     1      -7.289  14.050  20.688  0.00  0.00    +0.000 C 
ATOM     32  C   UNL     1      -7.310  12.591  21.152  0.00  0.00    +0.000 C 
ATOM     33  C   UNL     1      -6.062  11.936  20.560  0.00  0.00    +0.000 C 
ENDBRANCH  27  29
ENDBRANCH  18  25
ENDBRANCH   1  18
TORSDOF 7
ENDMDL
MODEL 4
REMARK VINA RESULT:      -8.6      6.076     10.716
REMARK  Name = 
REMARK  10 active torsions:
REMARK  status: ('A' for Active; 'I' for Inactive)
REMARK    1  A    between atoms: C_1  and  C_2
REMARK    2  A    between atoms: C_4  and  C_5
REMARK    3  A    between atoms: C_7  and  N_8
REMARK    4  A    between atoms: N_8  and  C_17
REMARK    5  A    between atoms: C_9  and  C_11
REMARK    6  A    between atoms: C_11  and  C_12
REMARK    7  A    between atoms: C_17  and  C_18
REMARK    8  A    between atoms: C_17  and  C_26
REMARK    9  A    between atoms: N_20  and  C_21
REMARK   10  A    between atoms: C_29  and  C_30
REMARK                            x       y       z     vdW  Elec       q    Type
REMARK                         _______ _______ _______ _____ _____    ______ ____
ROOT
ATOM      1  N   UNL     1       0.237  12.438  18.853  0.00  0.00    +0.000 N 
ATOM      2  C   UNL     1       1.040  13.585  18.711  0.00  0.00    +0.000 C 
ATOM      3  O   UNL     1       0.534  14.682  18.458  0.00  0.00    +0.000 OA
ENDROOT
BRANCH   1  10
ATOM      4  C   UNL     1       0.484   9.076  22.443  0.00  0.00    +0.000 C 
ATOM      5  C   UNL     1       0.870   9.508  21.060  0.00  0.00    +0.000 A 
ATOM      6  C   UNL     1       1.381   8.580  20.146  0.00  0.00    +0.000 A 
ATOM      7  C   UNL     1       1.636   8.948  18.822  0.00  0.00    +0.000 A 
ATOM      8  C   UNL     1       2.268   7.955  17.884  0.00  0.00    +0.000 C 
ATOM      9  C   UNL     1       1.293  10.245  18.395  0.00  0.00    +0.000 A 
ATOM     10  C   UNL     1       0.772  11.187  19.301  0.00  0.00    +0.000 A 
ATOM     11  C   UNL     1       0.623  10.824  20.641  0.00  0.00    +0.000 A 
ENDBRANCH   1  10
BRANCH   2  12
ATOM     12  C   UNL     1       2.549  13.426  18.927  0.00  0.00    +0.000 C 
BRANCH  12  13
ATOM     13  C   UNL     1       3.359  14.701  18.963  0.00  0.00    +0.000 A 
ATOM     14  C   UNL     1       4.093  15.366  18.000  0.00  0.00    +0.000 A 
ATOM     15  C   UNL     1       4.738  16.535  18.510  0.00  0.00    +0.000 A 
ATOM     16  C   UNL     1       4.479  16.731  19.846  0.00  0.00    +0.000 A 
ATOM     17  S   UNL     1       3.463  15.520  20.480  0.00  0.00    +0.000 S 
ENDBRANCH  12  13
ENDBRANCH   2  12
BRANCH   1  18
ATOM     18  C   UNL     1      -1.228  12.592  18.658  0.00  0.00    +0.000 C 
BRANCH  18  19
ATOM     19  C   UNL     1      -1.886  11.419  17.976  0.00  0.00    +0.000 A 
ATOM     20  C   UNL     1      -2.309  10.166  18.372  0.00  0.00    +0.000 A 
ATOM     21  C   UNL     1      -2.867   9.535  17.228  0.00  0.00    +0.000 A 
ATOM     22  C   UNL     1      -2.692  10.412  16.180  0.00  0.00    +0.000 A 
ATOM     23  C   UNL     1      -3.001  10.313  14.737  0.00  0.00    +0.000 C 
ATOM     24  O   UNL     1      -2.096  11.553  16.620  0.00  0.00    +0.000 OA
ENDBRANCH  18  19
BRANCH  18  25
ATOM     25  C   UNL     1      -2.001  12.957  19.951  0.00  0.00    +0.000 C 
ATOM     26  O   UNL     1      -1.461  13.337  20.988  0.00  0.00    +0.000 OA
ATOM     27  N   UNL     1      -3.387  12.937  19.801  0.00  0.00    +0.000 N 
ATOM     28  H   UNL     1      -3.786  12.464  18.997  0.00  0.00    +0.000 HD
BRANCH  27  29
ATOM     29  C   UNL     1      -4.265  13.302  20.889  0.00  0.00    +0.000 C 
ATOM     30  C   UNL     1      -4.831  14.708  20.741  0.00  0.00    +0.000 C 
ATOM     31  C   UNL     1      -5.981  14.725  21.737  0.00  0.00    +0.000 C 
ATOM     32  C   UNL     1      -6.503  13.287  21.788  0.00  0.00    +0.000 C 
ATOM     33  C   UNL     1      -5.524  12.447  20.968  0.00  0.00    +0.000 C 
ENDBRANCH  27  29
ENDBRANCH  18  25
ENDBRANCH   1  18
TORSDOF 7
ENDMDL
MODEL 5
REMARK VINA RESULT:      -8.5      6.437     11.049
REMARK  Name = 
REMARK  10 active torsions:
REMARK  status: ('A' for Active; 'I' for Inactive)
REMARK    1  A    between atoms: C_1  and  C_2
REMARK    2  A    between atoms: C_4  and  C_5
REMARK    3  A    between atoms: C_7  and  N_8
REMARK    4  A    between atoms: N_8  and  C_17
REMARK    5  A    between atoms: C_9  and  C_11
REMARK    6  A    between atoms: C_11  and  C_12
REMARK    7  A    between atoms: C_17  and  C_18
REMARK    8  A    between atoms: C_17  and  C_26
REMARK    9  A    between atoms: N_20  and  C_21
REMARK   10  A    between atoms: C_29  and  C_30
REMARK                            x       y       z     vdW  Elec       q    Type
REMARK                         _______ _______ _______ _____ _____    ______ ____
ROOT
ATOM      1  N   UNL     1      -0.177  12.475  19.340  0.00  0.00    +0.000 N 
ATOM      2  C   UNL     1       0.836  13.422  19.099  0.00  0.00    +0.000 C 
ATOM      3  O   UNL     1       0.553  14.572  18.753  0.00  0.00    +0.000 OA
ENDROOT
BRANCH   1  10
ATOM      4  C   UNL     1       2.124   8.152  18.825  0.00  0.00    +0.000 C 
ATOM      5  C   UNL     1       1.268   9.059  19.656  0.00  0.00    +0.000 A 
ATOM      6  C   UNL     1       1.096   8.812  21.024  0.00  0.00    +0.000 A 
ATOM      7  C   UNL     1       0.395   9.714  21.829  0.00  0.00    +0.000 A 
ATOM      8  C   UNL     1       0.149   9.382  23.275  0.00  0.00    +0.000 C 
ATOM      9  C   UNL     1      -0.066  10.919  21.264  0.00  0.00    +0.000 A 
ATOM     10  C   UNL     1       0.105  11.184  19.893  0.00  0.00    +0.000 A 
ATOM     11  C   UNL     1       0.719  10.219  19.091  0.00  0.00    +0.000 A 
ENDBRANCH   1  10
BRANCH   2  12
ATOM     12  C   UNL     1       2.286  12.982  19.326  0.00  0.00    +0.000 C 
BRANCH  12  13
ATOM     13  C   UNL     1       3.341  14.055  19.188  0.00  0.00    +0.000 A 
ATOM     14  C   UNL     1       3.962  14.616  18.088  0.00  0.00    +0.000 A 
ATOM     15  C   UNL     1       4.945  15.589  18.448  0.00  0.00    +0.000 A 
ATOM     16  C   UNL     1       5.047  15.745  19.810  0.00  0.00    +0.000 A 
ATOM     17  S   UNL     1       3.965  14.732  20.649  0.00  0.00    +0.000 S 
ENDBRANCH  12  13
ENDBRANCH   2  12
BRANCH   1  18
ATOM     18  C   UNL     1      -1.586  12.902  19.134  0.00  0.00    +0.000 C 
BRANCH  18  19
ATOM     19  C   UNL     1      -2.480  11.827  18.570  0.00  0.00    +0.000 A 
ATOM     20  C   UNL     1      -2.281  10.658  17.862  0.00  0.00    +0.000 A 
ATOM     21  C   UNL     1      -3.562  10.086  17.637  0.00  0.00    +0.000 A 
ATOM     22  C   UNL     1      -4.478  10.972  18.162  0.00  0.00    +0.000 A 
ATOM     23  C   UNL     1      -5.957  10.976  18.187  0.00  0.00    +0.000 C 
ATOM     24  O   UNL     1      -3.835  12.030  18.724  0.00  0.00    +0.000 OA
ENDBRANCH  18  19
BRANCH  18  25
ATOM     25  C   UNL     1      -2.241  13.535  20.388  0.00  0.00    +0.000 C 
ATOM     26  O   UNL     1      -2.364  14.746  20.559  0.00  0.00    +0.000 OA
ATOM     27  N   UNL     1      -2.801  12.602  21.260  0.00  0.00    +0.000 N 
ATOM     28  H   UNL     1      -2.536  11.627  21.170  0.00  0.00    +0.000 HD
BRANCH  27  29
ATOM     29  C   UNL     1      -3.500  13.017  22.455  0.00  0.00    +0.000 C 
ATOM     30  C   UNL     1      -5.012  12.871  22.331  0.00  0.00    +0.000 C 
ATOM     31  C   UNL     1      -5.488  12.980  23.772  0.00  0.00    +0.000 C 
ATOM     32  C   UNL     1      -4.356  12.404  24.625  0.00  0.00    +0.000 C 
ATOM     33  C   UNL     1      -3.186  12.156  23.673  0.00  0.00    +0.000 C 
ENDBRANCH  27  29
ENDBRANCH  18  25
ENDBRANCH   1  18
TORSDOF 7
ENDMDL
MODEL 6
REMARK VINA RESULT:      -8.5      0.629      1.720
REMARK  Name = 
REMARK  10 active torsions:
REMARK  status: ('A' for Active; 'I' for Inactive)
REMARK    1  A    between atoms: C_1  and  C_2
REMARK    2  A    between atoms: C_4  and  C_5
REMARK    3  A    between atoms: C_7  and  N_8
REMARK    4  A    between atoms: N_8  and  C_17
REMARK    5  A    between atoms: C_9  and  C_11
REMARK    6  A    between atoms: C_11  and  C_12
REMARK    7  A    between atoms: C_17  and  C_18
REMARK    8  A    between atoms: C_17  and  C_26
REMARK    9  A    between atoms: N_20  and  C_21
REMARK   10  A    between atoms: C_29  and  C_30
REMARK                            x       y       z     vdW  Elec       q    Type
REMARK                         _______ _______ _______ _____ _____    ______ ____
ROOT
ATOM      1  N   UNL     1       3.740   6.131  18.077  0.00  0.00    +0.000 N 
ATOM      2  C   UNL     1       2.979   7.296  18.285  0.00  0.00    +0.000 C 
ATOM      3  O   UNL     1       3.200   8.318  17.630  0.00  0.00    +0.000 OA
ENDROOT
BRANCH   1  10
ATOM      4  C   UNL     1       0.544   2.406  18.475  0.00  0.00    +0.000 C 
ATOM      5  C   UNL     1       1.848   3.027  18.878  0.00  0.00    +0.000 A 
ATOM      6  C   UNL     1       2.834   2.258  19.508  0.00  0.00    +0.000 A 
ATOM      7  C   UNL     1       4.093   2.798  19.782  0.00  0.00    +0.000 A 
ATOM      8  C   UNL     1       5.103   1.979  20.539  0.00  0.00    +0.000 C 
ATOM      9  C   UNL     1       4.388   4.103  19.343  0.00  0.00    +0.000 A 
ATOM     10  C   UNL     1       3.409   4.886  18.703  0.00  0.00    +0.000 A 
ATOM     11  C   UNL     1       2.128   4.357  18.532  0.00  0.00    +0.000 A 
ENDBRANCH   1  10
BRANCH   2  12
ATOM     12  C   UNL     1       1.846   7.229  19.315  0.00  0.00    +0.000 C 
BRANCH  12  13
ATOM     13  C   UNL     1       1.340   8.552  19.842  0.00  0.00    +0.000 A 
ATOM     14  C   UNL     1       0.984   9.730  19.215  0.00  0.00    +0.000 A 
ATOM     15  C   UNL     1       0.595  10.749  20.138  0.00  0.00    +0.000 A 
ATOM     16  C   UNL     1       0.665  10.322  21.443  0.00  0.00    +0.000 A 
ATOM     17  S   UNL     1       1.188   8.705  21.555  0.00  0.00    +0.000 S 
ENDBRANCH  12  13
ENDBRANCH   2  12
BRANCH   1  18
ATOM     18  C   UNL     1       4.831   6.188  17.069  0.00  0.00    +0.000 C 
BRANCH  18  19
ATOM     19  C   UNL     1       6.185   6.520  17.643  0.00  0.00    +0.000 A 
ATOM     20  C   UNL     1       7.137   5.832  18.370  0.00  0.00    +0.000 A 
ATOM     21  C   UNL     1       8.216   6.729  18.594  0.00  0.00    +0.000 A 
ATOM     22  C   UNL     1       7.833   7.937  18.051  0.00  0.00    +0.000 A 
ATOM     23  C   UNL     1       8.486   9.263  18.015  0.00  0.00    +0.000 C 
ATOM     24  O   UNL     1       6.605   7.822  17.477  0.00  0.00    +0.000 OA
ENDBRANCH  18  19
BRANCH  18  25
ATOM     25  C   UNL     1       4.927   4.927  16.173  0.00  0.00    +0.000 C 
ATOM     26  O   UNL     1       4.248   3.917  16.338  0.00  0.00    +0.000 OA
ATOM     27  N   UNL     1       5.771   5.084  15.074  0.00  0.00    +0.000 N 
ATOM     28  H   UNL     1       6.429   5.855  15.067  0.00  0.00    +0.000 HD
BRANCH  27  29
ATOM     29  C   UNL     1       5.940   4.028  14.102  0.00  0.00    +0.000 C 
ATOM     30  C   UNL     1       4.792   3.958  13.103  0.00  0.00    +0.000 C 
ATOM     31  C   UNL     1       5.352   3.082  11.993  0.00  0.00    +0.000 C 
ATOM     32  C   UNL     1       6.859   3.348  11.978  0.00  0.00    +0.000 C 
ATOM     33  C   UNL     1       7.152   4.222  13.197  0.00  0.00    +0.000 C 
ENDBRANCH  27  29
ENDBRANCH  18  25
ENDBRANCH   1  18
TORSDOF 7
ENDMDL
MODEL 7
REMARK VINA RESULT:      -8.4      6.316     10.698
REMARK  Name = 
REMARK  10 active torsions:
REMARK  status: ('A' for Active; 'I' for Inactive)
REMARK    1  A    between atoms: C_1  and  C_2
REMARK    2  A    between atoms: C_4  and  C_5
REMARK    3  A    between atoms: C_7  and  N_8
REMARK    4  A    between atoms: N_8  and  C_17
REMARK    5  A    between atoms: C_9  and  C_11
REMARK    6  A    between atoms: C_11  and  C_12
REMARK    7  A    between atoms: C_17  and  C_18
REMARK    8  A    between atoms: C_17  and  C_26
REMARK    9  A    between atoms: N_20  and  C_21
REMARK   10  A    between atoms: C_29  and  C_30
REMARK                            x       y       z     vdW  Elec       q    Type
REMARK                         _______ _______ _______ _____ _____    ______ ____
ROOT
ATOM      1  N   UNL     1      -0.732  12.158  18.815  0.00  0.00    +0.000 N 
ATOM      2  C   UNL     1      -0.010  13.366  18.834  0.00  0.00    +0.000 C 
ATOM      3  O   UNL     1      -0.546  14.425  18.496  0.00  0.00    +0.000 OA
ENDROOT
BRANCH   1  10
ATOM      4  C   UNL     1       2.398   8.400  18.240  0.00  0.00    +0.000 C 
ATOM      5  C   UNL     1       1.376   9.101  19.083  0.00  0.00    +0.000 A 
ATOM      6  C   UNL     1       1.258   8.804  20.446  0.00  0.00    +0.000 A 
ATOM      7  C   UNL     1       0.389   9.532  21.263  0.00  0.00    +0.000 A 
ATOM      8  C   UNL     1       0.215   9.134  22.704  0.00  0.00    +0.000 C 
ATOM      9  C   UNL     1      -0.308  10.627  20.715  0.00  0.00    +0.000 A 
ATOM     10  C   UNL     1      -0.193  10.943  19.349  0.00  0.00    +0.000 A 
ATOM     11  C   UNL     1       0.603  10.135  18.534  0.00  0.00    +0.000 A 
ENDBRANCH   1  10
BRANCH   2  12
ATOM     12  C   UNL     1       1.439  13.319  19.330  0.00  0.00    +0.000 C 
BRANCH  12  13
ATOM     13  C   UNL     1       2.320  14.481  18.936  0.00  0.00    +0.000 A 
ATOM     14  C   UNL     1       3.089  14.730  17.816  0.00  0.00    +0.000 A 
ATOM     15  C   UNL     1       3.800  15.967  17.900  0.00  0.00    +0.000 A 
ATOM     16  C   UNL     1       3.554  16.629  19.080  0.00  0.00    +0.000 A 
ATOM     17  S   UNL     1       2.472  15.770  20.076  0.00  0.00    +0.000 S 
ENDBRANCH  12  13
ENDBRANCH   2  12
BRANCH   1  18
ATOM     18  C   UNL     1      -2.142  12.202  18.348  0.00  0.00    +0.000 C 
BRANCH  18  19
ATOM     19  C   UNL     1      -2.542  11.035  17.480  0.00  0.00    +0.000 A 
ATOM     20  C   UNL     1      -2.873   9.713  17.707  0.00  0.00    +0.000 A 
ATOM     21  C   UNL     1      -3.165   9.136  16.442  0.00  0.00    +0.000 A 
ATOM     22  C   UNL     1      -2.928  10.119  15.505  0.00  0.00    +0.000 A 
ATOM     23  C   UNL     1      -2.989  10.121  14.028  0.00  0.00    +0.000 C 
ATOM     24  O   UNL     1      -2.547  11.270  16.122  0.00  0.00    +0.000 OA
ENDBRANCH  18  19
BRANCH  18  25
ATOM     25  C   UNL     1      -3.177  12.398  19.485  0.00  0.00    +0.000 C 
ATOM     26  O   UNL     1      -4.377  12.160  19.368  0.00  0.00    +0.000 OA
ATOM     27  N   UNL     1      -2.606  12.753  20.706  0.00  0.00    +0.000 N 
ATOM     28  H   UNL     1      -1.652  13.098  20.721  0.00  0.00    +0.000 HD
BRANCH  27  29
ATOM     29  C   UNL     1      -3.417  12.926  21.891  0.00  0.00    +0.000 C 
ATOM     30  C   UNL     1      -2.860  12.181  23.097  0.00  0.00    +0.000 C 
ATOM     31  C   UNL     1      -3.613  12.801  24.265  0.00  0.00    +0.000 C 
ATOM     32  C   UNL     1      -3.896  14.247  23.851  0.00  0.00    +0.000 C 
ATOM     33  C   UNL     1      -3.468  14.366  22.388  0.00  0.00    +0.000 C 
ENDBRANCH  27  29
ENDBRANCH  18  25
ENDBRANCH   1  18
TORSDOF 7
ENDMDL
MODEL 8
REMARK VINA RESULT:      -8.4      6.242     10.863
REMARK  Name = 
REMARK  10 active torsions:
REMARK  status: ('A' for Active; 'I' for Inactive)
REMARK    1  A    between atoms: C_1  and  C_2
REMARK    2  A    between atoms: C_4  and  C_5
REMARK    3  A    between atoms: C_7  and  N_8
REMARK    4  A    between atoms: N_8  and  C_17
REMARK    5  A    between atoms: C_9  and  C_11
REMARK    6  A    between atoms: C_11  and  C_12
REMARK    7  A    between atoms: C_17  and  C_18
REMARK    8  A    between atoms: C_17  and  C_26
REMARK    9  A    between atoms: N_20  and  C_21
REMARK   10  A    between atoms: C_29  and  C_30
REMARK                            x       y       z     vdW  Elec       q    Type
REMARK                         _______ _______ _______ _____ _____    ______ ____
ROOT
ATOM      1  N   UNL     1       0.237  12.515  19.057  0.00  0.00    +0.000 N 
ATOM      2  C   UNL     1       1.123  13.501  18.585  0.00  0.00    +0.000 C 
ATOM      3  O   UNL     1       0.708  14.614  18.252  0.00  0.00    +0.000 OA
ENDROOT
BRANCH   1  10
ATOM      4  C   UNL     1       0.174   9.351  22.830  0.00  0.00    +0.000 C 
ATOM      5  C   UNL     1       0.647   9.692  21.448  0.00  0.00    +0.000 A 
ATOM      6  C   UNL     1       1.169   8.697  20.613  0.00  0.00    +0.000 A 
ATOM      7  C   UNL     1       1.505   8.982  19.287  0.00  0.00    +0.000 A 
ATOM      8  C   UNL     1       2.147   7.918  18.439  0.00  0.00    +0.000 C 
ATOM      9  C   UNL     1       1.233  10.265  18.774  0.00  0.00    +0.000 A 
ATOM     10  C   UNL     1       0.701  11.273  19.599  0.00  0.00    +0.000 A 
ATOM     11  C   UNL     1       0.471  10.989  20.947  0.00  0.00    +0.000 A 
ENDBRANCH   1  10
BRANCH   2  12
ATOM     12  C   UNL     1       2.615  13.153  18.545  0.00  0.00    +0.000 C 
BRANCH  12  13
ATOM     13  C   UNL     1       3.576  14.299  18.763  0.00  0.00    +0.000 A 
ATOM     14  C   UNL     1       4.361  15.034  17.896  0.00  0.00    +0.000 A 
ATOM     15  C   UNL     1       5.157  16.012  18.569  0.00  0.00    +0.000 A 
ATOM     16  C   UNL     1       4.958  15.997  19.930  0.00  0.00    +0.000 A 
ATOM     17  S   UNL     1       3.817  14.819  20.392  0.00  0.00    +0.000 S 
ENDBRANCH  12  13
ENDBRANCH   2  12
BRANCH   1  18
ATOM     18  C   UNL     1      -1.209  12.854  19.110  0.00  0.00    +0.000 C 
BRANCH  18  19
ATOM     19  C   UNL     1      -2.118  11.761  18.605  0.00  0.00    +0.000 A 
ATOM     20  C   UNL     1      -1.946  10.451  18.203  0.00  0.00    +0.000 A 
ATOM     21  C   UNL     1      -3.228   9.956  17.843  0.00  0.00    +0.000 A 
ATOM     22  C   UNL     1      -4.102  11.012  17.980  0.00  0.00    +0.000 A 
ATOM     23  C   UNL     1      -5.549  11.149  17.703  0.00  0.00    +0.000 C 
ATOM     24  O   UNL     1      -3.440  12.110  18.436  0.00  0.00    +0.000 OA
ENDBRANCH  18  19
BRANCH  18  25
ATOM     25  C   UNL     1      -1.691  13.345  20.499  0.00  0.00    +0.000 C 
ATOM     26  O   UNL     1      -1.194  14.296  21.099  0.00  0.00    +0.000 OA
ATOM     27  N   UNL     1      -2.830  12.689  20.962  0.00  0.00    +0.000 N 
ATOM     28  H   UNL     1      -3.104  11.814  20.526  0.00  0.00    +0.000 HD
BRANCH  27  29
ATOM     29  C   UNL     1      -3.450  13.055  22.216  0.00  0.00    +0.000 C 
ATOM     30  C   UNL     1      -4.960  12.854  22.206  0.00  0.00    +0.000 C 
ATOM     31  C   UNL     1      -5.326  12.917  23.681  0.00  0.00    +0.000 C 
ATOM     32  C   UNL     1      -4.110  12.371  24.432  0.00  0.00    +0.000 C 
ATOM     33  C   UNL     1      -3.009  12.185  23.388  0.00  0.00    +0.000 C 
ENDBRANCH  27  29
ENDBRANCH  18  25
ENDBRANCH   1  18
TORSDOF 7
ENDMDL
MODEL 9
REMARK VINA RESULT:      -8.3      6.245     10.647
REMARK  Name = 
REMARK  10 active torsions:
REMARK  status: ('A' for Active; 'I' for Inactive)
REMARK    1  A    between atoms: C_1  and  C_2
REMARK    2  A    between atoms: C_4  and  C_5
REMARK    3  A    between atoms: C_7  and  N_8
REMARK    4  A    between atoms: N_8  and  C_17
REMARK    5  A    between atoms: C_9  and  C_11
REMARK    6  A    between atoms: C_11  and  C_12
REMARK    7  A    between atoms: C_17  and  C_18
REMARK    8  A    between atoms: C_17  and  C_26
REMARK    9  A    between atoms: N_20  and  C_21
REMARK   10  A    between atoms: C_29  and  C_30
REMARK                            x       y       z     vdW  Elec       q    Type
REMARK                         _______ _______ _______ _____ _____    ______ ____
ROOT
ATOM      1  N   UNL     1       0.505  12.754  19.140  0.00  0.00    +0.000 N 
ATOM      2  C   UNL     1       1.402  13.838  19.111  0.00  0.00    +0.000 C 
ATOM      3  O   UNL     1       0.999  14.984  18.897  0.00  0.00    +0.000 OA
ENDROOT
BRANCH   1  10
ATOM      4  C   UNL     1       0.447   9.271  22.621  0.00  0.00    +0.000 C 
ATOM      5  C   UNL     1       0.859   9.705  21.246  0.00  0.00    +0.000 A 
ATOM      6  C   UNL     1       1.260   8.759  20.296  0.00  0.00    +0.000 A 
ATOM      7  C   UNL     1       1.536   9.141  18.981  0.00  0.00    +0.000 A 
ATOM      8  C   UNL     1       2.050   8.120  18.003  0.00  0.00    +0.000 C 
ATOM      9  C   UNL     1       1.323  10.480  18.599  0.00  0.00    +0.000 A 
ATOM     10  C   UNL     1       0.913  11.441  19.541  0.00  0.00    +0.000 A 
ATOM     11  C   UNL     1       0.744  11.052  20.872  0.00  0.00    +0.000 A 
ENDBRANCH   1  10
BRANCH   2  12
ATOM     12  C   UNL     1       2.879  13.545  19.400  0.00  0.00    +0.000 C 
BRANCH  12  13
ATOM     13  C   UNL     1       3.800  14.741  19.460  0.00  0.00    +0.000 A 
ATOM     14  C   UNL     1       4.150  15.598  20.485  0.00  0.00    +0.000 A 
ATOM     15  C   UNL     1       5.040  16.631  20.060  0.00  0.00    +0.000 A 
ATOM     16  C   UNL     1       5.347  16.536  18.723  0.00  0.00    +0.000 A 
ATOM     17  S   UNL     1       4.572  15.209  17.987  0.00  0.00    +0.000 S 
ENDBRANCH  12  13
ENDBRANCH   2  12
BRANCH   1  18
ATOM     18  C   UNL     1      -0.930  13.037  18.875  0.00  0.00    +0.000 C 
BRANCH  18  19
ATOM     19  C   UNL     1      -1.695  11.866  18.312  0.00  0.00    +0.000 A 
ATOM     20  C   UNL     1      -2.224  10.700  18.831  0.00  0.00    +0.000 A 
ATOM     21  C   UNL     1      -2.846  10.012  17.755  0.00  0.00    +0.000 A 
ATOM     22  C   UNL     1      -2.603  10.763  16.625  0.00  0.00    +0.000 A 
ATOM     23  C   UNL     1      -2.933  10.550  15.199  0.00  0.00    +0.000 C 
ATOM     24  O   UNL     1      -1.904  11.884  16.950  0.00  0.00    +0.000 OA
ENDBRANCH  18  19
BRANCH  18  25
ATOM     25  C   UNL     1      -1.688  13.635  20.087  0.00  0.00    +0.000 C 
ATOM     26  O   UNL     1      -1.915  14.835  20.229  0.00  0.00    +0.000 OA
ATOM     27  N   UNL     1      -2.209  12.674  20.952  0.00  0.00    +0.000 N 
ATOM     28  H   UNL     1      -1.863  11.723  20.894  0.00  0.00    +0.000 HD
BRANCH  27  29
ATOM     29  C   UNL     1      -2.991  13.051  22.108  0.00  0.00    +0.000 C 
ATOM     30  C   UNL     1      -4.489  12.883  21.884  0.00  0.00    +0.000 C 
ATOM     31  C   UNL     1      -5.059  12.952  23.292  0.00  0.00    +0.000 C 
ATOM     32  C   UNL     1      -3.973  12.376  24.205  0.00  0.00    +0.000 C 
ATOM     33  C   UNL     1      -2.740  12.169  23.326  0.00  0.00    +0.000 C 
ENDBRANCH  27  29
ENDBRANCH  18  25
ENDBRANCH   1  18
TORSDOF 7
ENDMDL
