MODEL 1
REMARK VINA RESULT:      -8.0      0.000      0.000
REMARK  Name = 
REMARK  9 active torsions:
REMARK  status: ('A' for Active; 'I' for Inactive)
REMARK    1  A    between atoms: C_1  and  C_2
REMARK    2  A    between atoms: N_4  and  C_5
REMARK    3  A    between atoms: C_8  and  C_9
REMARK    4  A    between atoms: C_9  and  N_10
REMARK    5  A    between atoms: C_14  and  C_15
REMARK    6  A    between atoms: C_14  and  C_17
REMARK    7  A    between atoms: C_15  and  O_16
REMARK    8  A    between atoms: C_17  and  C_18
REMARK    9  A    between atoms: C_23  and  C_24
REMARK                            x       y       z     vdW  Elec       q    Type
REMARK                         _______ _______ _______ _____ _____    ______ ____
ROOT
ATOM      1  N   UNL     1       2.539   4.834  19.789  0.00  0.00    +0.000 NA
ATOM      2  C   UNL     1       1.437   5.012  18.822  0.00  0.00    +0.000 C 
ATOM      3  C   UNL     1       1.396   3.933  17.748  0.00  0.00    +0.000 C 
ATOM      4  C   UNL     1       2.736   3.792  17.049  0.00  0.00    +0.000 C 
ATOM      5  C   UNL     1       3.942   3.631  17.997  0.00  0.00    +0.000 C 
ATOM      6  C   UNL     1       3.853   4.723  19.113  0.00  0.00    +0.000 C 
ENDROOT
BRANCH   1   7
ATOM      7  C   UNL     1       2.570   5.997  20.721  0.00  0.00    +0.000 C 
BRANCH   7  11
ATOM      8  C   UNL     1       0.942   9.656  19.036  0.00  0.00    +0.000 A 
ATOM      9  C   UNL     1       0.615   9.241  20.327  0.00  0.00    +0.000 A 
ATOM     10  C   UNL     1       1.143   8.070  20.866  0.00  0.00    +0.000 A 
ATOM     11  C   UNL     1       2.027   7.279  20.123  0.00  0.00    +0.000 A 
ATOM     12  C   UNL     1       2.377   7.701  18.830  0.00  0.00    +0.000 A 
ATOM     13  C   UNL     1       1.831   8.871  18.287  0.00  0.00    +0.000 A 
BRANCH   8  17
ATOM     14  C   UNL     1      -0.288  13.104  18.129  0.00  0.00    +0.000 C 
ATOM     15  C   UNL     1       0.515  12.107  18.920  0.00  0.00    +0.000 C 
ATOM     16  O   UNL     1       1.183  12.475  19.885  0.00  0.00    +0.000 OA
ATOM     17  N   UNL     1       0.400  10.814  18.440  0.00  0.00    +0.000 N 
ATOM     18  H   UNL     1      -0.068  10.689  17.550  0.00  0.00    +0.000 HD
ENDBRANCH   8  17
ENDBRANCH   7  11
ENDBRANCH   1   7
BRANCH   5  19
ATOM     19  C   UNL     1       3.976   2.226  18.658  0.00  0.00    +0.000 C 
BRANCH  19  20
ATOM     20  O   UNL     1       4.995   2.063  19.638  0.00  0.00    +0.000 OA
ATOM     21  H   UNL     1       4.585   1.657  20.430  0.00  0.00    +0.000 HD
ENDBRANCH  19  20
ENDBRANCH   5  19
BRANCH   5  22
ATOM     22  C   UNL     1       5.263   3.878  17.174  0.00  0.00    +0.000 C 
BRANCH  22  23
ATOM     23  C   UNL     1       6.118   5.088  17.539  0.00  0.00    +0.000 A 
ATOM     24  C   UNL     1       7.101   4.909  18.533  0.00  0.00    +0.000 A 
ATOM     25  C   UNL     1       7.965   5.942  18.902  0.00  0.00    +0.000 A 
ATOM     26  C   UNL     1       7.884   7.172  18.269  0.00  0.00    +0.000 A 
ATOM     27  C   UNL     1       6.903   7.385  17.306  0.00  0.00    +0.000 A 
ATOM     28  C   UNL     1       5.981   6.374  16.962  0.00  0.00    +0.000 A 
ATOM     29  C   UNL     1       4.906   6.760  15.982  0.00  0.00    +0.000 C 
ENDBRANCH  22  23
ENDBRANCH   5  22
TORSDOF 7
ENDMDL
MODEL 2
REMARK VINA RESULT:      -7.8      0.838      1.248
REMARK  Name = 
REMARK  9 active torsions:
REMARK  status: ('A' for Active; 'I' for Inactive)
REMARK    1  A    between atoms: C_1  and  C_2
REMARK    2  A    between atoms: N_4  and  C_5
REMARK    3  A    between atoms: C_8  and  C_9
REMARK    4  A    between atoms: C_9  and  N_10
REMARK    5  A    between atoms: C_14  and  C_15
REMARK    6  A    between atoms: C_14  and  C_17
REMARK    7  A    between atoms: C_15  and  O_16
REMARK    8  A    between atoms: C_17  and  C_18
REMARK    9  A    between atoms: C_23  and  C_24
REMARK                            x       y       z     vdW  Elec       q    Type
REMARK                         _______ _______ _______ _____ _____    ______ ____
ROOT
ATOM      1  N   UNL     1       2.530   4.341  20.047  0.00  0.00    +0.000 NA
ATOM      2  C   UNL     1       1.251   4.303  19.310  0.00  0.00    +0.000 C 
ATOM      3  C   UNL     1       1.215   3.245  18.215  0.00  0.00    +0.000 C 
ATOM      4  C   UNL     1       2.399   3.379  17.274  0.00  0.00    +0.000 C 
ATOM      5  C   UNL     1       3.771   3.455  17.973  0.00  0.00    +0.000 C 
ATOM      6  C   UNL     1       3.687   4.499  19.134  0.00  0.00    +0.000 C 
ENDROOT
BRANCH   1   7
ATOM      7  C   UNL     1       2.512   5.480  21.009  0.00  0.00    +0.000 C 
BRANCH   7  11
ATOM      8  C   UNL     1       1.256   9.247  19.245  0.00  0.00    +0.000 A 
ATOM      9  C   UNL     1       2.089   8.363  18.559  0.00  0.00    +0.000 A 
ATOM     10  C   UNL     1       2.486   7.154  19.125  0.00  0.00    +0.000 A 
ATOM     11  C   UNL     1       2.048   6.789  20.403  0.00  0.00    +0.000 A 
ATOM     12  C   UNL     1       1.192   7.663  21.092  0.00  0.00    +0.000 A 
ATOM     13  C   UNL     1       0.810   8.885  20.525  0.00  0.00    +0.000 A 
BRANCH   8  17
ATOM     14  C   UNL     1      -0.536  12.335  18.028  0.00  0.00    +0.000 C 
ATOM     15  C   UNL     1      -0.404  11.048  18.799  0.00  0.00    +0.000 C 
ATOM     16  O   UNL     1      -1.369  10.592  19.411  0.00  0.00    +0.000 OA
ATOM     17  N   UNL     1       0.862  10.496  18.724  0.00  0.00    +0.000 N 
ATOM     18  H   UNL     1       1.592  11.062  18.304  0.00  0.00    +0.000 HD
ENDBRANCH   8  17
ENDBRANCH   7  11
ENDBRANCH   1   7
BRANCH   5  19
ATOM     19  C   UNL     1       4.203   2.080  18.551  0.00  0.00    +0.000 C 
BRANCH  19  20
ATOM     20  O   UNL     1       4.910   2.159  19.784  0.00  0.00    +0.000 OA
ATOM     21  H   UNL     1       4.848   1.283  20.220  0.00  0.00    +0.000 HD
ENDBRANCH  19  20
ENDBRANCH   5  19
BRANCH   5  22
ATOM     22  C   UNL     1       4.837   3.968  16.931  0.00  0.00    +0.000 C 
BRANCH  22  23
ATOM     23  C   UNL     1       5.814   5.050  17.380  0.00  0.00    +0.000 A 
ATOM     24  C   UNL     1       6.816   4.676  18.297  0.00  0.00    +0.000 A 
ATOM     25  C   UNL     1       7.787   5.581  18.730  0.00  0.00    +0.000 A 
ATOM     26  C   UNL     1       7.794   6.877  18.238  0.00  0.00    +0.000 A 
ATOM     27  C   UNL     1       6.798   7.280  17.354  0.00  0.00    +0.000 A 
ATOM     28  C   UNL     1       5.773   6.399  16.952  0.00  0.00    +0.000 A 
ATOM     29  C   UNL     1       4.700   6.984  16.074  0.00  0.00    +0.000 C 
ENDBRANCH  22  23
ENDBRANCH   5  22
TORSDOF 7
ENDMDL
MODEL 3
REMARK VINA RESULT:      -7.7      2.135      4.317
REMARK  Name = 
REMARK  9 active torsions:
REMARK  status: ('A' for Active; 'I' for Inactive)
REMARK    1  A    between atoms: C_1  and  C_2
REMARK    2  A    between atoms: N_4  and  C_5
REMARK    3  A    between atoms: C_8  and  C_9
REMARK    4  A    between atoms: C_9  and  N_10
REMARK    5  A    between atoms: C_14  and  C_15
REMARK    6  A    between atoms: C_14  and  C_17
REMARK    7  A    between atoms: C_15  and  O_16
REMARK    8  A    between atoms: C_17  and  C_18
REMARK    9  A    between atoms: C_23  and  C_24
REMARK                            x       y       z     vdW  Elec       q    Type
REMARK                         _______ _______ _______ _____ _____    ______ ____
ROOT
ATOM      1  N   UNL     1       4.836   6.509  16.850  0.00  0.00    +0.000 NA
ATOM      2  C   UNL     1       5.654   6.755  18.054  0.00  0.00    +0.000 C 
ATOM      3  C   UNL     1       6.593   5.605  18.392  0.00  0.00    +0.000 C 
ATOM      4  C   UNL     1       5.847   4.286  18.483  0.00  0.00    +0.000 C 
ATOM      5  C   UNL     1       4.946   3.972  17.271  0.00  0.00    +0.000 C 
ATOM      6  C   UNL     1       4.084   5.236  16.945  0.00  0.00    +0.000 C 
ENDROOT
BRANCH   1   7
ATOM      7  C   UNL     1       3.870   7.631  16.672  0.00  0.00    +0.000 C 
BRANCH   7  11
ATOM      8  C   UNL     1       1.315   8.377  20.105  0.00  0.00    +0.000 A 
ATOM      9  C   UNL     1       1.359   9.259  19.025  0.00  0.00    +0.000 A 
ATOM     10  C   UNL     1       2.176   9.013  17.924  0.00  0.00    +0.000 A 
ATOM     11  C   UNL     1       2.972   7.864  17.869  0.00  0.00    +0.000 A 
ATOM     12  C   UNL     1       2.918   6.961  18.943  0.00  0.00    +0.000 A 
ATOM     13  C   UNL     1       2.107   7.221  20.056  0.00  0.00    +0.000 A 
BRANCH   8  17
ATOM     14  C   UNL     1      -0.298   9.625  23.278  0.00  0.00    +0.000 C 
ATOM     15  C   UNL     1       0.561   9.741  22.048  0.00  0.00    +0.000 C 
ATOM     16  O   UNL     1       1.201  10.771  21.833  0.00  0.00    +0.000 OA
ATOM     17  N   UNL     1       0.531   8.607  21.255  0.00  0.00    +0.000 N 
ATOM     18  H   UNL     1      -0.155   7.898  21.485  0.00  0.00    +0.000 HD
ENDBRANCH   8  17
ENDBRANCH   7  11
ENDBRANCH   1   7
BRANCH   5  19
ATOM     19  C   UNL     1       5.776   3.581  16.018  0.00  0.00    +0.000 C 
BRANCH  19  20
ATOM     20  O   UNL     1       5.533   4.396  14.877  0.00  0.00    +0.000 OA
ATOM     21  H   UNL     1       6.348   4.909  14.698  0.00  0.00    +0.000 HD
ENDBRANCH  19  20
ENDBRANCH   5  19
BRANCH   5  22
ATOM     22  C   UNL     1       3.967   2.800  17.665  0.00  0.00    +0.000 C 
BRANCH  22  23
ATOM     23  C   UNL     1       3.062   3.001  18.876  0.00  0.00    +0.000 A 
ATOM     24  C   UNL     1       3.541   2.552  20.123  0.00  0.00    +0.000 A 
ATOM     25  C   UNL     1       2.808   2.735  21.297  0.00  0.00    +0.000 A 
ATOM     26  C   UNL     1       1.588   3.393  21.258  0.00  0.00    +0.000 A 
ATOM     27  C   UNL     1       1.079   3.819  20.035  0.00  0.00    +0.000 A 
ATOM     28  C   UNL     1       1.774   3.590  18.830  0.00  0.00    +0.000 A 
ATOM     29  C   UNL     1       1.071   4.008  17.566  0.00  0.00    +0.000 C 
ENDBRANCH  22  23
ENDBRANCH   5  22
TORSDOF 7
ENDMDL
MODEL 4
REMARK VINA RESULT:      -7.6      2.117      2.826
REMARK  Name = 
REMARK  9 active torsions:
REMARK  status: ('A' for Active; 'I' for Inactive)
REMARK    1  A    between atoms: C_1  and  C_2
REMARK    2  A    between atoms: N_4  and  C_5
REMARK    3  A    between atoms: C_8  and  C_9
REMARK    4  A    between atoms: C_9  and  N_10
REMARK    5  A    between atoms: C_14  and  C_15
REMARK    6  A    between atoms: C_14  and  C_17
REMARK    7  A    between atoms: C_15  and  O_16
REMARK    8  A    between atoms: C_17  and  C_18
REMARK    9  A    between atoms: C_23  and  C_24
REMARK                            x       y       z     vdW  Elec       q    Type
REMARK                         _______ _______ _______ _____ _____    ______ ____
ROOT
ATOM      1  N   UNL     1       2.307   6.386  18.584  0.00  0.00    +0.000 NA
ATOM      2  C   UNL     1       1.480   5.647  17.610  0.00  0.00    +0.000 C 
ATOM      3  C   UNL     1       1.419   4.149  17.882  0.00  0.00    +0.000 C 
ATOM      4  C   UNL     1       2.808   3.550  18.006  0.00  0.00    +0.000 C 
ATOM      5  C   UNL     1       3.742   4.287  18.987  0.00  0.00    +0.000 C 
ATOM      6  C   UNL     1       3.673   5.822  18.689  0.00  0.00    +0.000 C 
ENDROOT
BRANCH   1   7
ATOM      7  C   UNL     1       2.404   7.814  18.166  0.00  0.00    +0.000 C 
BRANCH   7  11
ATOM      8  C   UNL     1      -0.127  10.442  20.526  0.00  0.00    +0.000 A 
ATOM      9  C   UNL     1       0.571   9.384  21.111  0.00  0.00    +0.000 A 
ATOM     10  C   UNL     1       1.385   8.547  20.352  0.00  0.00    +0.000 A 
ATOM     11  C   UNL     1       1.532   8.752  18.975  0.00  0.00    +0.000 A 
ATOM     12  C   UNL     1       0.849   9.827  18.383  0.00  0.00    +0.000 A 
ATOM     13  C   UNL     1       0.019  10.656  19.148  0.00  0.00    +0.000 A 
BRANCH   8  17
ATOM     14  C   UNL     1      -2.225  12.246  23.089  0.00  0.00    +0.000 C 
ATOM     15  C   UNL     1      -1.123  11.330  22.628  0.00  0.00    +0.000 C 
ATOM     16  O   UNL     1      -0.449  10.710  23.451  0.00  0.00    +0.000 OA
ATOM     17  N   UNL     1      -0.990  11.288  21.252  0.00  0.00    +0.000 N 
ATOM     18  H   UNL     1      -1.519  11.965  20.713  0.00  0.00    +0.000 HD
ENDBRANCH   8  17
ENDBRANCH   7  11
ENDBRANCH   1   7
BRANCH   5  19
ATOM     19  C   UNL     1       3.344   4.035  20.467  0.00  0.00    +0.000 C 
BRANCH  19  20
ATOM     20  O   UNL     1       2.620   5.102  21.069  0.00  0.00    +0.000 OA
ATOM     21  H   UNL     1       2.610   4.947  22.037  0.00  0.00    +0.000 HD
ENDBRANCH  19  20
ENDBRANCH   5  19
BRANCH   5  22
ATOM     22  C   UNL     1       5.221   3.805  18.730  0.00  0.00    +0.000 C 
BRANCH  22  23
ATOM     23  C   UNL     1       5.901   4.241  17.436  0.00  0.00    +0.000 A 
ATOM     24  C   UNL     1       5.471   3.629  16.242  0.00  0.00    +0.000 A 
ATOM     25  C   UNL     1       5.996   3.996  15.001  0.00  0.00    +0.000 A 
ATOM     26  C   UNL     1       6.948   5.000  14.921  0.00  0.00    +0.000 A 
ATOM     27  C   UNL     1       7.412   5.599  16.088  0.00  0.00    +0.000 A 
ATOM     28  C   UNL     1       6.939   5.202  17.356  0.00  0.00    +0.000 A 
ATOM     29  C   UNL     1       7.591   5.855  18.544  0.00  0.00    +0.000 C 
ENDBRANCH  22  23
ENDBRANCH   5  22
TORSDOF 7
ENDMDL
MODEL 5
REMARK VINA RESULT:      -7.6      1.981      2.759
REMARK  Name = 
REMARK  9 active torsions:
REMARK  status: ('A' for Active; 'I' for Inactive)
REMARK    1  A    between atoms: C_1  and  C_2
REMARK    2  A    between atoms: N_4  and  C_5
REMARK    3  A    between atoms: C_8  and  C_9
REMARK    4  A    between atoms: C_9  and  N_10
REMARK    5  A    between atoms: C_14  and  C_15
REMARK    6  A    between atoms: C_14  and  C_17
REMARK    7  A    between atoms: C_15  and  O_16
REMARK    8  A    between atoms: C_17  and  C_18
REMARK    9  A    between atoms: C_23  and  C_24
REMARK                            x       y       z     vdW  Elec       q    Type
REMARK                         _______ _______ _______ _____ _____    ______ ____
ROOT
ATOM      1  N   UNL     1       2.286   6.373  18.805  0.00  0.00    +0.000 NA
ATOM      2  C   UNL     1       1.485   5.722  17.750  0.00  0.00    +0.000 C 
ATOM      3  C   UNL     1       1.403   4.208  17.901  0.00  0.00    +0.000 C 
ATOM      4  C   UNL     1       2.782   3.585  18.023  0.00  0.00    +0.000 C 
ATOM      5  C   UNL     1       3.689   4.234  19.088  0.00  0.00    +0.000 C 
ATOM      6  C   UNL     1       3.643   5.787  18.910  0.00  0.00    +0.000 C 
ENDROOT
BRANCH   1   7
ATOM      7  C   UNL     1       2.408   7.828  18.504  0.00  0.00    +0.000 C 
BRANCH   7  11
ATOM      8  C   UNL     1      -0.169  10.414  20.859  0.00  0.00    +0.000 A 
ATOM      9  C   UNL     1      -0.018  10.594  19.484  0.00  0.00    +0.000 A 
ATOM     10  C   UNL     1       0.806   9.760  18.732  0.00  0.00    +0.000 A 
ATOM     11  C   UNL     1       1.500   8.707  19.339  0.00  0.00    +0.000 A 
ATOM     12  C   UNL     1       1.336   8.507  20.719  0.00  0.00    +0.000 A 
ATOM     13  C   UNL     1       0.520   9.358  21.474  0.00  0.00    +0.000 A 
BRANCH   8  17
ATOM     14  C   UNL     1      -1.605  13.074  23.115  0.00  0.00    +0.000 C 
ATOM     15  C   UNL     1      -0.579  12.479  22.188  0.00  0.00    +0.000 C 
ATOM     16  O   UNL     1       0.475  13.076  21.967  0.00  0.00    +0.000 OA
ATOM     17  N   UNL     1      -0.963  11.258  21.663  0.00  0.00    +0.000 N 
ATOM     18  H   UNL     1      -1.920  10.965  21.822  0.00  0.00    +0.000 HD
ENDBRANCH   8  17
ENDBRANCH   7  11
ENDBRANCH   1   7
BRANCH   5  19
ATOM     19  C   UNL     1       3.240   3.871  20.530  0.00  0.00    +0.000 C 
BRANCH  19  20
ATOM     20  O   UNL     1       2.526   4.904  21.199  0.00  0.00    +0.000 OA
ATOM     21  H   UNL     1       2.368   4.610  22.120  0.00  0.00    +0.000 HD
ENDBRANCH  19  20
ENDBRANCH   5  19
BRANCH   5  22
ATOM     22  C   UNL     1       5.171   3.757  18.842  0.00  0.00    +0.000 C 
BRANCH  22  23
ATOM     23  C   UNL     1       5.873   4.227  17.571  0.00  0.00    +0.000 A 
ATOM     24  C   UNL     1       5.443   3.670  16.351  0.00  0.00    +0.000 A 
ATOM     25  C   UNL     1       5.987   4.072  15.130  0.00  0.00    +0.000 A 
ATOM     26  C   UNL     1       6.960   5.060  15.097  0.00  0.00    +0.000 A 
ATOM     27  C   UNL     1       7.423   5.605  16.290  0.00  0.00    +0.000 A 
ATOM     28  C   UNL     1       6.930   5.169  17.537  0.00  0.00    +0.000 A 
ATOM     29  C   UNL     1       7.583   5.764  18.756  0.00  0.00    +0.000 C 
ENDBRANCH  22  23
ENDBRANCH   5  22
TORSDOF 7
ENDMDL
MODEL 6
REMARK VINA RESULT:      -7.5      1.714      2.595
REMARK  Name = 
REMARK  9 active torsions:
REMARK  status: ('A' for Active; 'I' for Inactive)
REMARK    1  A    between atoms: C_1  and  C_2
REMARK    2  A    between atoms: N_4  and  C_5
REMARK    3  A    between atoms: C_8  and  C_9
REMARK    4  A    between atoms: C_9  and  N_10
REMARK    5  A    between atoms: C_14  and  C_15
REMARK    6  A    between atoms: C_14  and  C_17
REMARK    7  A    between atoms: C_15  and  O_16
REMARK    8  A    between atoms: C_17  and  C_18
REMARK    9  A    between atoms: C_23  and  C_24
REMARK                            x       y       z     vdW  Elec       q    Type
REMARK                         _______ _______ _______ _____ _____    ______ ____
ROOT
ATOM      1  N   UNL     1       2.880   5.800  18.282  0.00  0.00    +0.000 NA
ATOM      2  C   UNL     1       1.587   5.264  17.812  0.00  0.00    +0.000 C 
ATOM      3  C   UNL     1       1.403   3.781  18.108  0.00  0.00    +0.000 C 
ATOM      4  C   UNL     1       2.571   2.961  17.590  0.00  0.00    +0.000 C 
ATOM      5  C   UNL     1       3.960   3.478  18.017  0.00  0.00    +0.000 C 
ATOM      6  C   UNL     1       4.025   5.019  17.757  0.00  0.00    +0.000 C 
ENDROOT
BRANCH   1   7
ATOM      7  C   UNL     1       3.017   7.217  17.841  0.00  0.00    +0.000 C 
BRANCH   7  11
ATOM      8  C   UNL     1       0.438  10.039  19.905  0.00  0.00    +0.000 A 
ATOM      9  C   UNL     1       0.697  10.154  18.539  0.00  0.00    +0.000 A 
ATOM     10  C   UNL     1       1.520   9.244  17.880  0.00  0.00    +0.000 A 
ATOM     11  C   UNL     1       2.106   8.180  18.574  0.00  0.00    +0.000 A 
ATOM     12  C   UNL     1       1.833   8.046  19.945  0.00  0.00    +0.000 A 
ATOM     13  C   UNL     1       1.018   8.973  20.607  0.00  0.00    +0.000 A 
BRANCH   8  17
ATOM     14  C   UNL     1      -0.987  12.765  22.088  0.00  0.00    +0.000 C 
ATOM     15  C   UNL     1       0.101  12.056  21.327  0.00  0.00    +0.000 C 
ATOM     16  O   UNL     1       1.261  12.465  21.377  0.00  0.00    +0.000 OA
ATOM     17  N   UNL     1      -0.358  10.960  20.617  0.00  0.00    +0.000 N 
ATOM     18  H   UNL     1      -1.362  10.835  20.555  0.00  0.00    +0.000 HD
ENDBRANCH   8  17
ENDBRANCH   7  11
ENDBRANCH   1   7
BRANCH   5  19
ATOM     19  C   UNL     1       4.245   3.200  19.518  0.00  0.00    +0.000 C 
BRANCH  19  20
ATOM     20  O   UNL     1       5.012   2.026  19.762  0.00  0.00    +0.000 OA
ATOM     21  H   UNL     1       4.771   1.692  20.651  0.00  0.00    +0.000 HD
ENDBRANCH  19  20
ENDBRANCH   5  19
BRANCH   5  22
ATOM     22  C   UNL     1       5.052   2.783  17.117  0.00  0.00    +0.000 C 
BRANCH  22  23
ATOM     23  C   UNL     1       5.809   3.648  16.115  0.00  0.00    +0.000 A 
ATOM     24  C   UNL     1       5.394   3.594  14.770  0.00  0.00    +0.000 A 
ATOM     25  C   UNL     1       5.992   4.386  13.787  0.00  0.00    +0.000 A 
ATOM     26  C   UNL     1       7.003   5.270  14.129  0.00  0.00    +0.000 A 
ATOM     27  C   UNL     1       7.453   5.320  15.445  0.00  0.00    +0.000 A 
ATOM     28  C   UNL     1       6.904   4.486  16.441  0.00  0.00    +0.000 A 
ATOM     29  C   UNL     1       7.545   4.564  17.801  0.00  0.00    +0.000 C 
ENDBRANCH  22  23
ENDBRANCH   5  22
TORSDOF 7
ENDMDL
MODEL 7
REMARK VINA RESULT:      -7.4      2.753      9.071
REMARK  Name = 
REMARK  9 active torsions:
REMARK  status: ('A' for Active; 'I' for Inactive)
REMARK    1  A    between atoms: C_1  and  C_2
REMARK    2  A    between atoms: N_4  and  C_5
REMARK    3  A    between atoms: C_8  and  C_9
REMARK    4  A    between atoms: C_9  and  N_10
REMARK    5  A    between atoms: C_14  and  C_15
REMARK    6  A    between atoms: C_14  and  C_17
REMARK    7  A    between atoms: C_15  and  O_16
REMARK    8  A    between atoms: C_17  and  C_18
REMARK    9  A    between atoms: C_23  and  C_24
REMARK                            x       y       z     vdW  Elec       q    Type
REMARK                         _______ _______ _______ _____ _____    ______ ____
ROOT
ATOM      1  N   UNL     1       0.749  10.591  19.496  0.00  0.00    +0.000 NA
ATOM      2  C   UNL     1      -0.684  10.559  19.142  0.00  0.00    +0.000 C 
ATOM      3  C   UNL     1      -1.074  11.602  18.102  0.00  0.00    +0.000 C 
ATOM      4  C   UNL     1      -0.630  12.993  18.516  0.00  0.00    +0.000 C 
ATOM      5  C   UNL     1       0.852  13.100  18.929  0.00  0.00    +0.000 C 
ATOM      6  C   UNL     1       1.181  11.941  19.927  0.00  0.00    +0.000 C 
ENDROOT
BRANCH   1   7
ATOM      7  C   UNL     1       1.006   9.624  20.601  0.00  0.00    +0.000 C 
BRANCH   7  11
ATOM      8  C   UNL     1       2.462   5.782  19.187  0.00  0.00    +0.000 A 
ATOM      9  C   UNL     1       2.596   6.939  18.419  0.00  0.00    +0.000 A 
ATOM     10  C   UNL     1       2.132   8.170  18.878  0.00  0.00    +0.000 A 
ATOM     11  C   UNL     1       1.524   8.279  20.133  0.00  0.00    +0.000 A 
ATOM     12  C   UNL     1       1.404   7.123  20.921  0.00  0.00    +0.000 A 
ATOM     13  C   UNL     1       1.857   5.884  20.448  0.00  0.00    +0.000 A 
BRANCH   8  17
ATOM     14  C   UNL     1       2.835   2.321  17.735  0.00  0.00    +0.000 C 
ATOM     15  C   UNL     1       2.174   3.661  17.915  0.00  0.00    +0.000 C 
ATOM     16  O   UNL     1       1.107   3.906  17.350  0.00  0.00    +0.000 OA
ATOM     17  N   UNL     1       2.883   4.511  18.744  0.00  0.00    +0.000 N 
ATOM     18  H   UNL     1       3.816   4.222  19.016  0.00  0.00    +0.000 HD
ENDBRANCH   8  17
ENDBRANCH   7  11
ENDBRANCH   1   7
BRANCH   5  19
ATOM     19  C   UNL     1       1.803  13.005  17.704  0.00  0.00    +0.000 C 
BRANCH  19  20
ATOM     20  O   UNL     1       2.495  11.766  17.593  0.00  0.00    +0.000 OA
ATOM     21  H   UNL     1       3.259  11.795  18.205  0.00  0.00    +0.000 HD
ENDBRANCH  19  20
ENDBRANCH   5  19
BRANCH   5  22
ATOM     22  C   UNL     1       1.067  14.469  19.680  0.00  0.00    +0.000 C 
BRANCH  22  23
ATOM     23  C   UNL     1       0.881  15.758  18.886  0.00  0.00    +0.000 A 
ATOM     24  C   UNL     1      -0.440  16.202  18.675  0.00  0.00    +0.000 A 
ATOM     25  C   UNL     1      -0.712  17.396  18.003  0.00  0.00    +0.000 A 
ATOM     26  C   UNL     1       0.331  18.187  17.547  0.00  0.00    +0.000 A 
ATOM     27  C   UNL     1       1.643  17.756  17.716  0.00  0.00    +0.000 A 
ATOM     28  C   UNL     1       1.937  16.525  18.337  0.00  0.00    +0.000 A 
ATOM     29  C   UNL     1       3.388  16.125  18.369  0.00  0.00    +0.000 C 
ENDBRANCH  22  23
ENDBRANCH   5  22
TORSDOF 7
ENDMDL
MODEL 8
REMARK VINA RESULT:      -7.3      1.994      2.807
REMARK  Name = 
REMARK  9 active torsions:
REMARK  status: ('A' for Active; 'I' for Inactive)
REMARK    1  A    between atoms: C_1  and  C_2
REMARK    2  A    between atoms: N_4  and  C_5
REMARK    3  A    between atoms: C_8  and  C_9
REMARK    4  A    between atoms: C_9  and  N_10
REMARK    5  A    between atoms: C_14  and  C_15
REMARK    6  A    between atoms: C_14  and  C_17
REMARK    7  A    between atoms: C_15  and  O_16
REMARK    8  A    between atoms: C_17  and  C_18
REMARK    9  A    between atoms: C_23  and  C_24
REMARK                            x       y       z     vdW  Elec       q    Type
REMARK                         _______ _______ _______ _____ _____    ______ ____
ROOT
ATOM      1  N   UNL     1       2.755   5.723  18.460  0.00  0.00    +0.000 NA
ATOM      2  C   UNL     1       1.540   5.200  17.804  0.00  0.00    +0.000 C 
ATOM      3  C   UNL     1       1.346   3.701  17.996  0.00  0.00    +0.000 C 
ATOM      4  C   UNL     1       2.583   2.924  17.584  0.00  0.00    +0.000 C 
ATOM      5  C   UNL     1       3.899   3.431  18.207  0.00  0.00    +0.000 C 
ATOM      6  C   UNL     1       3.969   4.985  18.040  0.00  0.00    +0.000 C 
ENDROOT
BRANCH   1   7
ATOM      7  C   UNL     1       2.920   7.164  18.115  0.00  0.00    +0.000 C 
BRANCH   7  11
ATOM      8  C   UNL     1       0.371   9.771  20.478  0.00  0.00    +0.000 A 
ATOM      9  C   UNL     1       0.943   8.622  21.024  0.00  0.00    +0.000 A 
ATOM     10  C   UNL     1       1.764   7.791  20.265  0.00  0.00    +0.000 A 
ATOM     11  C   UNL     1       2.044   8.095  18.928  0.00  0.00    +0.000 A 
ATOM     12  C   UNL     1       1.489   9.261  18.377  0.00  0.00    +0.000 A 
ATOM     13  C   UNL     1       0.651  10.084  19.140  0.00  0.00    +0.000 A 
BRANCH   8  17
ATOM     14  C   UNL     1      -1.698  11.607  23.042  0.00  0.00    +0.000 C 
ATOM     15  C   UNL     1      -0.582  10.710  22.578  0.00  0.00    +0.000 C 
ATOM     16  O   UNL     1       0.141  10.145  23.399  0.00  0.00    +0.000 OA
ATOM     17  N   UNL     1      -0.495  10.618  21.200  0.00  0.00    +0.000 N 
ATOM     18  H   UNL     1      -1.065  11.255  20.655  0.00  0.00    +0.000 HD
ENDBRANCH   8  17
ENDBRANCH   7  11
ENDBRANCH   1   7
BRANCH   5  19
ATOM     19  C   UNL     1       4.002   3.074  19.715  0.00  0.00    +0.000 C 
BRANCH  19  20
ATOM     20  O   UNL     1       3.070   3.759  20.545  0.00  0.00    +0.000 OA
ATOM     21  H   UNL     1       2.768   3.133  21.235  0.00  0.00    +0.000 HD
ENDBRANCH  19  20
ENDBRANCH   5  19
BRANCH   5  22
ATOM     22  C   UNL     1       5.106   2.799  17.414  0.00  0.00    +0.000 C 
BRANCH  22  23
ATOM     23  C   UNL     1       5.773   3.644  16.333  0.00  0.00    +0.000 A 
ATOM     24  C   UNL     1       5.245   3.560  15.029  0.00  0.00    +0.000 A 
ATOM     25  C   UNL     1       5.754   4.331  13.982  0.00  0.00    +0.000 A 
ATOM     26  C   UNL     1       6.788   5.224  14.218  0.00  0.00    +0.000 A 
ATOM     27  C   UNL     1       7.347   5.304  15.490  0.00  0.00    +0.000 A 
ATOM     28  C   UNL     1       6.888   4.490  16.546  0.00  0.00    +0.000 A 
ATOM     29  C   UNL     1       7.641   4.599  17.845  0.00  0.00    +0.000 C 
ENDBRANCH  22  23
ENDBRANCH   5  22
TORSDOF 7
ENDMDL
MODEL 9
REMARK VINA RESULT:      -7.3      2.120      4.342
REMARK  Name = 
REMARK  9 active torsions:
REMARK  status: ('A' for Active; 'I' for Inactive)
REMARK    1  A    between atoms: C_1  and  C_2
REMARK    2  A    between atoms: N_4  and  C_5
REMARK    3  A    between atoms: C_8  and  C_9
REMARK    4  A    between atoms: C_9  and  N_10
REMARK    5  A    between atoms: C_14  and  C_15
REMARK    6  A    between atoms: C_14  and  C_17
REMARK    7  A    between atoms: C_15  and  O_16
REMARK    8  A    between atoms: C_17  and  C_18
REMARK    9  A    between atoms: C_23  and  C_24
REMARK                            x       y       z     vdW  Elec       q    Type
REMARK                         _______ _______ _______ _____ _____    ______ ____
ROOT
ATOM      1  N   UNL     1       4.722   6.565  16.939  0.00  0.00    +0.000 NA
ATOM      2  C   UNL     1       5.441   6.898  18.184  0.00  0.00    +0.000 C 
ATOM      3  C   UNL     1       6.420   5.818  18.625  0.00  0.00    +0.000 C 
ATOM      4  C   UNL     1       5.748   4.460  18.713  0.00  0.00    +0.000 C 
ATOM      5  C   UNL     1       4.951   4.053  17.457  0.00  0.00    +0.000 C 
ATOM      6  C   UNL     1       4.041   5.252  17.029  0.00  0.00    +0.000 C 
ENDROOT
BRANCH   1   7
ATOM      7  C   UNL     1       3.707   7.619  16.657  0.00  0.00    +0.000 C 
BRANCH   7  11
ATOM      8  C   UNL     1       1.241   8.611  20.095  0.00  0.00    +0.000 A 
ATOM      9  C   UNL     1       1.916   7.392  20.010  0.00  0.00    +0.000 A 
ATOM     10  C   UNL     1       2.710   7.080  18.908  0.00  0.00    +0.000 A 
ATOM     11  C   UNL     1       2.858   7.990  17.856  0.00  0.00    +0.000 A 
ATOM     12  C   UNL     1       2.199   9.227  17.944  0.00  0.00    +0.000 A 
ATOM     13  C   UNL     1       1.389   9.530  19.046  0.00  0.00    +0.000 A 
BRANCH   8  17
ATOM     14  C   UNL     1      -0.333   9.500  23.405  0.00  0.00    +0.000 C 
ATOM     15  C   UNL     1       0.808   9.335  22.438  0.00  0.00    +0.000 C 
ATOM     16  O   UNL     1       1.966   9.538  22.805  0.00  0.00    +0.000 OA
ATOM     17  N   UNL     1       0.399   8.950  21.173  0.00  0.00    +0.000 N 
ATOM     18  H   UNL     1      -0.597   8.965  20.983  0.00  0.00    +0.000 HD
ENDBRANCH   8  17
ENDBRANCH   7  11
ENDBRANCH   1   7
BRANCH   5  19
ATOM     19  C   UNL     1       5.885   3.674  16.276  0.00  0.00    +0.000 C 
BRANCH  19  20
ATOM     20  O   UNL     1       7.273   3.840  16.549  0.00  0.00    +0.000 OA
ATOM     21  H   UNL     1       7.383   3.875  17.522  0.00  0.00    +0.000 HD
ENDBRANCH  19  20
ENDBRANCH   5  19
BRANCH   5  22
ATOM     22  C   UNL     1       4.018   2.838  17.826  0.00  0.00    +0.000 C 
BRANCH  22  23
ATOM     23  C   UNL     1       3.053   3.006  18.996  0.00  0.00    +0.000 A 
ATOM     24  C   UNL     1       3.492   2.572  20.263  0.00  0.00    +0.000 A 
ATOM     25  C   UNL     1       2.702   2.729  21.404  0.00  0.00    +0.000 A 
ATOM     26  C   UNL     1       1.464   3.345  21.310  0.00  0.00    +0.000 A 
ATOM     27  C   UNL     1       0.995   3.754  20.067  0.00  0.00    +0.000 A 
ATOM     28  C   UNL     1       1.750   3.551  18.893  0.00  0.00    +0.000 A 
ATOM     29  C   UNL     1       1.090   3.947  17.600  0.00  0.00    +0.000 C 
ENDBRANCH  22  23
ENDBRANCH   5  22
TORSDOF 7
ENDMDL
