MODEL 1
REMARK VINA RESULT:      -8.1      0.000      0.000
REMARK  Name = 
REMARK  9 active torsions:
REMARK  status: ('A' for Active; 'I' for Inactive)
REMARK    1  A    between atoms: C_1  and  O_2
REMARK    2  A    between atoms: O_2  and  C_3
REMARK    3  A    between atoms: C_6  and  C_7
REMARK    4  A    between atoms: C_7  and  N_8
REMARK    5  A    between atoms: C_10  and  C_11
REMARK    6  A    between atoms: C_11  and  N_12
REMARK    7  A    between atoms: C_13  and  C_15
REMARK    8  A    between atoms: C_20  and  C_21
REMARK    9  A    between atoms: C_33  and  O_34
REMARK                            x       y       z     vdW  Elec       q    Type
REMARK                         _______ _______ _______ _____ _____    ______ ____
ROOT
ATOM      1  N   UNL     1      -1.949  12.390  22.280  0.00  0.00    +0.000 N 
ATOM      2  C   UNL     1      -0.897  11.558  22.014  0.00  0.00    +0.000 C 
ATOM      3  O   UNL     1      -0.236  11.027  22.901  0.00  0.00    +0.000 OA
ATOM      4  H   UNL     1      -2.422  12.893  21.542  0.00  0.00    +0.000 HD
ENDROOT
BRANCH   2   5
ATOM      5  C   UNL     1      -0.527  11.369  20.592  0.00  0.00    +0.000 A 
ATOM      6  C   UNL     1      -0.910  12.331  19.722  0.00  0.00    +0.000 A 
ATOM      7  S   UNL     1      -0.444  12.010  18.054  0.00  0.00    +0.000 S 
ATOM      8  C   UNL     1       0.298  10.544  18.596  0.00  0.00    +0.000 A 
ATOM      9  N   UNL     1       0.977   9.616  17.993  0.00  0.00    +0.000 NA
ATOM     10  C   UNL     1       1.391   8.789  19.019  0.00  0.00    +0.000 A 
ATOM     11  C   UNL     1       0.882   9.223  20.243  0.00  0.00    +0.000 A 
ATOM     12  N   UNL     1       0.180  10.367  19.949  0.00  0.00    +0.000 N 
BRANCH  10  13
ATOM     13  C   UNL     1       2.325   7.699  18.759  0.00  0.00    +0.000 A 
ATOM     14  C   UNL     1       2.482   6.620  19.635  0.00  0.00    +0.000 A 
ATOM     15  C   UNL     1       3.522   5.696  19.447  0.00  0.00    +0.000 A 
ATOM     16  C   UNL     1       4.400   5.839  18.375  0.00  0.00    +0.000 A 
ATOM     17 CL   UNL     1       5.722   4.753  18.200  0.00  0.00    +0.000 Cl
ATOM     18  C   UNL     1       4.232   6.876  17.465  0.00  0.00    +0.000 A 
ATOM     19  C   UNL     1       3.196   7.799  17.658  0.00  0.00    +0.000 A 
ENDBRANCH  10  13
ENDBRANCH   2   5
BRANCH   1  20
ATOM     20  C   UNL     1      -2.339  12.712  23.641  0.00  0.00    +0.000 C 
BRANCH  20  23
ATOM     21  N   UNL     1      -5.972  12.727  23.480  0.00  0.00    +0.000 N 
ATOM     22  C   UNL     1      -4.802  13.150  22.913  0.00  0.00    +0.000 A 
ATOM     23  C   UNL     1      -3.822  12.657  23.751  0.00  0.00    +0.000 A 
ATOM     24  N   UNL     1      -4.423  12.008  24.800  0.00  0.00    +0.000 NA
ATOM     25  N   UNL     1      -5.736  12.056  24.624  0.00  0.00    +0.000 NA
BRANCH  21  26
ATOM     26  C   UNL     1      -7.297  12.702  22.880  0.00  0.00    +0.000 C 
BRANCH  26  30
ATOM     27  C   UNL     1      -7.044  12.493  18.551  0.00  0.00    +0.000 A 
ATOM     28  C   UNL     1      -7.047  13.723  19.218  0.00  0.00    +0.000 A 
ATOM     29  C   UNL     1      -7.160  13.796  20.610  0.00  0.00    +0.000 A 
ATOM     30  C   UNL     1      -7.284  12.629  21.374  0.00  0.00    +0.000 A 
ATOM     31  C   UNL     1      -7.293  11.394  20.707  0.00  0.00    +0.000 A 
ATOM     32  C   UNL     1      -7.170  11.326  19.311  0.00  0.00    +0.000 A 
BRANCH  27  34
ATOM     33  C   UNL     1      -7.130  13.894  16.613  0.00  0.00    +0.000 C 
ATOM     34  O   UNL     1      -6.901  12.620  17.197  0.00  0.00    +0.000 OA
ENDBRANCH  27  34
BRANCH  32  35
ATOM     35  O   UNL     1      -7.160  10.091  18.726  0.00  0.00    +0.000 OA
ATOM     36  H   UNL     1      -8.071   9.757  18.671  0.00  0.00    +0.000 HD
ENDBRANCH  32  35
ENDBRANCH  26  30
ENDBRANCH  21  26
ENDBRANCH  20  23
ENDBRANCH   1  20
TORSDOF 8
ENDMDL
MODEL 2
REMARK VINA RESULT:      -7.4      5.353      9.616
REMARK  Name = 
REMARK  9 active torsions:
REMARK  status: ('A' for Active; 'I' for Inactive)
REMARK    1  A    between atoms: C_1  and  O_2
REMARK    2  A    between atoms: O_2  and  C_3
REMARK    3  A    between atoms: C_6  and  C_7
REMARK    4  A    between atoms: C_7  and  N_8
REMARK    5  A    between atoms: C_10  and  C_11
REMARK    6  A    between atoms: C_11  and  N_12
REMARK    7  A    between atoms: C_13  and  C_15
REMARK    8  A    between atoms: C_20  and  C_21
REMARK    9  A    between atoms: C_33  and  O_34
REMARK                            x       y       z     vdW  Elec       q    Type
REMARK                         _______ _______ _______ _____ _____    ______ ____
ROOT
ATOM      1  N   UNL     1      -0.167  12.044  19.638  0.00  0.00    +0.000 N 
ATOM      2  C   UNL     1      -0.288  13.003  18.670  0.00  0.00    +0.000 C 
ATOM      3  O   UNL     1      -0.900  12.810  17.624  0.00  0.00    +0.000 OA
ATOM      4  H   UNL     1       0.418  12.187  20.449  0.00  0.00    +0.000 HD
ENDROOT
BRANCH   2   5
ATOM      5  C   UNL     1       0.417  14.286  18.898  0.00  0.00    +0.000 A 
ATOM      6  C   UNL     1      -0.337  15.350  19.253  0.00  0.00    +0.000 A 
ATOM      7  S   UNL     1       0.585  16.833  19.481  0.00  0.00    +0.000 S 
ATOM      8  C   UNL     1       2.018  15.942  19.097  0.00  0.00    +0.000 A 
ATOM      9  N   UNL     1       3.277  16.258  19.057  0.00  0.00    +0.000 NA
ATOM     10  C   UNL     1       3.911  15.056  18.805  0.00  0.00    +0.000 A 
ATOM     11  C   UNL     1       2.982  14.031  18.635  0.00  0.00    +0.000 A 
ATOM     12  N   UNL     1       1.759  14.623  18.833  0.00  0.00    +0.000 N 
BRANCH  10  13
ATOM     13  C   UNL     1       5.367  14.967  18.844  0.00  0.00    +0.000 A 
ATOM     14  C   UNL     1       6.126  14.596  17.729  0.00  0.00    +0.000 A 
ATOM     15  C   UNL     1       7.499  14.337  17.859  0.00  0.00    +0.000 A 
ATOM     16  C   UNL     1       8.122  14.460  19.098  0.00  0.00    +0.000 A 
ATOM     17 CL   UNL     1       9.786  14.059  19.266  0.00  0.00    +0.000 Cl
ATOM     18  C   UNL     1       7.396  14.876  20.209  0.00  0.00    +0.000 A 
ATOM     19  C   UNL     1       6.025  15.129  20.078  0.00  0.00    +0.000 A 
ENDBRANCH  10  13
ENDBRANCH   2   5
BRANCH   1  20
ATOM     20  C   UNL     1      -0.746  10.722  19.476  0.00  0.00    +0.000 C 
BRANCH  20  23
ATOM     21  N   UNL     1       1.959   8.457  18.594  0.00  0.00    +0.000 N 
ATOM     22  C   UNL     1       0.994   9.313  18.143  0.00  0.00    +0.000 A 
ATOM     23  C   UNL     1       0.348   9.730  19.288  0.00  0.00    +0.000 A 
ATOM     24  N   UNL     1       0.901   9.087  20.367  0.00  0.00    +0.000 NA
ATOM     25  N   UNL     1       1.885   8.312  19.932  0.00  0.00    +0.000 NA
BRANCH  21  26
ATOM     26  C   UNL     1       3.113   7.950  17.870  0.00  0.00    +0.000 C 
BRANCH  26  30
ATOM     27  C   UNL     1       3.296   3.623  17.565  0.00  0.00    +0.000 A 
ATOM     28  C   UNL     1       2.122   4.272  17.961  0.00  0.00    +0.000 A 
ATOM     29  C   UNL     1       2.068   5.664  18.090  0.00  0.00    +0.000 A 
ATOM     30  C   UNL     1       3.201   6.445  17.835  0.00  0.00    +0.000 A 
ATOM     31  C   UNL     1       4.384   5.796  17.450  0.00  0.00    +0.000 A 
ATOM     32  C   UNL     1       4.431   4.401  17.312  0.00  0.00    +0.000 A 
BRANCH  27  34
ATOM     33  C   UNL     1       3.503   1.474  18.595  0.00  0.00    +0.000 C 
ATOM     34  O   UNL     1       3.152   2.267  17.471  0.00  0.00    +0.000 OA
ENDBRANCH  27  34
BRANCH  32  35
ATOM     35  O   UNL     1       5.607   3.833  16.908  0.00  0.00    +0.000 OA
ATOM     36  H   UNL     1       5.672   3.889  15.940  0.00  0.00    +0.000 HD
ENDBRANCH  32  35
ENDBRANCH  26  30
ENDBRANCH  21  26
ENDBRANCH  20  23
ENDBRANCH   1  20
TORSDOF 8
ENDMDL
MODEL 3
REMARK VINA RESULT:      -7.4      4.834     10.933
REMARK  Name = 
REMARK  9 active torsions:
REMARK  status: ('A' for Active; 'I' for Inactive)
REMARK    1  A    between atoms: C_1  and  O_2
REMARK    2  A    between atoms: O_2  and  C_3
REMARK    3  A    between atoms: C_6  and  C_7
REMARK    4  A    between atoms: C_7  and  N_8
REMARK    5  A    between atoms: C_10  and  C_11
REMARK    6  A    between atoms: C_11  and  N_12
REMARK    7  A    between atoms: C_13  and  C_15
REMARK    8  A    between atoms: C_20  and  C_21
REMARK    9  A    between atoms: C_33  and  O_34
REMARK                            x       y       z     vdW  Elec       q    Type
REMARK                         _______ _______ _______ _____ _____    ______ ____
ROOT
ATOM      1  N   UNL     1       1.478  10.686  19.158  0.00  0.00    +0.000 N 
ATOM      2  C   UNL     1       1.805  11.989  18.903  0.00  0.00    +0.000 C 
ATOM      3  O   UNL     1       2.311  12.346  17.844  0.00  0.00    +0.000 OA
ATOM      4  H   UNL     1       1.150  10.394  20.068  0.00  0.00    +0.000 HD
ENDROOT
BRANCH   2   5
ATOM      5  C   UNL     1       1.588  12.966  19.995  0.00  0.00    +0.000 A 
ATOM      6  C   UNL     1       2.537  13.913  20.174  0.00  0.00    +0.000 A 
ATOM      7  S   UNL     1       2.202  15.014  21.507  0.00  0.00    +0.000 S 
ATOM      8  C   UNL     1       0.729  14.151  21.786  0.00  0.00    +0.000 A 
ATOM      9  N   UNL     1      -0.251  14.311  22.623  0.00  0.00    +0.000 NA
ATOM     10  C   UNL     1      -1.175  13.359  22.237  0.00  0.00    +0.000 A 
ATOM     11  C   UNL     1      -0.684  12.589  21.183  0.00  0.00    +0.000 A 
ATOM     12  N   UNL     1       0.551  13.121  20.900  0.00  0.00    +0.000 N 
BRANCH  10  13
ATOM     13  C   UNL     1      -2.500  13.327  22.845  0.00  0.00    +0.000 A 
ATOM     14  C   UNL     1      -2.865  12.371  23.800  0.00  0.00    +0.000 A 
ATOM     15  C   UNL     1      -4.200  12.256  24.216  0.00  0.00    +0.000 A 
ATOM     16  C   UNL     1      -5.173  13.104  23.693  0.00  0.00    +0.000 A 
ATOM     17 CL   UNL     1      -6.820  12.901  24.145  0.00  0.00    +0.000 Cl
ATOM     18  C   UNL     1      -4.823  14.093  22.781  0.00  0.00    +0.000 A 
ATOM     19  C   UNL     1      -3.491  14.203  22.363  0.00  0.00    +0.000 A 
ENDBRANCH  10  13
ENDBRANCH   2   5
BRANCH   1  20
ATOM     20  C   UNL     1       1.731   9.634  18.189  0.00  0.00    +0.000 C 
BRANCH  20  23
ATOM     21  N   UNL     1       2.448   6.359  19.599  0.00  0.00    +0.000 N 
ATOM     22  C   UNL     1       2.496   7.162  18.493  0.00  0.00    +0.000 A 
ATOM     23  C   UNL     1       1.912   8.342  18.906  0.00  0.00    +0.000 A 
ATOM     24  N   UNL     1       1.495   8.199  20.205  0.00  0.00    +0.000 NA
ATOM     25  N   UNL     1       1.828   6.984  20.619  0.00  0.00    +0.000 NA
BRANCH  21  26
ATOM     26  C   UNL     1       3.172   5.121  19.835  0.00  0.00    +0.000 C 
BRANCH  26  30
ATOM     27  C   UNL     1       6.069   4.384  16.686  0.00  0.00    +0.000 A 
ATOM     28  C   UNL     1       4.767   3.879  16.605  0.00  0.00    +0.000 A 
ATOM     29  C   UNL     1       3.840   4.088  17.631  0.00  0.00    +0.000 A 
ATOM     30  C   UNL     1       4.201   4.804  18.779  0.00  0.00    +0.000 A 
ATOM     31  C   UNL     1       5.510   5.301  18.869  0.00  0.00    +0.000 A 
ATOM     32  C   UNL     1       6.433   5.097  17.832  0.00  0.00    +0.000 A 
BRANCH  27  34
ATOM     33  C   UNL     1       6.705   4.954  14.451  0.00  0.00    +0.000 C 
ATOM     34  O   UNL     1       6.822   4.101  15.580  0.00  0.00    +0.000 OA
ENDBRANCH  27  34
BRANCH  32  35
ATOM     35  O   UNL     1       7.685   5.629  17.971  0.00  0.00    +0.000 OA
ATOM     36  H   UNL     1       7.963   5.553  18.899  0.00  0.00    +0.000 HD
ENDBRANCH  32  35
ENDBRANCH  26  30
ENDBRANCH  21  26
ENDBRANCH  20  23
ENDBRANCH   1  20
TORSDOF 8
ENDMDL
MODEL 4
REMARK VINA RESULT:      -7.4      2.904      4.365
REMARK  Name = 
REMARK  9 active torsions:
REMARK  status: ('A' for Active; 'I' for Inactive)
REMARK    1  A    between atoms: C_1  and  O_2
REMARK    2  A    between atoms: O_2  and  C_3
REMARK    3  A    between atoms: C_6  and  C_7
REMARK    4  A    between atoms: C_7  and  N_8
REMARK    5  A    between atoms: C_10  and  C_11
REMARK    6  A    between atoms: C_11  and  N_12
REMARK    7  A    between atoms: C_13  and  C_15
REMARK    8  A    between atoms: C_20  and  C_21
REMARK    9  A    between atoms: C_33  and  O_34
REMARK                            x       y       z     vdW  Elec       q    Type
REMARK                         _______ _______ _______ _____ _____    ______ ____
ROOT
ATOM      1  N   UNL     1      -3.354  11.716  17.103  0.00  0.00    +0.000 N 
ATOM      2  C   UNL     1      -2.654  10.601  17.475  0.00  0.00    +0.000 C 
ATOM      3  O   UNL     1      -3.079   9.465  17.290  0.00  0.00    +0.000 OA
ATOM      4  H   UNL     1      -3.034  12.643  17.347  0.00  0.00    +0.000 HD
ENDROOT
BRANCH   2   5
ATOM      5  C   UNL     1      -1.372  10.814  18.185  0.00  0.00    +0.000 A 
ATOM      6  C   UNL     1      -1.298  11.874  19.021  0.00  0.00    +0.000 A 
ATOM      7  S   UNL     1       0.269  12.057  19.803  0.00  0.00    +0.000 S 
ATOM      8  C   UNL     1       0.796  10.636  18.968  0.00  0.00    +0.000 A 
ATOM      9  N   UNL     1       1.905   9.959  18.978  0.00  0.00    +0.000 NA
ATOM     10  C   UNL     1       1.629   8.863  18.184  0.00  0.00    +0.000 A 
ATOM     11  C   UNL     1       0.342   8.945  17.653  0.00  0.00    +0.000 A 
ATOM     12  N   UNL     1      -0.185  10.100  18.177  0.00  0.00    +0.000 N 
BRANCH  10  13
ATOM     13  C   UNL     1       2.589   7.769  18.075  0.00  0.00    +0.000 A 
ATOM     14  C   UNL     1       3.782   7.888  17.354  0.00  0.00    +0.000 A 
ATOM     15  C   UNL     1       4.582   6.760  17.115  0.00  0.00    +0.000 A 
ATOM     16  C   UNL     1       4.201   5.513  17.605  0.00  0.00    +0.000 A 
ATOM     17 CL   UNL     1       5.143   4.122  17.235  0.00  0.00    +0.000 Cl
ATOM     18  C   UNL     1       3.045   5.383  18.366  0.00  0.00    +0.000 A 
ATOM     19  C   UNL     1       2.245   6.509  18.599  0.00  0.00    +0.000 A 
ENDBRANCH  10  13
ENDBRANCH   2   5
BRANCH   1  20
ATOM     20  C   UNL     1      -4.662  11.621  16.479  0.00  0.00    +0.000 C 
BRANCH  20  23
ATOM     21  N   UNL     1      -6.993  11.480  19.266  0.00  0.00    +0.000 N 
ATOM     22  C   UNL     1      -5.963  10.869  18.606  0.00  0.00    +0.000 A 
ATOM     23  C   UNL     1      -5.712  11.695  17.531  0.00  0.00    +0.000 A 
ATOM     24  N   UNL     1      -6.611  12.731  17.549  0.00  0.00    +0.000 NA
ATOM     25  N   UNL     1      -7.389  12.590  18.613  0.00  0.00    +0.000 NA
BRANCH  21  26
ATOM     26  C   UNL     1      -7.471  11.218  20.614  0.00  0.00    +0.000 C 
BRANCH  26  30
ATOM     27  C   UNL     1      -5.947  14.075  23.506  0.00  0.00    +0.000 A 
ATOM     28  C   UNL     1      -5.237  13.778  22.337  0.00  0.00    +0.000 A 
ATOM     29  C   UNL     1      -5.709  12.836  21.418  0.00  0.00    +0.000 A 
ATOM     30  C   UNL     1      -6.908  12.153  21.654  0.00  0.00    +0.000 A 
ATOM     31  C   UNL     1      -7.617  12.439  22.832  0.00  0.00    +0.000 A 
ATOM     32  C   UNL     1      -7.143  13.392  23.746  0.00  0.00    +0.000 A 
BRANCH  27  34
ATOM     33  C   UNL     1      -5.827  16.368  24.177  0.00  0.00    +0.000 C 
ATOM     34  O   UNL     1      -5.343  15.036  24.268  0.00  0.00    +0.000 OA
ENDBRANCH  27  34
BRANCH  32  35
ATOM     35  O   UNL     1      -7.894  13.643  24.860  0.00  0.00    +0.000 OA
ATOM     36  H   UNL     1      -7.905  14.600  25.028  0.00  0.00    +0.000 HD
ENDBRANCH  32  35
ENDBRANCH  26  30
ENDBRANCH  21  26
ENDBRANCH  20  23
ENDBRANCH   1  20
TORSDOF 8
ENDMDL
MODEL 5
REMARK VINA RESULT:      -7.4      5.553      9.653
REMARK  Name = 
REMARK  9 active torsions:
REMARK  status: ('A' for Active; 'I' for Inactive)
REMARK    1  A    between atoms: C_1  and  O_2
REMARK    2  A    between atoms: O_2  and  C_3
REMARK    3  A    between atoms: C_6  and  C_7
REMARK    4  A    between atoms: C_7  and  N_8
REMARK    5  A    between atoms: C_10  and  C_11
REMARK    6  A    between atoms: C_11  and  N_12
REMARK    7  A    between atoms: C_13  and  C_15
REMARK    8  A    between atoms: C_20  and  C_21
REMARK    9  A    between atoms: C_33  and  O_34
REMARK                            x       y       z     vdW  Elec       q    Type
REMARK                         _______ _______ _______ _____ _____    ______ ____
ROOT
ATOM      1  N   UNL     1       1.366  12.013  18.882  0.00  0.00    +0.000 N 
ATOM      2  C   UNL     1       0.399  11.053  18.989  0.00  0.00    +0.000 C 
ATOM      3  O   UNL     1      -0.765  11.249  18.654  0.00  0.00    +0.000 OA
ATOM      4  H   UNL     1       2.296  11.866  19.248  0.00  0.00    +0.000 HD
ENDROOT
BRANCH   2   5
ATOM      5  C   UNL     1       0.793   9.762  19.600  0.00  0.00    +0.000 A 
ATOM      6  C   UNL     1       0.185   9.415  20.756  0.00  0.00    +0.000 A 
ATOM      7  S   UNL     1       0.733   7.877  21.416  0.00  0.00    +0.000 S 
ATOM      8  C   UNL     1       1.791   7.726  20.055  0.00  0.00    +0.000 A 
ATOM      9  N   UNL     1       2.616   6.801  19.668  0.00  0.00    +0.000 NA
ATOM     10  C   UNL     1       3.054   7.243  18.435  0.00  0.00    +0.000 A 
ATOM     11  C   UNL     1       2.510   8.491  18.133  0.00  0.00    +0.000 A 
ATOM     12  N   UNL     1       1.689   8.786  19.194  0.00  0.00    +0.000 N 
BRANCH  10  13
ATOM     13  C   UNL     1       3.885   6.387  17.596  0.00  0.00    +0.000 A 
ATOM     14  C   UNL     1       4.815   6.903  16.686  0.00  0.00    +0.000 A 
ATOM     15  C   UNL     1       5.454   6.057  15.766  0.00  0.00    +0.000 A 
ATOM     16  C   UNL     1       5.178   4.692  15.761  0.00  0.00    +0.000 A 
ATOM     17 CL   UNL     1       5.900   3.676  14.576  0.00  0.00    +0.000 Cl
ATOM     18  C   UNL     1       4.295   4.152  16.689  0.00  0.00    +0.000 A 
ATOM     19  C   UNL     1       3.655   4.998  17.603  0.00  0.00    +0.000 A 
ENDBRANCH  10  13
ENDBRANCH   2   5
BRANCH   1  20
ATOM     20  C   UNL     1       1.067  13.342  18.378  0.00  0.00    +0.000 C 
BRANCH  20  23
ATOM     21  N   UNL     1       4.061  15.341  18.888  0.00  0.00    +0.000 N 
ATOM     22  C   UNL     1       3.531  14.187  18.382  0.00  0.00    +0.000 A 
ATOM     23  C   UNL     1       2.193  14.256  18.711  0.00  0.00    +0.000 A 
ATOM     24  N   UNL     1       1.973  15.403  19.432  0.00  0.00    +0.000 NA
ATOM     25  N   UNL     1       3.121  16.059  19.534  0.00  0.00    +0.000 NA
BRANCH  21  26
ATOM     26  C   UNL     1       5.354  15.936  18.590  0.00  0.00    +0.000 C 
BRANCH  26  30
ATOM     27  C   UNL     1       8.829  13.362  18.984  0.00  0.00    +0.000 A 
ATOM     28  C   UNL     1       8.134  13.460  17.774  0.00  0.00    +0.000 A 
ATOM     29  C   UNL     1       6.996  14.264  17.651  0.00  0.00    +0.000 A 
ATOM     30  C   UNL     1       6.515  14.986  18.750  0.00  0.00    +0.000 A 
ATOM     31  C   UNL     1       7.203  14.881  19.969  0.00  0.00    +0.000 A 
ATOM     32  C   UNL     1       8.350  14.080  20.084  0.00  0.00    +0.000 A 
BRANCH  27  34
ATOM     33  C   UNL     1       9.858  11.407  18.065  0.00  0.00    +0.000 C 
ATOM     34  O   UNL     1       9.926  12.550  18.906  0.00  0.00    +0.000 OA
ENDBRANCH  27  34
BRANCH  32  35
ATOM     35  O   UNL     1       8.988  14.041  21.292  0.00  0.00    +0.000 OA
ATOM     36  H   UNL     1       8.514  13.432  21.883  0.00  0.00    +0.000 HD
ENDBRANCH  32  35
ENDBRANCH  26  30
ENDBRANCH  21  26
ENDBRANCH  20  23
ENDBRANCH   1  20
TORSDOF 8
ENDMDL
MODEL 6
REMARK VINA RESULT:      -7.4      3.061      4.208
REMARK  Name = 
REMARK  9 active torsions:
REMARK  status: ('A' for Active; 'I' for Inactive)
REMARK    1  A    between atoms: C_1  and  O_2
REMARK    2  A    between atoms: O_2  and  C_3
REMARK    3  A    between atoms: C_6  and  C_7
REMARK    4  A    between atoms: C_7  and  N_8
REMARK    5  A    between atoms: C_10  and  C_11
REMARK    6  A    between atoms: C_11  and  N_12
REMARK    7  A    between atoms: C_13  and  C_15
REMARK    8  A    between atoms: C_20  and  C_21
REMARK    9  A    between atoms: C_33  and  O_34
REMARK                            x       y       z     vdW  Elec       q    Type
REMARK                         _______ _______ _______ _____ _____    ______ ____
ROOT
ATOM      1  N   UNL     1      -2.645  10.848  17.902  0.00  0.00    +0.000 N 
ATOM      2  C   UNL     1      -1.559  11.500  18.418  0.00  0.00    +0.000 C 
ATOM      3  O   UNL     1      -1.263  12.645  18.093  0.00  0.00    +0.000 OA
ATOM      4  H   UNL     1      -2.821   9.874  18.108  0.00  0.00    +0.000 HD
ENDROOT
BRANCH   2   5
ATOM      5  C   UNL     1      -0.693  10.739  19.348  0.00  0.00    +0.000 A 
ATOM      6  C   UNL     1      -0.893  10.929  20.672  0.00  0.00    +0.000 A 
ATOM      7  S   UNL     1       0.196  10.000  21.697  0.00  0.00    +0.000 S 
ATOM      8  C   UNL     1       0.904   9.340  20.263  0.00  0.00    +0.000 A 
ATOM      9  N   UNL     1       1.836   8.460  20.057  0.00  0.00    +0.000 NA
ATOM     10  C   UNL     1       1.834   8.293  18.685  0.00  0.00    +0.000 A 
ATOM     11  C   UNL     1       0.913   9.148  18.082  0.00  0.00    +0.000 A 
ATOM     12  N   UNL     1       0.315   9.817  19.123  0.00  0.00    +0.000 N 
BRANCH  10  13
ATOM     13  C   UNL     1       2.648   7.252  18.066  0.00  0.00    +0.000 A 
ATOM     14  C   UNL     1       2.384   5.889  18.243  0.00  0.00    +0.000 A 
ATOM     15  C   UNL     1       3.298   4.924  17.792  0.00  0.00    +0.000 A 
ATOM     16  C   UNL     1       4.470   5.315  17.151  0.00  0.00    +0.000 A 
ATOM     17 CL   UNL     1       5.624   4.131  16.676  0.00  0.00    +0.000 Cl
ATOM     18  C   UNL     1       4.727   6.662  16.920  0.00  0.00    +0.000 A 
ATOM     19  C   UNL     1       3.817   7.623  17.376  0.00  0.00    +0.000 A 
ENDBRANCH  10  13
ENDBRANCH   2   5
BRANCH   1  20
ATOM     20  C   UNL     1      -3.509  11.471  16.915  0.00  0.00    +0.000 C 
BRANCH  20  23
ATOM     21  N   UNL     1      -6.578  11.968  18.803  0.00  0.00    +0.000 N 
ATOM     22  C   UNL     1      -5.365  11.340  18.739  0.00  0.00    +0.000 A 
ATOM     23  C   UNL     1      -4.836  11.747  17.532  0.00  0.00    +0.000 A 
ATOM     24  N   UNL     1      -5.748  12.552  16.897  0.00  0.00    +0.000 NA
ATOM     25  N   UNL     1      -6.809  12.680  17.683  0.00  0.00    +0.000 NA
BRANCH  21  26
ATOM     26  C   UNL     1      -7.435  12.139  19.965  0.00  0.00    +0.000 C 
BRANCH  26  30
ATOM     27  C   UNL     1      -5.926  14.708  23.122  0.00  0.00    +0.000 A 
ATOM     28  C   UNL     1      -6.240  15.221  21.860  0.00  0.00    +0.000 A 
ATOM     29  C   UNL     1      -6.697  14.392  20.830  0.00  0.00    +0.000 A 
ATOM     30  C   UNL     1      -6.841  13.015  21.039  0.00  0.00    +0.000 A 
ATOM     31  C   UNL     1      -6.515  12.495  22.301  0.00  0.00    +0.000 A 
ATOM     32  C   UNL     1      -6.066  13.333  23.333  0.00  0.00    +0.000 A 
BRANCH  27  34
ATOM     33  C   UNL     1      -4.152  16.052  24.000  0.00  0.00    +0.000 C 
ATOM     34  O   UNL     1      -5.520  15.671  24.004  0.00  0.00    +0.000 OA
ENDBRANCH  27  34
BRANCH  32  35
ATOM     35  O   UNL     1      -5.790  12.767  24.546  0.00  0.00    +0.000 OA
ATOM     36  H   UNL     1      -6.577  12.830  25.114  0.00  0.00    +0.000 HD
ENDBRANCH  32  35
ENDBRANCH  26  30
ENDBRANCH  21  26
ENDBRANCH  20  23
ENDBRANCH   1  20
TORSDOF 8
ENDMDL
MODEL 7
REMARK VINA RESULT:      -7.4      5.785      9.855
REMARK  Name = 
REMARK  9 active torsions:
REMARK  status: ('A' for Active; 'I' for Inactive)
REMARK    1  A    between atoms: C_1  and  O_2
REMARK    2  A    between atoms: O_2  and  C_3
REMARK    3  A    between atoms: C_6  and  C_7
REMARK    4  A    between atoms: C_7  and  N_8
REMARK    5  A    between atoms: C_10  and  C_11
REMARK    6  A    between atoms: C_11  and  N_12
REMARK    7  A    between atoms: C_13  and  C_15
REMARK    8  A    between atoms: C_20  and  C_21
REMARK    9  A    between atoms: C_33  and  O_34
REMARK                            x       y       z     vdW  Elec       q    Type
REMARK                         _______ _______ _______ _____ _____    ______ ____
ROOT
ATOM      1  N   UNL     1      -0.081  12.091  19.239  0.00  0.00    +0.000 N 
ATOM      2  C   UNL     1       0.852  12.819  19.925  0.00  0.00    +0.000 C 
ATOM      3  O   UNL     1       1.336  12.438  20.986  0.00  0.00    +0.000 OA
ATOM      4  H   UNL     1      -0.538  12.462  18.418  0.00  0.00    +0.000 HD
ENDROOT
BRANCH   2   5
ATOM      5  C   UNL     1       1.217  14.144  19.370  0.00  0.00    +0.000 A 
ATOM      6  C   UNL     1       0.227  15.057  19.252  0.00  0.00    +0.000 A 
ATOM      7  S   UNL     1       0.751  16.591  18.565  0.00  0.00    +0.000 S 
ATOM      8  C   UNL     1       2.353  15.945  18.470  0.00  0.00    +0.000 A 
ATOM      9  N   UNL     1       3.491  16.441  18.088  0.00  0.00    +0.000 NA
ATOM     10  C   UNL     1       4.401  15.444  18.381  0.00  0.00    +0.000 A 
ATOM     11  C   UNL     1       3.757  14.317  18.889  0.00  0.00    +0.000 A 
ATOM     12  N   UNL     1       2.428  14.662  18.945  0.00  0.00    +0.000 N 
BRANCH  10  13
ATOM     13  C   UNL     1       5.833  15.687  18.241  0.00  0.00    +0.000 A 
ATOM     14  C   UNL     1       6.725  14.693  17.823  0.00  0.00    +0.000 A 
ATOM     15  C   UNL     1       8.110  14.910  17.885  0.00  0.00    +0.000 A 
ATOM     16  C   UNL     1       8.609  16.124  18.352  0.00  0.00    +0.000 A 
ATOM     17 CL   UNL     1      10.307  16.350  18.505  0.00  0.00    +0.000 Cl
ATOM     18  C   UNL     1       7.739  17.142  18.725  0.00  0.00    +0.000 A 
ATOM     19  C   UNL     1       6.358  16.921  18.666  0.00  0.00    +0.000 A 
ENDBRANCH  10  13
ENDBRANCH   2   5
BRANCH   1  20
ATOM     20  C   UNL     1      -0.573  10.820  19.741  0.00  0.00    +0.000 C 
BRANCH  20  23
ATOM     21  N   UNL     1       1.921   8.421  18.622  0.00  0.00    +0.000 N 
ATOM     22  C   UNL     1       1.032   9.396  18.263  0.00  0.00    +0.000 A 
ATOM     23  C   UNL     1       0.430   9.759  19.450  0.00  0.00    +0.000 A 
ATOM     24  N   UNL     1       0.929   8.974  20.458  0.00  0.00    +0.000 NA
ATOM     25  N   UNL     1       1.841   8.160  19.942  0.00  0.00    +0.000 NA
BRANCH  21  26
ATOM     26  C   UNL     1       3.024   7.886  17.840  0.00  0.00    +0.000 C 
BRANCH  26  30
ATOM     27  C   UNL     1       3.157   3.555  17.576  0.00  0.00    +0.000 A 
ATOM     28  C   UNL     1       1.959   4.228  17.841  0.00  0.00    +0.000 A 
ATOM     29  C   UNL     1       1.918   5.621  17.958  0.00  0.00    +0.000 A 
ATOM     30  C   UNL     1       3.087   6.380  17.822  0.00  0.00    +0.000 A 
ATOM     31  C   UNL     1       4.292   5.707  17.569  0.00  0.00    +0.000 A 
ATOM     32  C   UNL     1       4.326   4.310  17.443  0.00  0.00    +0.000 A 
BRANCH  27  34
ATOM     33  C   UNL     1       3.381   1.393  18.576  0.00  0.00    +0.000 C 
ATOM     34  O   UNL     1       2.997   2.201  17.473  0.00  0.00    +0.000 OA
ENDBRANCH  27  34
BRANCH  32  35
ATOM     35  O   UNL     1       5.528   3.718  17.170  0.00  0.00    +0.000 OA
ATOM     36  H   UNL     1       5.375   2.913  16.648  0.00  0.00    +0.000 HD
ENDBRANCH  32  35
ENDBRANCH  26  30
ENDBRANCH  21  26
ENDBRANCH  20  23
ENDBRANCH   1  20
TORSDOF 8
ENDMDL
MODEL 8
REMARK VINA RESULT:      -7.4      4.603     10.759
REMARK  Name = 
REMARK  9 active torsions:
REMARK  status: ('A' for Active; 'I' for Inactive)
REMARK    1  A    between atoms: C_1  and  O_2
REMARK    2  A    between atoms: O_2  and  C_3
REMARK    3  A    between atoms: C_6  and  C_7
REMARK    4  A    between atoms: C_7  and  N_8
REMARK    5  A    between atoms: C_10  and  C_11
REMARK    6  A    between atoms: C_11  and  N_12
REMARK    7  A    between atoms: C_13  and  C_15
REMARK    8  A    between atoms: C_20  and  C_21
REMARK    9  A    between atoms: C_33  and  O_34
REMARK                            x       y       z     vdW  Elec       q    Type
REMARK                         _______ _______ _______ _____ _____    ______ ____
ROOT
ATOM      1  N   UNL     1       0.024  10.673  18.360  0.00  0.00    +0.000 N 
ATOM      2  C   UNL     1      -1.222  10.412  17.858  0.00  0.00    +0.000 C 
ATOM      3  O   UNL     1      -1.402   9.680  16.889  0.00  0.00    +0.000 OA
ATOM      4  H   UNL     1       0.163  11.350  19.096  0.00  0.00    +0.000 HD
ENDROOT
BRANCH   2   5
ATOM      5  C   UNL     1      -2.365  11.111  18.490  0.00  0.00    +0.000 A 
ATOM      6  C   UNL     1      -3.583  10.932  17.932  0.00  0.00    +0.000 A 
ATOM      7  S   UNL     1      -4.873  11.817  18.739  0.00  0.00    +0.000 S 
ATOM      8  C   UNL     1      -3.698  12.410  19.861  0.00  0.00    +0.000 A 
ATOM      9  N   UNL     1      -3.777  13.167  20.914  0.00  0.00    +0.000 NA
ATOM     10  C   UNL     1      -2.494  13.152  21.428  0.00  0.00    +0.000 A 
ATOM     11  C   UNL     1      -1.640  12.412  20.610  0.00  0.00    +0.000 A 
ATOM     12  N   UNL     1      -2.441  11.934  19.601  0.00  0.00    +0.000 N 
BRANCH  10  13
ATOM     13  C   UNL     1      -2.209  13.768  22.719  0.00  0.00    +0.000 A 
ATOM     14  C   UNL     1      -3.161  13.843  23.741  0.00  0.00    +0.000 A 
ATOM     15  C   UNL     1      -2.911  14.608  24.891  0.00  0.00    +0.000 A 
ATOM     16  C   UNL     1      -1.704  15.289  25.030  0.00  0.00    +0.000 A 
ATOM     17 CL   UNL     1      -1.440  16.293  26.402  0.00  0.00    +0.000 Cl
ATOM     18  C   UNL     1      -0.724  15.187  24.049  0.00  0.00    +0.000 A 
ATOM     19  C   UNL     1      -0.978  14.427  22.901  0.00  0.00    +0.000 A 
ENDBRANCH  10  13
ENDBRANCH   2   5
BRANCH   1  20
ATOM     20  C   UNL     1       1.220  10.109  17.758  0.00  0.00    +0.000 C 
BRANCH  20  23
ATOM     21  N   UNL     1       2.427   7.005  19.220  0.00  0.00    +0.000 N 
ATOM     22  C   UNL     1       2.287   7.755  18.085  0.00  0.00    +0.000 A 
ATOM     23  C   UNL     1       1.609   8.881  18.504  0.00  0.00    +0.000 A 
ATOM     24  N   UNL     1       1.325   8.755  19.840  0.00  0.00    +0.000 NA
ATOM     25  N   UNL     1       1.830   7.605  20.268  0.00  0.00    +0.000 NA
BRANCH  21  26
ATOM     26  C   UNL     1       3.306   5.868  19.436  0.00  0.00    +0.000 C 
BRANCH  26  30
ATOM     27  C   UNL     1       5.963   5.275  16.053  0.00  0.00    +0.000 A 
ATOM     28  C   UNL     1       4.873   4.426  16.275  0.00  0.00    +0.000 A 
ATOM     29  C   UNL     1       4.033   4.595  17.381  0.00  0.00    +0.000 A 
ATOM     30  C   UNL     1       4.273   5.619  18.305  0.00  0.00    +0.000 A 
ATOM     31  C   UNL     1       5.372   6.464  18.092  0.00  0.00    +0.000 A 
ATOM     32  C   UNL     1       6.206   6.297  16.976  0.00  0.00    +0.000 A 
BRANCH  27  34
ATOM     33  C   UNL     1       6.141   3.949  14.069  0.00  0.00    +0.000 C 
ATOM     34  O   UNL     1       6.652   4.971  14.912  0.00  0.00    +0.000 OA
ENDBRANCH  27  34
BRANCH  32  35
ATOM     35  O   UNL     1       7.245   7.170  16.813  0.00  0.00    +0.000 OA
ATOM     36  H   UNL     1       7.918   6.762  16.242  0.00  0.00    +0.000 HD
ENDBRANCH  32  35
ENDBRANCH  26  30
ENDBRANCH  21  26
ENDBRANCH  20  23
ENDBRANCH   1  20
TORSDOF 8
ENDMDL
MODEL 9
REMARK VINA RESULT:      -7.3      5.748      9.667
REMARK  Name = 
REMARK  9 active torsions:
REMARK  status: ('A' for Active; 'I' for Inactive)
REMARK    1  A    between atoms: C_1  and  O_2
REMARK    2  A    between atoms: O_2  and  C_3
REMARK    3  A    between atoms: C_6  and  C_7
REMARK    4  A    between atoms: C_7  and  N_8
REMARK    5  A    between atoms: C_10  and  C_11
REMARK    6  A    between atoms: C_11  and  N_12
REMARK    7  A    between atoms: C_13  and  C_15
REMARK    8  A    between atoms: C_20  and  C_21
REMARK    9  A    between atoms: C_33  and  O_34
REMARK                            x       y       z     vdW  Elec       q    Type
REMARK                         _______ _______ _______ _____ _____    ______ ____
ROOT
ATOM      1  N   UNL     1       1.373  12.176  18.982  0.00  0.00    +0.000 N 
ATOM      2  C   UNL     1       0.367  11.265  19.155  0.00  0.00    +0.000 C 
ATOM      3  O   UNL     1      -0.802  11.513  18.875  0.00  0.00    +0.000 OA
ATOM      4  H   UNL     1       2.312  11.990  19.305  0.00  0.00    +0.000 HD
ENDROOT
BRANCH   2   5
ATOM      5  C   UNL     1       0.729   9.966  19.769  0.00  0.00    +0.000 A 
ATOM      6  C   UNL     1       0.192   9.684  20.977  0.00  0.00    +0.000 A 
ATOM      7  S   UNL     1       0.697   8.130  21.635  0.00  0.00    +0.000 S 
ATOM      8  C   UNL     1       1.636   7.884  20.203  0.00  0.00    +0.000 A 
ATOM      9  N   UNL     1       2.372   6.901  19.780  0.00  0.00    +0.000 NA
ATOM     10  C   UNL     1       2.740   7.288  18.506  0.00  0.00    +0.000 A 
ATOM     11  C   UNL     1       2.249   8.560  18.212  0.00  0.00    +0.000 A 
ATOM     12  N   UNL     1       1.531   8.929  19.323  0.00  0.00    +0.000 N 
BRANCH  10  13
ATOM     13  C   UNL     1       3.452   6.364  17.630  0.00  0.00    +0.000 A 
ATOM     14  C   UNL     1       3.242   4.981  17.669  0.00  0.00    +0.000 A 
ATOM     15  C   UNL     1       4.079   4.115  16.950  0.00  0.00    +0.000 A 
ATOM     16  C   UNL     1       5.120   4.626  16.179  0.00  0.00    +0.000 A 
ATOM     17 CL   UNL     1       6.194   3.554  15.368  0.00  0.00    +0.000 Cl
ATOM     18  C   UNL     1       5.315   5.999  16.086  0.00  0.00    +0.000 A 
ATOM     19  C   UNL     1       4.481   6.862  16.809  0.00  0.00    +0.000 A 
ENDBRANCH  10  13
ENDBRANCH   2   5
BRANCH   1  20
ATOM     20  C   UNL     1       1.112  13.510  18.470  0.00  0.00    +0.000 C 
BRANCH  20  23
ATOM     21  N   UNL     1       4.022  15.643  18.926  0.00  0.00    +0.000 N 
ATOM     22  C   UNL     1       3.402  14.707  18.144  0.00  0.00    +0.000 A 
ATOM     23  C   UNL     1       2.246  14.403  18.832  0.00  0.00    +0.000 A 
ATOM     24  N   UNL     1       2.229  15.113  20.006  0.00  0.00    +0.000 NA
ATOM     25  N   UNL     1       3.318  15.868  20.053  0.00  0.00    +0.000 NA
BRANCH  21  26
ATOM     26  C   UNL     1       5.118  16.526  18.562  0.00  0.00    +0.000 C 
BRANCH  26  30
ATOM     27  C   UNL     1       8.955  14.556  19.060  0.00  0.00    +0.000 A 
ATOM     28  C   UNL     1       8.552  15.585  19.918  0.00  0.00    +0.000 A 
ATOM     29  C   UNL     1       7.331  16.243  19.743  0.00  0.00    +0.000 A 
ATOM     30  C   UNL     1       6.481  15.892  18.687  0.00  0.00    +0.000 A 
ATOM     31  C   UNL     1       6.887  14.868  17.817  0.00  0.00    +0.000 A 
ATOM     32  C   UNL     1       8.109  14.205  18.004  0.00  0.00    +0.000 A 
BRANCH  27  34
ATOM     33  C   UNL     1      11.329  14.516  18.760  0.00  0.00    +0.000 C 
ATOM     34  O   UNL     1      10.164  14.018  19.403  0.00  0.00    +0.000 OA
ENDBRANCH  27  34
BRANCH  32  35
ATOM     35  O   UNL     1       8.434  13.200  17.136  0.00  0.00    +0.000 OA
ATOM     36  H   UNL     1       7.781  13.176  16.417  0.00  0.00    +0.000 HD
ENDBRANCH  32  35
ENDBRANCH  26  30
ENDBRANCH  21  26
ENDBRANCH  20  23
ENDBRANCH   1  20
TORSDOF 8
ENDMDL
