MODEL 1
REMARK VINA RESULT:      -7.8      0.000      0.000
REMARK  Name = 
REMARK  9 active torsions:
REMARK  status: ('A' for Active; 'I' for Inactive)
REMARK    1  A    between atoms: C_2  and  O_3
REMARK    2  A    between atoms: C_2  and  C_4
REMARK    3  A    between atoms: C_4  and  C_5
REMARK    4  A    between atoms: C_5  and  C_6
REMARK    5  A    between atoms: C_6  and  N_7
REMARK    6  A    between atoms: C_6  and  C_19
REMARK    7  A    between atoms: C_8  and  C_10
REMARK    8  A    between atoms: C_14  and  N_15
REMARK    9  A    between atoms: N_21  and  N_22
REMARK                            x       y       z     vdW  Elec       q    Type
REMARK                         _______ _______ _______ _____ _____    ______ ____
ROOT
ATOM      1  C   UNL     1       3.401   5.064  19.563  0.00  0.00    +0.000 C 
ENDROOT
BRANCH   1   2
ATOM      2  N   UNL     1       2.792   6.340  19.929  0.00  0.00    +0.000 N 
ATOM      3  C   UNL     1       2.261   7.190  18.986  0.00  0.00    +0.000 C 
ATOM      4  O   UNL     1       2.238   6.940  17.786  0.00  0.00    +0.000 OA
ATOM      5  H   UNL     1       2.723   6.538  20.922  0.00  0.00    +0.000 HD
BRANCH   3   6
ATOM      6  C   UNL     1       1.595   8.409  19.505  0.00  0.00    +0.000 A 
ATOM      7  C   UNL     1       1.400   9.539  18.702  0.00  0.00    +0.000 A 
ATOM      8  C   UNL     1       0.857  10.701  19.257  0.00  0.00    +0.000 A 
ATOM      9  C   UNL     1       0.511  10.739  20.609  0.00  0.00    +0.000 A 
ATOM     10  C   UNL     1       0.683   9.594  21.401  0.00  0.00    +0.000 A 
ATOM     11  C   UNL     1       1.200   8.418  20.849  0.00  0.00    +0.000 A 
BRANCH  10  12
ATOM     12  N   UNL     1       0.348   9.639  22.830  0.00  0.00    +0.000 N 
ATOM     13  O   UNL     1      -0.839   9.826  23.138  0.00  0.00    +0.000 OA
ATOM     14  O   UNL     1       1.274   9.502  23.642  0.00  0.00    +0.000 OA
ENDBRANCH  10  12
ENDBRANCH   3   6
ENDBRANCH   1   2
BRANCH   1  15
ATOM     15  C   UNL     1       4.847   5.330  19.083  0.00  0.00    +0.000 C 
ATOM     16  O   UNL     1       5.789   5.385  19.873  0.00  0.00    +0.000 OA
ATOM     17  N   UNL     1       4.936   5.448  17.699  0.00  0.00    +0.000 N 
ATOM     18  H   UNL     1       4.097   5.384  17.131  0.00  0.00    +0.000 HD
BRANCH  17  19
ATOM     19  N   UNL     1       6.181   5.646  17.060  0.00  0.00    +0.000 NA
ATOM     20  C   UNL     1       6.823   4.368  16.717  0.00  0.00    +0.000 C 
ATOM     21  C   UNL     1       6.104   3.615  15.587  0.00  0.00    +0.000 C 
ATOM     22  C   UNL     1       5.872   4.477  14.323  0.00  0.00    +0.000 C 
ATOM     23  C   UNL     1       4.935   3.729  13.338  0.00  0.00    +0.000 C 
ATOM     24  C   UNL     1       5.694   3.612  12.022  0.00  0.00    +0.000 C 
ATOM     25  C   UNL     1       7.153   3.630  12.430  0.00  0.00    +0.000 C 
ATOM     26  C   UNL     1       7.185   4.683  13.527  0.00  0.00    +0.000 C 
ATOM     27  C   UNL     1       5.265   5.832  14.742  0.00  0.00    +0.000 C 
ATOM     28  C   UNL     1       6.064   6.500  15.867  0.00  0.00    +0.000 C 
ENDBRANCH  17  19
ENDBRANCH   1  15
BRANCH   1  29
ATOM     29  C   UNL     1       3.434   4.079  20.744  0.00  0.00    +0.000 C 
BRANCH  29  30
ATOM     30  C   UNL     1       2.699   2.761  20.481  0.00  0.00    +0.000 C 
BRANCH  30  32
ATOM     31  O   UNL     1       1.187   2.433  22.352  0.00  0.00    +0.000 OA
ATOM     32  C   UNL     1       1.360   2.720  21.179  0.00  0.00    +0.000 C 
BRANCH  32  33
ATOM     33  O   UNL     1       0.336   3.045  20.356  0.00  0.00    +0.000 OA
ATOM     34  H   UNL     1       0.478   3.868  19.850  0.00  0.00    +0.000 HD
ENDBRANCH  32  33
ENDBRANCH  30  32
ENDBRANCH  29  30
ENDBRANCH   1  29
TORSDOF 9
ENDMDL
MODEL 2
REMARK VINA RESULT:      -7.6      1.863      2.222
REMARK  Name = 
REMARK  9 active torsions:
REMARK  status: ('A' for Active; 'I' for Inactive)
REMARK    1  A    between atoms: C_2  and  O_3
REMARK    2  A    between atoms: C_2  and  C_4
REMARK    3  A    between atoms: C_4  and  C_5
REMARK    4  A    between atoms: C_5  and  C_6
REMARK    5  A    between atoms: C_6  and  N_7
REMARK    6  A    between atoms: C_6  and  C_19
REMARK    7  A    between atoms: C_8  and  C_10
REMARK    8  A    between atoms: C_14  and  N_15
REMARK    9  A    between atoms: N_21  and  N_22
REMARK                            x       y       z     vdW  Elec       q    Type
REMARK                         _______ _______ _______ _____ _____    ______ ____
ROOT
ATOM      1  C   UNL     1       2.793   5.112  19.366  0.00  0.00    +0.000 C 
ENDROOT
BRANCH   1   2
ATOM      2  N   UNL     1       2.256   6.238  20.126  0.00  0.00    +0.000 N 
ATOM      3  C   UNL     1       2.036   7.467  19.549  0.00  0.00    +0.000 C 
ATOM      4  O   UNL     1       2.249   7.707  18.365  0.00  0.00    +0.000 OA
ATOM      5  H   UNL     1       1.994   6.047  21.088  0.00  0.00    +0.000 HD
BRANCH   3   6
ATOM      6  C   UNL     1       1.405   8.493  20.414  0.00  0.00    +0.000 A 
ATOM      7  C   UNL     1       1.396   8.375  21.809  0.00  0.00    +0.000 A 
ATOM      8  C   UNL     1       0.707   9.313  22.582  0.00  0.00    +0.000 A 
ATOM      9  C   UNL     1       0.025  10.366  21.967  0.00  0.00    +0.000 A 
ATOM     10  C   UNL     1       0.061  10.493  20.571  0.00  0.00    +0.000 A 
ATOM     11  C   UNL     1       0.771   9.575  19.791  0.00  0.00    +0.000 A 
BRANCH  10  12
ATOM     12  N   UNL     1      -0.679  11.580  19.919  0.00  0.00    +0.000 N 
ATOM     13  O   UNL     1      -0.200  12.061  18.879  0.00  0.00    +0.000 OA
ATOM     14  O   UNL     1      -1.729  11.963  20.453  0.00  0.00    +0.000 OA
ENDBRANCH  10  12
ENDBRANCH   3   6
ENDBRANCH   1   2
BRANCH   1  15
ATOM     15  C   UNL     1       4.276   5.403  19.038  0.00  0.00    +0.000 C 
ATOM     16  O   UNL     1       5.126   5.494  19.923  0.00  0.00    +0.000 OA
ATOM     17  N   UNL     1       4.510   5.499  17.670  0.00  0.00    +0.000 N 
ATOM     18  H   UNL     1       3.739   5.405  17.016  0.00  0.00    +0.000 HD
BRANCH  17  19
ATOM     19  N   UNL     1       5.813   5.715  17.163  0.00  0.00    +0.000 NA
ATOM     20  C   UNL     1       6.503   4.446  16.888  0.00  0.00    +0.000 C 
ATOM     21  C   UNL     1       5.916   3.687  15.688  0.00  0.00    +0.000 C 
ATOM     22  C   UNL     1       5.805   4.549  14.408  0.00  0.00    +0.000 C 
ATOM     23  C   UNL     1       4.985   3.792  13.330  0.00  0.00    +0.000 C 
ATOM     24  C   UNL     1       5.878   3.688  12.099  0.00  0.00    +0.000 C 
ATOM     25  C   UNL     1       7.287   3.724  12.658  0.00  0.00    +0.000 C 
ATOM     26  C   UNL     1       7.190   4.774  13.753  0.00  0.00    +0.000 C 
ATOM     27  C   UNL     1       5.140   5.895  14.763  0.00  0.00    +0.000 C 
ATOM     28  C   UNL     1       5.809   6.571  15.966  0.00  0.00    +0.000 C 
ENDBRANCH  17  19
ENDBRANCH   1  15
BRANCH   1  29
ATOM     29  C   UNL     1       2.698   3.790  20.146  0.00  0.00    +0.000 C 
BRANCH  29  30
ATOM     30  C   UNL     1       2.780   2.537  19.267  0.00  0.00    +0.000 C 
BRANCH  30  32
ATOM     31  O   UNL     1       4.945   2.104  20.275  0.00  0.00    +0.000 OA
ATOM     32  C   UNL     1       4.086   1.805  19.461  0.00  0.00    +0.000 C 
BRANCH  32  33
ATOM     33  O   UNL     1       4.220   0.750  18.623  0.00  0.00    +0.000 OA
ATOM     34  H   UNL     1       4.631  -0.034  19.034  0.00  0.00    +0.000 HD
ENDBRANCH  32  33
ENDBRANCH  30  32
ENDBRANCH  29  30
ENDBRANCH   1  29
TORSDOF 9
ENDMDL
MODEL 3
REMARK VINA RESULT:      -7.6      1.521      1.825
REMARK  Name = 
REMARK  9 active torsions:
REMARK  status: ('A' for Active; 'I' for Inactive)
REMARK    1  A    between atoms: C_2  and  O_3
REMARK    2  A    between atoms: C_2  and  C_4
REMARK    3  A    between atoms: C_4  and  C_5
REMARK    4  A    between atoms: C_5  and  C_6
REMARK    5  A    between atoms: C_6  and  N_7
REMARK    6  A    between atoms: C_6  and  C_19
REMARK    7  A    between atoms: C_8  and  C_10
REMARK    8  A    between atoms: C_14  and  N_15
REMARK    9  A    between atoms: N_21  and  N_22
REMARK                            x       y       z     vdW  Elec       q    Type
REMARK                         _______ _______ _______ _____ _____    ______ ____
ROOT
ATOM      1  C   UNL     1       3.255   4.999  19.411  0.00  0.00    +0.000 C 
ENDROOT
BRANCH   1   2
ATOM      2  N   UNL     1       2.679   6.171  20.065  0.00  0.00    +0.000 N 
ATOM      3  C   UNL     1       2.247   7.264  19.351  0.00  0.00    +0.000 C 
ATOM      4  O   UNL     1       2.290   7.334  18.127  0.00  0.00    +0.000 OA
ATOM      5  H   UNL     1       2.555   6.109  21.071  0.00  0.00    +0.000 HD
BRANCH   3   6
ATOM      6  C   UNL     1       1.602   8.345  20.135  0.00  0.00    +0.000 A 
ATOM      7  C   UNL     1       1.528   8.297  21.532  0.00  0.00    +0.000 A 
ATOM      8  C   UNL     1       0.826   9.287  22.226  0.00  0.00    +0.000 A 
ATOM      9  C   UNL     1       0.197  10.321  21.530  0.00  0.00    +0.000 A 
ATOM     10  C   UNL     1       0.299  10.378  20.132  0.00  0.00    +0.000 A 
ATOM     11  C   UNL     1       1.021   9.408  19.431  0.00  0.00    +0.000 A 
BRANCH  10  12
ATOM     12  N   UNL     1      -0.386  11.447  19.394  0.00  0.00    +0.000 N 
ATOM     13  O   UNL     1       0.287  12.432  19.050  0.00  0.00    +0.000 OA
ATOM     14  O   UNL     1      -1.597  11.308  19.173  0.00  0.00    +0.000 OA
ENDBRANCH  10  12
ENDBRANCH   3   6
ENDBRANCH   1   2
BRANCH   1  15
ATOM     15  C   UNL     1       4.696   5.343  18.967  0.00  0.00    +0.000 C 
ATOM     16  O   UNL     1       5.607   5.480  19.783  0.00  0.00    +0.000 OA
ATOM     17  N   UNL     1       4.821   5.429  17.583  0.00  0.00    +0.000 N 
ATOM     18  H   UNL     1       4.007   5.295  16.993  0.00  0.00    +0.000 HD
BRANCH  17  19
ATOM     19  N   UNL     1       6.071   5.688  16.976  0.00  0.00    +0.000 NA
ATOM     20  C   UNL     1       6.791   4.444  16.667  0.00  0.00    +0.000 C 
ATOM     21  C   UNL     1       6.147   3.640  15.527  0.00  0.00    +0.000 C 
ATOM     22  C   UNL     1       5.904   4.475  14.247  0.00  0.00    +0.000 C 
ATOM     23  C   UNL     1       5.037   3.666  13.245  0.00  0.00    +0.000 C 
ATOM     24  C   UNL     1       5.838   3.577  11.952  0.00  0.00    +0.000 C 
ATOM     25  C   UNL     1       7.282   3.680  12.400  0.00  0.00    +0.000 C 
ATOM     26  C   UNL     1       7.225   4.744  13.485  0.00  0.00    +0.000 C 
ATOM     27  C   UNL     1       5.212   5.799  14.632  0.00  0.00    +0.000 C 
ATOM     28  C   UNL     1       5.941   6.522  15.770  0.00  0.00    +0.000 C 
ENDBRANCH  17  19
ENDBRANCH   1  15
BRANCH   1  29
ATOM     29  C   UNL     1       3.292   3.776  20.343  0.00  0.00    +0.000 C 
BRANCH  29  30
ATOM     30  C   UNL     1       2.398   3.904  21.581  0.00  0.00    +0.000 C 
BRANCH  30  32
ATOM     31  O   UNL     1       1.086   2.072  22.487  0.00  0.00    +0.000 OA
ATOM     32  C   UNL     1       1.300   2.865  21.585  0.00  0.00    +0.000 C 
BRANCH  32  33
ATOM     33  O   UNL     1       0.551   2.898  20.458  0.00  0.00    +0.000 OA
ATOM     34  H   UNL     1       1.046   2.683  19.645  0.00  0.00    +0.000 HD
ENDBRANCH  32  33
ENDBRANCH  30  32
ENDBRANCH  29  30
ENDBRANCH   1  29
TORSDOF 9
ENDMDL
MODEL 4
REMARK VINA RESULT:      -7.6      1.188      1.474
REMARK  Name = 
REMARK  9 active torsions:
REMARK  status: ('A' for Active; 'I' for Inactive)
REMARK    1  A    between atoms: C_2  and  O_3
REMARK    2  A    between atoms: C_2  and  C_4
REMARK    3  A    between atoms: C_4  and  C_5
REMARK    4  A    between atoms: C_5  and  C_6
REMARK    5  A    between atoms: C_6  and  N_7
REMARK    6  A    between atoms: C_6  and  C_19
REMARK    7  A    between atoms: C_8  and  C_10
REMARK    8  A    between atoms: C_14  and  N_15
REMARK    9  A    between atoms: N_21  and  N_22
REMARK                            x       y       z     vdW  Elec       q    Type
REMARK                         _______ _______ _______ _____ _____    ______ ____
ROOT
ATOM      1  C   UNL     1       3.478   4.987  19.534  0.00  0.00    +0.000 C 
ENDROOT
BRANCH   1   2
ATOM      2  N   UNL     1       2.851   6.246  19.929  0.00  0.00    +0.000 N 
ATOM      3  C   UNL     1       2.332   7.122  19.006  0.00  0.00    +0.000 C 
ATOM      4  O   UNL     1       2.333   6.913  17.797  0.00  0.00    +0.000 OA
ATOM      5  H   UNL     1       2.763   6.410  20.927  0.00  0.00    +0.000 HD
BRANCH   3   6
ATOM      6  C   UNL     1       1.647   8.319  19.552  0.00  0.00    +0.000 A 
ATOM      7  C   UNL     1       1.558   9.512  18.825  0.00  0.00    +0.000 A 
ATOM      8  C   UNL     1       0.991  10.645  19.414  0.00  0.00    +0.000 A 
ATOM      9  C   UNL     1       0.514  10.591  20.725  0.00  0.00    +0.000 A 
ATOM     10  C   UNL     1       0.580   9.385  21.438  0.00  0.00    +0.000 A 
ATOM     11  C   UNL     1       1.122   8.239  20.848  0.00  0.00    +0.000 A 
BRANCH  10  12
ATOM     12  N   UNL     1       0.108   9.332  22.827  0.00  0.00    +0.000 N 
ATOM     13  O   UNL     1       0.859   9.779  23.708  0.00  0.00    +0.000 OA
ATOM     14  O   UNL     1      -1.005   8.829  23.037  0.00  0.00    +0.000 OA
ENDBRANCH  10  12
ENDBRANCH   3   6
ENDBRANCH   1   2
BRANCH   1  15
ATOM     15  C   UNL     1       4.914   5.286  19.044  0.00  0.00    +0.000 C 
ATOM     16  O   UNL     1       5.866   5.321  19.822  0.00  0.00    +0.000 OA
ATOM     17  N   UNL     1       4.982   5.456  17.664  0.00  0.00    +0.000 N 
ATOM     18  H   UNL     1       4.137   5.405  17.106  0.00  0.00    +0.000 HD
BRANCH  17  19
ATOM     19  N   UNL     1       6.217   5.691  17.016  0.00  0.00    +0.000 NA
ATOM     20  C   UNL     1       6.898   4.432  16.678  0.00  0.00    +0.000 C 
ATOM     21  C   UNL     1       6.197   3.649  15.556  0.00  0.00    +0.000 C 
ATOM     22  C   UNL     1       5.929   4.495  14.289  0.00  0.00    +0.000 C 
ATOM     23  C   UNL     1       5.011   3.710  13.314  0.00  0.00    +0.000 C 
ATOM     24  C   UNL     1       5.765   3.609  11.994  0.00  0.00    +0.000 C 
ATOM     25  C   UNL     1       7.226   3.678  12.393  0.00  0.00    +0.000 C 
ATOM     26  C   UNL     1       7.230   4.738  13.483  0.00  0.00    +0.000 C 
ATOM     27  C   UNL     1       5.281   5.832  14.703  0.00  0.00    +0.000 C 
ATOM     28  C   UNL     1       6.064   6.533  15.819  0.00  0.00    +0.000 C 
ENDBRANCH  17  19
ENDBRANCH   1  15
BRANCH   1  29
ATOM     29  C   UNL     1       3.539   3.981  20.695  0.00  0.00    +0.000 C 
BRANCH  29  30
ATOM     30  C   UNL     1       2.956   2.603  20.361  0.00  0.00    +0.000 C 
BRANCH  30  32
ATOM     31  O   UNL     1       3.446   1.498  18.256  0.00  0.00    +0.000 OA
ATOM     32  C   UNL     1       3.813   1.863  19.361  0.00  0.00    +0.000 C 
BRANCH  32  33
ATOM     33  O   UNL     1       5.067   1.638  19.817  0.00  0.00    +0.000 OA
ATOM     34  H   UNL     1       5.455   0.795  19.514  0.00  0.00    +0.000 HD
ENDBRANCH  32  33
ENDBRANCH  30  32
ENDBRANCH  29  30
ENDBRANCH   1  29
TORSDOF 9
ENDMDL
MODEL 5
REMARK VINA RESULT:      -7.4      4.650      8.000
REMARK  Name = 
REMARK  9 active torsions:
REMARK  status: ('A' for Active; 'I' for Inactive)
REMARK    1  A    between atoms: C_2  and  O_3
REMARK    2  A    between atoms: C_2  and  C_4
REMARK    3  A    between atoms: C_4  and  C_5
REMARK    4  A    between atoms: C_5  and  C_6
REMARK    5  A    between atoms: C_6  and  N_7
REMARK    6  A    between atoms: C_6  and  C_19
REMARK    7  A    between atoms: C_8  and  C_10
REMARK    8  A    between atoms: C_14  and  N_15
REMARK    9  A    between atoms: N_21  and  N_22
REMARK                            x       y       z     vdW  Elec       q    Type
REMARK                         _______ _______ _______ _____ _____    ______ ____
ROOT
ATOM      1  C   UNL     1       6.942   6.890  17.326  0.00  0.00    +0.000 C 
ENDROOT
BRANCH   1   2
ATOM      2  N   UNL     1       7.354   8.289  17.410  0.00  0.00    +0.000 N 
ATOM      3  C   UNL     1       8.284   8.720  18.326  0.00  0.00    +0.000 C 
ATOM      4  O   UNL     1       8.848   7.976  19.121  0.00  0.00    +0.000 OA
ATOM      5  H   UNL     1       6.965   8.914  16.711  0.00  0.00    +0.000 HD
BRANCH   3   6
ATOM      6  C   UNL     1       8.674  10.148  18.240  0.00  0.00    +0.000 A 
ATOM      7  C   UNL     1       7.905  11.080  17.533  0.00  0.00    +0.000 A 
ATOM      8  C   UNL     1       8.359  12.394  17.394  0.00  0.00    +0.000 A 
ATOM      9  C   UNL     1       9.578  12.780  17.957  0.00  0.00    +0.000 A 
ATOM     10  C   UNL     1      10.329  11.849  18.688  0.00  0.00    +0.000 A 
ATOM     11  C   UNL     1       9.871  10.538  18.855  0.00  0.00    +0.000 A 
BRANCH  10  12
ATOM     12  N   UNL     1      11.625  12.241  19.255  0.00  0.00    +0.000 N 
ATOM     13  O   UNL     1      12.218  11.414  19.966  0.00  0.00    +0.000 OA
ATOM     14  O   UNL     1      12.042  13.380  19.003  0.00  0.00    +0.000 OA
ENDBRANCH  10  12
ENDBRANCH   3   6
ENDBRANCH   1   2
BRANCH   1  15
ATOM     15  C   UNL     1       5.439   6.842  16.964  0.00  0.00    +0.000 C 
ATOM     16  O   UNL     1       5.034   7.165  15.848  0.00  0.00    +0.000 OA
ATOM     17  N   UNL     1       4.653   6.365  18.009  0.00  0.00    +0.000 N 
ATOM     18  H   UNL     1       5.083   6.121  18.895  0.00  0.00    +0.000 HD
BRANCH  17  19
ATOM     19  N   UNL     1       3.256   6.202  17.859  0.00  0.00    +0.000 NA
ATOM     20  C   UNL     1       2.909   4.818  17.503  0.00  0.00    +0.000 C 
ATOM     21  C   UNL     1       3.132   3.824  18.654  0.00  0.00    +0.000 C 
ATOM     22  C   UNL     1       2.447   4.248  19.975  0.00  0.00    +0.000 C 
ATOM     23  C   UNL     1       2.921   3.332  21.135  0.00  0.00    +0.000 C 
ATOM     24  C   UNL     1       1.667   2.707  21.734  0.00  0.00    +0.000 C 
ATOM     25  C   UNL     1       0.674   2.692  20.589  0.00  0.00    +0.000 C 
ATOM     26  C   UNL     1       0.914   4.033  19.915  0.00  0.00    +0.000 C 
ATOM     27  C   UNL     1       2.783   5.726  20.267  0.00  0.00    +0.000 C 
ATOM     28  C   UNL     1       2.515   6.628  19.057  0.00  0.00    +0.000 C 
ENDBRANCH  17  19
ENDBRANCH   1  15
BRANCH   1  29
ATOM     29  C   UNL     1       7.742   6.112  16.268  0.00  0.00    +0.000 C 
BRANCH  29  30
ATOM     30  C   UNL     1       7.080   4.805  15.818  0.00  0.00    +0.000 C 
BRANCH  30  32
ATOM     31  O   UNL     1       7.592   5.452  13.534  0.00  0.00    +0.000 OA
ATOM     32  C   UNL     1       7.039   4.692  14.312  0.00  0.00    +0.000 C 
BRANCH  32  33
ATOM     33  O   UNL     1       6.310   3.632  13.892  0.00  0.00    +0.000 OA
ATOM     34  H   UNL     1       5.863   3.145  14.611  0.00  0.00    +0.000 HD
ENDBRANCH  32  33
ENDBRANCH  30  32
ENDBRANCH  29  30
ENDBRANCH   1  29
TORSDOF 9
ENDMDL
MODEL 6
REMARK VINA RESULT:      -7.2      3.715      6.226
REMARK  Name = 
REMARK  9 active torsions:
REMARK  status: ('A' for Active; 'I' for Inactive)
REMARK    1  A    between atoms: C_2  and  O_3
REMARK    2  A    between atoms: C_2  and  C_4
REMARK    3  A    between atoms: C_4  and  C_5
REMARK    4  A    between atoms: C_5  and  C_6
REMARK    5  A    between atoms: C_6  and  N_7
REMARK    6  A    between atoms: C_6  and  C_19
REMARK    7  A    between atoms: C_8  and  C_10
REMARK    8  A    between atoms: C_14  and  N_15
REMARK    9  A    between atoms: N_21  and  N_22
REMARK                            x       y       z     vdW  Elec       q    Type
REMARK                         _______ _______ _______ _____ _____    ______ ____
ROOT
ATOM      1  C   UNL     1       0.847   9.470  19.453  0.00  0.00    +0.000 C 
ENDROOT
BRANCH   1   2
ATOM      2  N   UNL     1       1.099  10.901  19.298  0.00  0.00    +0.000 N 
ATOM      3  C   UNL     1       0.079  11.804  19.113  0.00  0.00    +0.000 C 
ATOM      4  O   UNL     1      -1.106  11.491  19.085  0.00  0.00    +0.000 OA
ATOM      5  H   UNL     1       2.064  11.200  19.399  0.00  0.00    +0.000 HD
BRANCH   3   6
ATOM      6  C   UNL     1       0.472  13.233  19.060  0.00  0.00    +0.000 A 
ATOM      7  C   UNL     1      -0.449  14.259  19.305  0.00  0.00    +0.000 A 
ATOM      8  C   UNL     1      -0.062  15.592  19.149  0.00  0.00    +0.000 A 
ATOM      9  C   UNL     1       1.238  15.905  18.747  0.00  0.00    +0.000 A 
ATOM     10  C   UNL     1       2.163  14.873  18.530  0.00  0.00    +0.000 A 
ATOM     11  C   UNL     1       1.794  13.536  18.710  0.00  0.00    +0.000 A 
BRANCH  10  12
ATOM     12  N   UNL     1       3.523  15.195  18.078  0.00  0.00    +0.000 N 
ATOM     13  O   UNL     1       4.463  14.924  18.841  0.00  0.00    +0.000 OA
ATOM     14  O   UNL     1       3.648  15.732  16.969  0.00  0.00    +0.000 OA
ENDBRANCH  10  12
ENDBRANCH   3   6
ENDBRANCH   1   2
BRANCH   1  15
ATOM     15  C   UNL     1       1.868   8.695  18.587  0.00  0.00    +0.000 C 
ATOM     16  O   UNL     1       2.200   9.094  17.472  0.00  0.00    +0.000 OA
ATOM     17  N   UNL     1       2.366   7.567  19.231  0.00  0.00    +0.000 N 
ATOM     18  H   UNL     1       2.030   7.324  20.158  0.00  0.00    +0.000 HD
BRANCH  17  19
ATOM     19  N   UNL     1       3.347   6.750  18.624  0.00  0.00    +0.000 NA
ATOM     20  C   UNL     1       3.936   5.806  19.585  0.00  0.00    +0.000 C 
ATOM     21  C   UNL     1       2.960   4.702  20.022  0.00  0.00    +0.000 C 
ATOM     22  C   UNL     1       2.305   3.953  18.836  0.00  0.00    +0.000 C 
ATOM     23  C   UNL     1       1.165   3.037  19.354  0.00  0.00    +0.000 C 
ATOM     24  C   UNL     1       1.500   1.624  18.892  0.00  0.00    +0.000 C 
ATOM     25  C   UNL     1       3.011   1.621  18.768  0.00  0.00    +0.000 C 
ATOM     26  C   UNL     1       3.303   2.982  18.157  0.00  0.00    +0.000 C 
ATOM     27  C   UNL     1       1.767   4.986  17.823  0.00  0.00    +0.000 C 
ATOM     28  C   UNL     1       2.823   6.033  17.450  0.00  0.00    +0.000 C 
ENDBRANCH  17  19
ENDBRANCH   1  15
BRANCH   1  29
ATOM     29  C   UNL     1       0.976   9.015  20.916  0.00  0.00    +0.000 C 
BRANCH  29  30
ATOM     30  C   UNL     1      -0.321   9.128  21.725  0.00  0.00    +0.000 C 
BRANCH  30  32
ATOM     31  O   UNL     1      -0.655  11.150  23.026  0.00  0.00    +0.000 OA
ATOM     32  C   UNL     1      -0.157  10.041  22.917  0.00  0.00    +0.000 C 
BRANCH  32  33
ATOM     33  O   UNL     1       0.616   9.497  23.885  0.00  0.00    +0.000 OA
ATOM     34  H   UNL     1       1.317  10.091  24.215  0.00  0.00    +0.000 HD
ENDBRANCH  32  33
ENDBRANCH  30  32
ENDBRANCH  29  30
ENDBRANCH   1  29
TORSDOF 9
ENDMDL
MODEL 7
REMARK VINA RESULT:      -7.1      4.032     11.064
REMARK  Name = 
REMARK  9 active torsions:
REMARK  status: ('A' for Active; 'I' for Inactive)
REMARK    1  A    between atoms: C_2  and  O_3
REMARK    2  A    between atoms: C_2  and  C_4
REMARK    3  A    between atoms: C_4  and  C_5
REMARK    4  A    between atoms: C_5  and  C_6
REMARK    5  A    between atoms: C_6  and  N_7
REMARK    6  A    between atoms: C_6  and  C_19
REMARK    7  A    between atoms: C_8  and  C_10
REMARK    8  A    between atoms: C_14  and  N_15
REMARK    9  A    between atoms: N_21  and  N_22
REMARK                            x       y       z     vdW  Elec       q    Type
REMARK                         _______ _______ _______ _____ _____    ______ ____
ROOT
ATOM      1  C   UNL     1       0.680  10.961  20.056  0.00  0.00    +0.000 C 
ENDROOT
BRANCH   1   2
ATOM      2  N   UNL     1       1.449   9.734  19.859  0.00  0.00    +0.000 N 
ATOM      3  C   UNL     1       1.490   9.087  18.647  0.00  0.00    +0.000 C 
ATOM      4  O   UNL     1       0.911   9.491  17.643  0.00  0.00    +0.000 OA
ATOM      5  H   UNL     1       2.003   9.420  20.649  0.00  0.00    +0.000 HD
BRANCH   3   6
ATOM      6  C   UNL     1       2.380   7.904  18.565  0.00  0.00    +0.000 A 
ATOM      7  C   UNL     1       2.293   6.853  19.486  0.00  0.00    +0.000 A 
ATOM      8  C   UNL     1       3.214   5.804  19.433  0.00  0.00    +0.000 A 
ATOM      9  C   UNL     1       4.222   5.801  18.466  0.00  0.00    +0.000 A 
ATOM     10  C   UNL     1       4.286   6.843  17.529  0.00  0.00    +0.000 A 
ATOM     11  C   UNL     1       3.352   7.884  17.557  0.00  0.00    +0.000 A 
BRANCH  10  12
ATOM     12  N   UNL     1       5.361   6.860  16.530  0.00  0.00    +0.000 N 
ATOM     13  O   UNL     1       6.495   7.194  16.909  0.00  0.00    +0.000 OA
ATOM     14  O   UNL     1       5.069   6.556  15.365  0.00  0.00    +0.000 OA
ENDBRANCH  10  12
ENDBRANCH   3   6
ENDBRANCH   1   2
BRANCH   1  15
ATOM     15  C   UNL     1       0.224  11.022  21.533  0.00  0.00    +0.000 C 
ATOM     16  O   UNL     1       0.601  10.192  22.359  0.00  0.00    +0.000 OA
ATOM     17  N   UNL     1      -0.593  12.118  21.793  0.00  0.00    +0.000 N 
ATOM     18  H   UNL     1      -0.844  12.751  21.041  0.00  0.00    +0.000 HD
BRANCH  17  19
ATOM     19  N   UNL     1      -1.076  12.378  23.096  0.00  0.00    +0.000 NA
ATOM     20  C   UNL     1      -1.048  13.815  23.407  0.00  0.00    +0.000 C 
ATOM     21  C   UNL     1      -2.086  14.624  22.614  0.00  0.00    +0.000 C 
ATOM     22  C   UNL     1      -3.523  14.059  22.724  0.00  0.00    +0.000 C 
ATOM     23  C   UNL     1      -4.453  14.777  21.711  0.00  0.00    +0.000 C 
ATOM     24  C   UNL     1      -5.594  15.381  22.520  0.00  0.00    +0.000 C 
ATOM     25  C   UNL     1      -4.995  15.610  23.894  0.00  0.00    +0.000 C 
ATOM     26  C   UNL     1      -4.149  14.364  24.107  0.00  0.00    +0.000 C 
ATOM     27  C   UNL     1      -3.488  12.539  22.460  0.00  0.00    +0.000 C 
ATOM     28  C   UNL     1      -2.425  11.830  23.308  0.00  0.00    +0.000 C 
ENDBRANCH  17  19
ENDBRANCH   1  15
BRANCH   1  29
ATOM     29  C   UNL     1       1.503  12.218  19.728  0.00  0.00    +0.000 C 
BRANCH  29  30
ATOM     30  C   UNL     1       1.053  12.946  18.457  0.00  0.00    +0.000 C 
BRANCH  30  32
ATOM     31  O   UNL     1      -1.005  13.852  19.373  0.00  0.00    +0.000 OA
ATOM     32  C   UNL     1      -0.427  13.250  18.483  0.00  0.00    +0.000 C 
BRANCH  32  33
ATOM     33  O   UNL     1      -1.072  12.780  17.390  0.00  0.00    +0.000 OA
ATOM     34  H   UNL     1      -1.672  13.427  16.973  0.00  0.00    +0.000 HD
ENDBRANCH  32  33
ENDBRANCH  30  32
ENDBRANCH  29  30
ENDBRANCH   1  29
TORSDOF 9
ENDMDL
MODEL 8
REMARK VINA RESULT:      -7.1      3.826      9.492
REMARK  Name = 
REMARK  9 active torsions:
REMARK  status: ('A' for Active; 'I' for Inactive)
REMARK    1  A    between atoms: C_2  and  O_3
REMARK    2  A    between atoms: C_2  and  C_4
REMARK    3  A    between atoms: C_4  and  C_5
REMARK    4  A    between atoms: C_5  and  C_6
REMARK    5  A    between atoms: C_6  and  N_7
REMARK    6  A    between atoms: C_6  and  C_19
REMARK    7  A    between atoms: C_8  and  C_10
REMARK    8  A    between atoms: C_14  and  N_15
REMARK    9  A    between atoms: N_21  and  N_22
REMARK                            x       y       z     vdW  Elec       q    Type
REMARK                         _______ _______ _______ _____ _____    ______ ____
ROOT
ATOM      1  C   UNL     1       0.084   9.900  20.031  0.00  0.00    +0.000 C 
ENDROOT
BRANCH   1   2
ATOM      2  N   UNL     1       1.143   9.122  19.394  0.00  0.00    +0.000 N 
ATOM      3  C   UNL     1       1.662   7.988  19.972  0.00  0.00    +0.000 C 
ATOM      4  O   UNL     1       1.271   7.533  21.042  0.00  0.00    +0.000 OA
ATOM      5  H   UNL     1       1.431   9.428  18.469  0.00  0.00    +0.000 HD
BRANCH   3   6
ATOM      6  C   UNL     1       2.669   7.248  19.174  0.00  0.00    +0.000 A 
ATOM      7  C   UNL     1       3.142   7.737  17.950  0.00  0.00    +0.000 A 
ATOM      8  C   UNL     1       4.016   6.962  17.183  0.00  0.00    +0.000 A 
ATOM      9  C   UNL     1       4.417   5.702  17.632  0.00  0.00    +0.000 A 
ATOM     10  C   UNL     1       3.962   5.231  18.872  0.00  0.00    +0.000 A 
ATOM     11  C   UNL     1       3.109   6.010  19.660  0.00  0.00    +0.000 A 
BRANCH  10  12
ATOM     12  N   UNL     1       4.358   3.895  19.334  0.00  0.00    +0.000 N 
ATOM     13  O   UNL     1       3.473   3.163  19.807  0.00  0.00    +0.000 OA
ATOM     14  O   UNL     1       5.553   3.583  19.239  0.00  0.00    +0.000 OA
ENDBRANCH  10  12
ENDBRANCH   3   6
ENDBRANCH   1   2
BRANCH   1  15
ATOM     15  C   UNL     1       0.737  10.942  20.969  0.00  0.00    +0.000 C 
ATOM     16  O   UNL     1       0.932  10.704  22.160  0.00  0.00    +0.000 OA
ATOM     17  N   UNL     1       1.095  12.110  20.303  0.00  0.00    +0.000 N 
ATOM     18  H   UNL     1       0.893  12.210  19.313  0.00  0.00    +0.000 HD
BRANCH  17  19
ATOM     19  N   UNL     1       1.749  13.167  20.977  0.00  0.00    +0.000 NA
ATOM     20  C   UNL     1       2.642  13.912  20.076  0.00  0.00    +0.000 C 
ATOM     21  C   UNL     1       1.886  14.744  19.029  0.00  0.00    +0.000 C 
ATOM     22  C   UNL     1       0.810  15.673  19.640  0.00  0.00    +0.000 C 
ATOM     23  C   UNL     1      -0.063  16.285  18.512  0.00  0.00    +0.000 C 
ATOM     24  C   UNL     1       0.038  17.799  18.657  0.00  0.00    +0.000 C 
ATOM     25  C   UNL     1       1.385  18.020  19.318  0.00  0.00    +0.000 C 
ATOM     26  C   UNL     1       1.449  16.898  20.341  0.00  0.00    +0.000 C 
ATOM     27  C   UNL     1      -0.054  14.863  20.629  0.00  0.00    +0.000 C 
ATOM     28  C   UNL     1       0.799  14.080  21.633  0.00  0.00    +0.000 C 
ENDBRANCH  17  19
ENDBRANCH   1  15
BRANCH   1  29
ATOM     29  C   UNL     1      -0.799  10.628  19.004  0.00  0.00    +0.000 C 
BRANCH  29  30
ATOM     30  C   UNL     1      -0.942   9.891  17.668  0.00  0.00    +0.000 C 
BRANCH  30  32
ATOM     31  O   UNL     1      -2.508  10.842  16.073  0.00  0.00    +0.000 OA
ATOM     32  C   UNL     1      -2.297  10.130  17.042  0.00  0.00    +0.000 C 
BRANCH  32  33
ATOM     33  O   UNL     1      -3.286   9.458  17.675  0.00  0.00    +0.000 OA
ATOM     34  H   UNL     1      -3.739   8.797  17.117  0.00  0.00    +0.000 HD
ENDBRANCH  32  33
ENDBRANCH  30  32
ENDBRANCH  29  30
ENDBRANCH   1  29
TORSDOF 9
ENDMDL
MODEL 9
REMARK VINA RESULT:      -7.1      3.663      5.849
REMARK  Name = 
REMARK  9 active torsions:
REMARK  status: ('A' for Active; 'I' for Inactive)
REMARK    1  A    between atoms: C_2  and  O_3
REMARK    2  A    between atoms: C_2  and  C_4
REMARK    3  A    between atoms: C_4  and  C_5
REMARK    4  A    between atoms: C_5  and  C_6
REMARK    5  A    between atoms: C_6  and  N_7
REMARK    6  A    between atoms: C_6  and  C_19
REMARK    7  A    between atoms: C_8  and  C_10
REMARK    8  A    between atoms: C_14  and  N_15
REMARK    9  A    between atoms: N_21  and  N_22
REMARK                            x       y       z     vdW  Elec       q    Type
REMARK                         _______ _______ _______ _____ _____    ______ ____
ROOT
ATOM      1  C   UNL     1       0.826   9.366  19.685  0.00  0.00    +0.000 C 
ENDROOT
BRANCH   1   2
ATOM      2  N   UNL     1       1.171  10.783  19.764  0.00  0.00    +0.000 N 
ATOM      3  C   UNL     1       0.221  11.771  19.647  0.00  0.00    +0.000 C 
ATOM      4  O   UNL     1      -0.974  11.546  19.489  0.00  0.00    +0.000 OA
ATOM      5  H   UNL     1       2.140  10.999  19.975  0.00  0.00    +0.000 HD
BRANCH   3   6
ATOM      6  C   UNL     1       0.697  13.162  19.836  0.00  0.00    +0.000 A 
ATOM      7  C   UNL     1       0.101  14.240  19.170  0.00  0.00    +0.000 A 
ATOM      8  C   UNL     1       0.642  15.522  19.301  0.00  0.00    +0.000 A 
ATOM      9  C   UNL     1       1.776  15.731  20.089  0.00  0.00    +0.000 A 
ATOM     10  C   UNL     1       2.350  14.651  20.775  0.00  0.00    +0.000 A 
ATOM     11  C   UNL     1       1.801  13.369  20.673  0.00  0.00    +0.000 A 
BRANCH  10  12
ATOM     12  N   UNL     1       3.559  14.859  21.582  0.00  0.00    +0.000 N 
ATOM     13  O   UNL     1       3.429  14.903  22.815  0.00  0.00    +0.000 OA
ATOM     14  O   UNL     1       4.635  14.995  20.981  0.00  0.00    +0.000 OA
ENDBRANCH  10  12
ENDBRANCH   3   6
ENDBRANCH   1   2
BRANCH   1  15
ATOM     15  C   UNL     1       1.833   8.668  18.741  0.00  0.00    +0.000 C 
ATOM     16  O   UNL     1       2.128   9.146  17.647  0.00  0.00    +0.000 OA
ATOM     17  N   UNL     1       2.366   7.507  19.293  0.00  0.00    +0.000 N 
ATOM     18  H   UNL     1       2.059   7.196  20.210  0.00  0.00    +0.000 HD
BRANCH  17  19
ATOM     19  N   UNL     1       3.341   6.749  18.605  0.00  0.00    +0.000 NA
ATOM     20  C   UNL     1       4.029   5.809  19.503  0.00  0.00    +0.000 C 
ATOM     21  C   UNL     1       3.130   4.653  19.969  0.00  0.00    +0.000 C 
ATOM     22  C   UNL     1       2.436   3.905  18.806  0.00  0.00    +0.000 C 
ATOM     23  C   UNL     1       1.371   2.926  19.368  0.00  0.00    +0.000 C 
ATOM     24  C   UNL     1       1.736   1.541  18.849  0.00  0.00    +0.000 C 
ATOM     25  C   UNL     1       3.235   1.609  18.632  0.00  0.00    +0.000 C 
ATOM     26  C   UNL     1       3.430   2.996  18.042  0.00  0.00    +0.000 C 
ATOM     27  C   UNL     1       1.792   4.936  17.856  0.00  0.00    +0.000 C 
ATOM     28  C   UNL     1       2.777   6.038  17.447  0.00  0.00    +0.000 C 
ENDBRANCH  17  19
ENDBRANCH   1  15
BRANCH   1  29
ATOM     29  C   UNL     1       0.867   8.682  21.062  0.00  0.00    +0.000 C 
BRANCH  29  30
ATOM     30  C   UNL     1      -0.444   8.782  21.849  0.00  0.00    +0.000 C 
BRANCH  30  32
ATOM     31  O   UNL     1      -1.042  10.905  22.865  0.00  0.00    +0.000 OA
ATOM     32  C   UNL     1      -0.388   9.875  22.890  0.00  0.00    +0.000 C 
BRANCH  32  33
ATOM     33  O   UNL     1       0.484   9.597  23.888  0.00  0.00    +0.000 OA
ATOM     34  H   UNL     1       0.058   9.395  24.743  0.00  0.00    +0.000 HD
ENDBRANCH  32  33
ENDBRANCH  30  32
ENDBRANCH  29  30
ENDBRANCH   1  29
TORSDOF 9
ENDMDL
