MODEL 1
REMARK VINA RESULT:      -8.8      0.000      0.000
REMARK  Name = 
REMARK  2 active torsions:
REMARK  status: ('A' for Active; 'I' for Inactive)
REMARK    1  A    between atoms: C_8  and  N_9
REMARK    2  A    between atoms: C_13  and  C_14
REMARK                            x       y       z     vdW  Elec       q    Type
REMARK                         _______ _______ _______ _____ _____    ______ ____
ROOT
ATOM      1  O   UNL     1       1.471  11.929  21.113  0.00  0.00    +0.000 OA
ATOM      2  S   UNL     1       0.622  11.004  20.390  0.00  0.00    +0.000 S 
ATOM      3  O   UNL     1      -0.819  11.190  20.390  0.00  0.00    +0.000 OA
ATOM      4  C   UNL     1       1.146  10.983  18.745  0.00  0.00    +0.000 C 
ATOM      5  C   UNL     1       1.654   9.891  18.170  0.00  0.00    +0.000 C 
ATOM      6  C   UNL     1       1.817   8.629  18.877  0.00  0.00    +0.000 A 
ATOM      7  C   UNL     1       2.348   7.522  18.202  0.00  0.00    +0.000 A 
ATOM      8  C   UNL     1       2.450   6.280  18.850  0.00  0.00    +0.000 A 
ATOM      9  C   UNL     1       2.079   6.161  20.193  0.00  0.00    +0.000 A 
ATOM     10  C   UNL     1       1.570   7.270  20.867  0.00  0.00    +0.000 A 
ATOM     11  C   UNL     1       1.433   8.495  20.210  0.00  0.00    +0.000 A 
ATOM     12  O   UNL     1       0.919   9.511  20.963  0.00  0.00    +0.000 OA
ENDROOT
BRANCH   8  13
ATOM     13  N   UNL     1       2.914   5.155  18.120  0.00  0.00    +0.000 N 
ATOM     14  N   UNL     1       2.067   4.129  17.854  0.00  0.00    +0.000 NA
ATOM     15  N   UNL     1       2.650   3.326  16.981  0.00  0.00    +0.000 NA
ATOM     16  C   UNL     1       3.925   3.763  16.802  0.00  0.00    +0.000 A 
ATOM     17  C   UNL     1       4.171   4.886  17.574  0.00  0.00    +0.000 A 
BRANCH  17  18
ATOM     18  C   UNL     1       5.445   5.557  17.870  0.00  0.00    +0.000 A 
ATOM     19  C   UNL     1       5.875   6.641  17.093  0.00  0.00    +0.000 A 
ATOM     20  C   UNL     1       7.098   7.270  17.351  0.00  0.00    +0.000 A 
ATOM     21  C   UNL     1       7.901   6.838  18.404  0.00  0.00    +0.000 A 
ATOM     22  C   UNL     1       7.498   5.755  19.177  0.00  0.00    +0.000 A 
ATOM     23  C   UNL     1       6.299   5.102  18.889  0.00  0.00    +0.000 A 
ENDBRANCH  17  18
ENDBRANCH   8  13
TORSDOF 2
ENDMDL
MODEL 2
REMARK VINA RESULT:      -8.8      0.033      1.003
REMARK  Name = 
REMARK  2 active torsions:
REMARK  status: ('A' for Active; 'I' for Inactive)
REMARK    1  A    between atoms: C_8  and  N_9
REMARK    2  A    between atoms: C_13  and  C_14
REMARK                            x       y       z     vdW  Elec       q    Type
REMARK                         _______ _______ _______ _____ _____    ______ ____
ROOT
ATOM      1  O   UNL     1       1.501  11.922  21.082  0.00  0.00    +0.000 OA
ATOM      2  S   UNL     1       0.645  10.994  20.372  0.00  0.00    +0.000 S 
ATOM      3  O   UNL     1      -0.796  11.178  20.386  0.00  0.00    +0.000 OA
ATOM      4  C   UNL     1       1.152  10.967  18.721  0.00  0.00    +0.000 C 
ATOM      5  C   UNL     1       1.655   9.873  18.145  0.00  0.00    +0.000 C 
ATOM      6  C   UNL     1       1.826   8.614  18.855  0.00  0.00    +0.000 A 
ATOM      7  C   UNL     1       2.351   7.504  18.179  0.00  0.00    +0.000 A 
ATOM      8  C   UNL     1       2.461   6.266  18.831  0.00  0.00    +0.000 A 
ATOM      9  C   UNL     1       2.104   6.151  20.178  0.00  0.00    +0.000 A 
ATOM     10  C   UNL     1       1.602   7.263  20.854  0.00  0.00    +0.000 A 
ATOM     11  C   UNL     1       1.457   8.485  20.193  0.00  0.00    +0.000 A 
ATOM     12  O   UNL     1       0.950   9.503  20.948  0.00  0.00    +0.000 OA
ENDROOT
BRANCH   8  13
ATOM     13  N   UNL     1       2.919   5.138  18.101  0.00  0.00    +0.000 N 
ATOM     14  N   UNL     1       2.068   4.114  17.841  0.00  0.00    +0.000 NA
ATOM     15  N   UNL     1       2.644   3.308  16.966  0.00  0.00    +0.000 NA
ATOM     16  C   UNL     1       3.919   3.741  16.779  0.00  0.00    +0.000 A 
ATOM     17  C   UNL     1       4.172   4.865  17.548  0.00  0.00    +0.000 A 
BRANCH  17  18
ATOM     18  C   UNL     1       5.449   5.534  17.835  0.00  0.00    +0.000 A 
ATOM     19  C   UNL     1       6.248   5.112  18.908  0.00  0.00    +0.000 A 
ATOM     20  C   UNL     1       7.452   5.759  19.203  0.00  0.00    +0.000 A 
ATOM     21  C   UNL     1       7.888   6.824  18.420  0.00  0.00    +0.000 A 
ATOM     22  C   UNL     1       7.104   7.266  17.361  0.00  0.00    +0.000 A 
ATOM     23  C   UNL     1       5.881   6.648  17.096  0.00  0.00    +0.000 A 
ENDBRANCH  17  18
ENDBRANCH   8  13
TORSDOF 2
ENDMDL
MODEL 3
REMARK VINA RESULT:      -8.4      0.865      1.780
REMARK  Name = 
REMARK  2 active torsions:
REMARK  status: ('A' for Active; 'I' for Inactive)
REMARK    1  A    between atoms: C_8  and  N_9
REMARK    2  A    between atoms: C_13  and  C_14
REMARK                            x       y       z     vdW  Elec       q    Type
REMARK                         _______ _______ _______ _____ _____    ______ ____
ROOT
ATOM      1  O   UNL     1      -0.758  11.370  20.677  0.00  0.00    +0.000 OA
ATOM      2  S   UNL     1       0.639  11.009  20.813  0.00  0.00    +0.000 S 
ATOM      3  O   UNL     1       1.614  12.015  21.200  0.00  0.00    +0.000 OA
ATOM      4  C   UNL     1       0.740   9.717  21.953  0.00  0.00    +0.000 C 
ATOM      5  C   UNL     1       1.171   8.499  21.618  0.00  0.00    +0.000 C 
ATOM      6  C   UNL     1       1.584   8.152  20.266  0.00  0.00    +0.000 A 
ATOM      7  C   UNL     1       2.035   6.853  19.992  0.00  0.00    +0.000 A 
ATOM      8  C   UNL     1       2.499   6.521  18.710  0.00  0.00    +0.000 A 
ATOM      9  C   UNL     1       2.454   7.470  17.683  0.00  0.00    +0.000 A 
ATOM     10  C   UNL     1       1.985   8.755  17.954  0.00  0.00    +0.000 A 
ATOM     11  C   UNL     1       1.559   9.095  19.240  0.00  0.00    +0.000 A 
ATOM     12  O   UNL     1       1.126  10.381  19.394  0.00  0.00    +0.000 OA
ENDROOT
BRANCH   8  13
ATOM     13  N   UNL     1       3.027   5.224  18.479  0.00  0.00    +0.000 N 
ATOM     14  N   UNL     1       2.222   4.139  18.600  0.00  0.00    +0.000 NA
ATOM     15  N   UNL     1       2.864   3.090  18.117  0.00  0.00    +0.000 NA
ATOM     16  C   UNL     1       4.134   3.480  17.823  0.00  0.00    +0.000 A 
ATOM     17  C   UNL     1       4.313   4.822  18.115  0.00  0.00    +0.000 A 
BRANCH  17  18
ATOM     18  C   UNL     1       5.553   5.609  18.171  0.00  0.00    +0.000 A 
ATOM     19  C   UNL     1       5.788   6.633  17.242  0.00  0.00    +0.000 A 
ATOM     20  C   UNL     1       6.977   7.370  17.272  0.00  0.00    +0.000 A 
ATOM     21  C   UNL     1       7.941   7.109  18.242  0.00  0.00    +0.000 A 
ATOM     22  C   UNL     1       7.733   6.089  19.163  0.00  0.00    +0.000 A 
ATOM     23  C   UNL     1       6.566   5.325  19.103  0.00  0.00    +0.000 A 
ENDBRANCH  17  18
ENDBRANCH   8  13
TORSDOF 2
ENDMDL
MODEL 4
REMARK VINA RESULT:      -8.4      0.834      2.032
REMARK  Name = 
REMARK  2 active torsions:
REMARK  status: ('A' for Active; 'I' for Inactive)
REMARK    1  A    between atoms: C_8  and  N_9
REMARK    2  A    between atoms: C_13  and  C_14
REMARK                            x       y       z     vdW  Elec       q    Type
REMARK                         _______ _______ _______ _____ _____    ______ ____
ROOT
ATOM      1  O   UNL     1      -0.744  11.316  20.669  0.00  0.00    +0.000 OA
ATOM      2  S   UNL     1       0.654  10.962  20.793  0.00  0.00    +0.000 S 
ATOM      3  O   UNL     1       1.625  11.967  21.193  0.00  0.00    +0.000 OA
ATOM      4  C   UNL     1       0.769   9.651  21.911  0.00  0.00    +0.000 C 
ATOM      5  C   UNL     1       1.205   8.442  21.554  0.00  0.00    +0.000 C 
ATOM      6  C   UNL     1       1.614   8.120  20.195  0.00  0.00    +0.000 A 
ATOM      7  C   UNL     1       2.072   6.829  19.898  0.00  0.00    +0.000 A 
ATOM      8  C   UNL     1       2.533   6.521  18.608  0.00  0.00    +0.000 A 
ATOM      9  C   UNL     1       2.478   7.486  17.598  0.00  0.00    +0.000 A 
ATOM     10  C   UNL     1       2.002   8.764  17.892  0.00  0.00    +0.000 A 
ATOM     11  C   UNL     1       1.580   9.080  19.185  0.00  0.00    +0.000 A 
ATOM     12  O   UNL     1       1.140  10.360  19.362  0.00  0.00    +0.000 OA
ENDROOT
BRANCH   8  13
ATOM     13  N   UNL     1       3.068   5.232  18.353  0.00  0.00    +0.000 N 
ATOM     14  N   UNL     1       2.267   4.140  18.449  0.00  0.00    +0.000 NA
ATOM     15  N   UNL     1       2.916   3.104  17.948  0.00  0.00    +0.000 NA
ATOM     16  C   UNL     1       4.185   3.506  17.666  0.00  0.00    +0.000 A 
ATOM     17  C   UNL     1       4.357   4.842  17.987  0.00  0.00    +0.000 A 
BRANCH  17  18
ATOM     18  C   UNL     1       5.593   5.633  18.062  0.00  0.00    +0.000 A 
ATOM     19  C   UNL     1       6.560   5.351  19.038  0.00  0.00    +0.000 A 
ATOM     20  C   UNL     1       7.728   6.115  19.133  0.00  0.00    +0.000 A 
ATOM     21  C   UNL     1       7.959   7.160  18.243  0.00  0.00    +0.000 A 
ATOM     22  C   UNL     1       7.006   7.465  17.278  0.00  0.00    +0.000 A 
ATOM     23  C   UNL     1       5.821   6.729  17.213  0.00  0.00    +0.000 A 
ENDBRANCH  17  18
ENDBRANCH   8  13
TORSDOF 2
ENDMDL
MODEL 5
REMARK VINA RESULT:      -8.1      1.819      2.526
REMARK  Name = 
REMARK  2 active torsions:
REMARK  status: ('A' for Active; 'I' for Inactive)
REMARK    1  A    between atoms: C_8  and  N_9
REMARK    2  A    between atoms: C_13  and  C_14
REMARK                            x       y       z     vdW  Elec       q    Type
REMARK                         _______ _______ _______ _____ _____    ______ ____
ROOT
ATOM      1  O   UNL     1      -0.484  11.547  18.695  0.00  0.00    +0.000 OA
ATOM      2  S   UNL     1       0.817  11.226  19.245  0.00  0.00    +0.000 S 
ATOM      3  O   UNL     1       1.824  12.264  19.379  0.00  0.00    +0.000 OA
ATOM      4  C   UNL     1       0.572  10.531  20.806  0.00  0.00    +0.000 C 
ATOM      5  C   UNL     1       0.905   9.270  21.089  0.00  0.00    +0.000 C 
ATOM      6  C   UNL     1       1.496   8.371  20.108  0.00  0.00    +0.000 A 
ATOM      7  C   UNL     1       1.830   7.062  20.482  0.00  0.00    +0.000 A 
ATOM      8  C   UNL     1       2.461   6.204  19.568  0.00  0.00    +0.000 A 
ATOM      9  C   UNL     1       2.701   6.633  18.259  0.00  0.00    +0.000 A 
ATOM     10  C   UNL     1       2.348   7.929  17.884  0.00  0.00    +0.000 A 
ATOM     11  C   UNL     1       1.756   8.795  18.806  0.00  0.00    +0.000 A 
ATOM     12  O   UNL     1       1.458  10.041  18.334  0.00  0.00    +0.000 OA
ENDROOT
BRANCH   8  13
ATOM     13  N   UNL     1       2.862   4.912  19.995  0.00  0.00    +0.000 N 
ATOM     14  N   UNL     1       2.199   4.302  21.010  0.00  0.00    +0.000 NA
ATOM     15  N   UNL     1       2.596   3.043  21.067  0.00  0.00    +0.000 NA
ATOM     16  C   UNL     1       3.618   2.889  20.182  0.00  0.00    +0.000 A 
ATOM     17  C   UNL     1       3.882   4.080  19.529  0.00  0.00    +0.000 A 
BRANCH  17  18
ATOM     18  C   UNL     1       5.019   4.443  18.670  0.00  0.00    +0.000 A 
ATOM     19  C   UNL     1       6.064   5.233  19.168  0.00  0.00    +0.000 A 
ATOM     20  C   UNL     1       7.137   5.604  18.350  0.00  0.00    +0.000 A 
ATOM     21  C   UNL     1       7.193   5.173  17.027  0.00  0.00    +0.000 A 
ATOM     22  C   UNL     1       6.159   4.401  16.510  0.00  0.00    +0.000 A 
ATOM     23  C   UNL     1       5.068   4.070  17.316  0.00  0.00    +0.000 A 
ENDBRANCH  17  18
ENDBRANCH   8  13
TORSDOF 2
ENDMDL
MODEL 6
REMARK VINA RESULT:      -8.1      1.738      2.415
REMARK  Name = 
REMARK  2 active torsions:
REMARK  status: ('A' for Active; 'I' for Inactive)
REMARK    1  A    between atoms: C_8  and  N_9
REMARK    2  A    between atoms: C_13  and  C_14
REMARK                            x       y       z     vdW  Elec       q    Type
REMARK                         _______ _______ _______ _____ _____    ______ ____
ROOT
ATOM      1  O   UNL     1      -0.676  11.315  19.235  0.00  0.00    +0.000 OA
ATOM      2  S   UNL     1       0.652  11.012  19.728  0.00  0.00    +0.000 S 
ATOM      3  O   UNL     1       1.622  12.079  19.906  0.00  0.00    +0.000 OA
ATOM      4  C   UNL     1       0.479  10.206  21.246  0.00  0.00    +0.000 C 
ATOM      5  C   UNL     1       0.869   8.944  21.435  0.00  0.00    +0.000 C 
ATOM      6  C   UNL     1       1.467   8.137  20.381  0.00  0.00    +0.000 A 
ATOM      7  C   UNL     1       1.863   6.821  20.658  0.00  0.00    +0.000 A 
ATOM      8  C   UNL     1       2.501   6.051  19.673  0.00  0.00    +0.000 A 
ATOM      9  C   UNL     1       2.687   6.575  18.390  0.00  0.00    +0.000 A 
ATOM     10  C   UNL     1       2.273   7.878  18.111  0.00  0.00    +0.000 A 
ATOM     11  C   UNL     1       1.673   8.656  19.104  0.00  0.00    +0.000 A 
ATOM     12  O   UNL     1       1.313   9.917  18.724  0.00  0.00    +0.000 OA
ENDROOT
BRANCH   8  13
ATOM     13  N   UNL     1       2.965   4.752  20.002  0.00  0.00    +0.000 N 
ATOM     14  N   UNL     1       2.356   4.050  20.991  0.00  0.00    +0.000 NA
ATOM     15  N   UNL     1       2.803   2.807  20.954  0.00  0.00    +0.000 NA
ATOM     16  C   UNL     1       3.804   2.753  20.035  0.00  0.00    +0.000 A 
ATOM     17  C   UNL     1       4.003   3.995  19.456  0.00  0.00    +0.000 A 
BRANCH  17  18
ATOM     18  C   UNL     1       5.100   4.460  18.593  0.00  0.00    +0.000 A 
ATOM     19  C   UNL     1       5.146   4.091  17.241  0.00  0.00    +0.000 A 
ATOM     20  C   UNL     1       6.199   4.508  16.420  0.00  0.00    +0.000 A 
ATOM     21  C   UNL     1       7.212   5.316  16.930  0.00  0.00    +0.000 A 
ATOM     22  C   UNL     1       7.190   5.680  18.272  0.00  0.00    +0.000 A 
ATOM     23  C   UNL     1       6.163   5.226  19.100  0.00  0.00    +0.000 A 
ENDBRANCH  17  18
ENDBRANCH   8  13
TORSDOF 2
ENDMDL
MODEL 7
REMARK VINA RESULT:      -8.0      1.970      3.898
REMARK  Name = 
REMARK  2 active torsions:
REMARK  status: ('A' for Active; 'I' for Inactive)
REMARK    1  A    between atoms: C_8  and  N_9
REMARK    2  A    between atoms: C_13  and  C_14
REMARK                            x       y       z     vdW  Elec       q    Type
REMARK                         _______ _______ _______ _____ _____    ______ ____
ROOT
ATOM      1  O   UNL     1      -1.427  10.982  21.057  0.00  0.00    +0.000 OA
ATOM      2  S   UNL     1       0.019  10.938  21.135  0.00  0.00    +0.000 S 
ATOM      3  O   UNL     1       0.751  12.067  21.682  0.00  0.00    +0.000 OA
ATOM      4  C   UNL     1       0.455   9.540  22.049  0.00  0.00    +0.000 C 
ATOM      5  C   UNL     1       1.140   8.524  21.521  0.00  0.00    +0.000 C 
ATOM      6  C   UNL     1       1.572   8.502  20.130  0.00  0.00    +0.000 A 
ATOM      7  C   UNL     1       2.298   7.403  19.649  0.00  0.00    +0.000 A 
ATOM      8  C   UNL     1       2.779   7.396  18.331  0.00  0.00    +0.000 A 
ATOM      9  C   UNL     1       2.481   8.459  17.473  0.00  0.00    +0.000 A 
ATOM     10  C   UNL     1       1.741   9.541  17.949  0.00  0.00    +0.000 A 
ATOM     11  C   UNL     1       1.295   9.564  19.272  0.00  0.00    +0.000 A 
ATOM     12  O   UNL     1       0.585  10.673  19.633  0.00  0.00    +0.000 OA
ENDROOT
BRANCH   8  13
ATOM     13  N   UNL     1       3.581   6.310  17.893  0.00  0.00    +0.000 N 
ATOM     14  N   UNL     1       4.438   6.482  16.855  0.00  0.00    +0.000 NA
ATOM     15  N   UNL     1       5.226   5.423  16.787  0.00  0.00    +0.000 NA
ATOM     16  C   UNL     1       4.775   4.512  17.691  0.00  0.00    +0.000 A 
ATOM     17  C   UNL     1       3.670   5.001  18.368  0.00  0.00    +0.000 A 
BRANCH  17  18
ATOM     18  C   UNL     1       2.732   4.299  19.257  0.00  0.00    +0.000 A 
ATOM     19  C   UNL     1       3.017   4.158  20.622  0.00  0.00    +0.000 A 
ATOM     20  C   UNL     1       2.143   3.470  21.471  0.00  0.00    +0.000 A 
ATOM     21  C   UNL     1       0.960   2.929  20.972  0.00  0.00    +0.000 A 
ATOM     22  C   UNL     1       0.668   3.046  19.618  0.00  0.00    +0.000 A 
ATOM     23  C   UNL     1       1.563   3.694  18.766  0.00  0.00    +0.000 A 
ENDBRANCH  17  18
ENDBRANCH   8  13
TORSDOF 2
ENDMDL
MODEL 8
REMARK VINA RESULT:      -8.0      1.985      3.790
REMARK  Name = 
REMARK  2 active torsions:
REMARK  status: ('A' for Active; 'I' for Inactive)
REMARK    1  A    between atoms: C_8  and  N_9
REMARK    2  A    between atoms: C_13  and  C_14
REMARK                            x       y       z     vdW  Elec       q    Type
REMARK                         _______ _______ _______ _____ _____    ______ ____
ROOT
ATOM      1  O   UNL     1      -1.165  10.721  21.068  0.00  0.00    +0.000 OA
ATOM      2  S   UNL     1       0.282  10.667  21.095  0.00  0.00    +0.000 S 
ATOM      3  O   UNL     1       1.041  11.797  21.604  0.00  0.00    +0.000 OA
ATOM      4  C   UNL     1       0.740   9.276  22.009  0.00  0.00    +0.000 C 
ATOM      5  C   UNL     1       1.399   8.249  21.467  0.00  0.00    +0.000 C 
ATOM      6  C   UNL     1       1.782   8.209  20.063  0.00  0.00    +0.000 A 
ATOM      7  C   UNL     1       2.483   7.100  19.569  0.00  0.00    +0.000 A 
ATOM      8  C   UNL     1       2.917   7.076  18.234  0.00  0.00    +0.000 A 
ATOM      9  C   UNL     1       2.596   8.132  17.375  0.00  0.00    +0.000 A 
ATOM     10  C   UNL     1       1.880   9.224  17.865  0.00  0.00    +0.000 A 
ATOM     11  C   UNL     1       1.482   9.264  19.204  0.00  0.00    +0.000 A 
ATOM     12  O   UNL     1       0.793  10.382  19.577  0.00  0.00    +0.000 OA
ENDROOT
BRANCH   8  13
ATOM     13  N   UNL     1       3.695   5.980  17.780  0.00  0.00    +0.000 N 
ATOM     14  N   UNL     1       4.527   6.138  16.719  0.00  0.00    +0.000 NA
ATOM     15  N   UNL     1       5.301   5.070  16.635  0.00  0.00    +0.000 NA
ATOM     16  C   UNL     1       4.865   4.168  17.555  0.00  0.00    +0.000 A 
ATOM     17  C   UNL     1       3.783   4.671  18.259  0.00  0.00    +0.000 A 
BRANCH  17  18
ATOM     18  C   UNL     1       2.862   3.983  19.175  0.00  0.00    +0.000 A 
ATOM     19  C   UNL     1       1.597   3.570  18.735  0.00  0.00    +0.000 A 
ATOM     20  C   UNL     1       0.705   2.937  19.607  0.00  0.00    +0.000 A 
ATOM     21  C   UNL     1       1.070   2.689  20.928  0.00  0.00    +0.000 A 
ATOM     22  C   UNL     1       2.315   3.103  21.386  0.00  0.00    +0.000 A 
ATOM     23  C   UNL     1       3.186   3.774  20.526  0.00  0.00    +0.000 A 
ENDBRANCH  17  18
ENDBRANCH   8  13
TORSDOF 2
ENDMDL
MODEL 9
REMARK VINA RESULT:      -7.9      1.142      1.515
REMARK  Name = 
REMARK  2 active torsions:
REMARK  status: ('A' for Active; 'I' for Inactive)
REMARK    1  A    between atoms: C_8  and  N_9
REMARK    2  A    between atoms: C_13  and  C_14
REMARK                            x       y       z     vdW  Elec       q    Type
REMARK                         _______ _______ _______ _____ _____    ______ ____
ROOT
ATOM      1  O   UNL     1       1.574  11.764  19.973  0.00  0.00    +0.000 OA
ATOM      2  S   UNL     1       0.802  10.705  19.356  0.00  0.00    +0.000 S 
ATOM      3  O   UNL     1      -0.589  10.932  19.002  0.00  0.00    +0.000 OA
ATOM      4  C   UNL     1       1.632  10.216  17.923  0.00  0.00    +0.000 C 
ATOM      5  C   UNL     1       2.142   8.991  17.775  0.00  0.00    +0.000 C 
ATOM      6  C   UNL     1       2.050   7.967  18.806  0.00  0.00    +0.000 A 
ATOM      7  C   UNL     1       2.601   6.700  18.572  0.00  0.00    +0.000 A 
ATOM      8  C   UNL     1       2.463   5.681  19.529  0.00  0.00    +0.000 A 
ATOM      9  C   UNL     1       1.829   5.948  20.746  0.00  0.00    +0.000 A 
ATOM     10  C   UNL     1       1.300   7.217  20.983  0.00  0.00    +0.000 A 
ATOM     11  C   UNL     1       1.404   8.218  20.015  0.00  0.00    +0.000 A 
ATOM     12  O   UNL     1       0.847   9.418  20.349  0.00  0.00    +0.000 OA
ENDROOT
BRANCH   8  13
ATOM     13  N   UNL     1       2.958   4.385  19.235  0.00  0.00    +0.000 N 
ATOM     14  N   UNL     1       2.283   3.292  19.672  0.00  0.00    +0.000 NA
ATOM     15  N   UNL     1       2.797   2.224  19.086  0.00  0.00    +0.000 NA
ATOM     16  C   UNL     1       3.895   2.623  18.388  0.00  0.00    +0.000 A 
ATOM     17  C   UNL     1       4.089   3.988  18.519  0.00  0.00    +0.000 A 
BRANCH  17  18
ATOM     18  C   UNL     1       5.246   4.808  18.134  0.00  0.00    +0.000 A 
ATOM     19  C   UNL     1       6.180   5.217  19.097  0.00  0.00    +0.000 A 
ATOM     20  C   UNL     1       7.271   6.019  18.744  0.00  0.00    +0.000 A 
ATOM     21  C   UNL     1       7.457   6.409  17.420  0.00  0.00    +0.000 A 
ATOM     22  C   UNL     1       6.534   6.026  16.454  0.00  0.00    +0.000 A 
ATOM     23  C   UNL     1       5.423   5.263  16.817  0.00  0.00    +0.000 A 
ENDBRANCH  17  18
ENDBRANCH   8  13
TORSDOF 2
ENDMDL
