MODEL 1
REMARK VINA RESULT:      -9.2      0.000      0.000
REMARK  Name = 
REMARK  0 active torsions:
REMARK  status: ('A' for Active; 'I' for Inactive)
REMARK                            x       y       z     vdW  Elec       q    Type
REMARK                         _______ _______ _______ _____ _____    ______ ____
ROOT
ATOM      1  O   UNL     1       7.073   6.381  17.829  0.00  0.00    +0.000 OA
ATOM      2  C   UNL     1       6.810   5.801  16.796  0.00  0.00    +0.000 C 
ATOM      3  N   UNL     1       7.589   5.868  15.653  0.00  0.00    +0.000 N 
ATOM      4  C   UNL     1       7.056   5.112  14.623  0.00  0.00    +0.000 A 
ATOM      5  C   UNL     1       7.593   4.969  13.357  0.00  0.00    +0.000 A 
ATOM      6  C   UNL     1       6.904   4.157  12.456  0.00  0.00    +0.000 A 
ATOM      7  C   UNL     1       5.714   3.522  12.840  0.00  0.00    +0.000 A 
ATOM      8  C   UNL     1       5.191   3.687  14.128  0.00  0.00    +0.000 A 
ATOM      9  C   UNL     1       5.870   4.490  15.030  0.00  0.00    +0.000 A 
ATOM     10  C   UNL     1       5.646   4.894  16.435  0.00  0.00    +0.000 C 
ATOM     11  C   UNL     1       4.619   4.536  17.224  0.00  0.00    +0.000 C 
ATOM     12  N   UNL     1       3.529   3.719  16.943  0.00  0.00    +0.000 N 
ATOM     13  C   UNL     1       2.717   3.573  18.059  0.00  0.00    +0.000 A 
ATOM     14  C   UNL     1       1.547   2.856  18.196  0.00  0.00    +0.000 A 
ATOM     15  C   UNL     1       0.888   2.901  19.433  0.00  0.00    +0.000 A 
ATOM     16  C   UNL     1       1.399   3.660  20.505  0.00  0.00    +0.000 A 
ATOM     17  C   UNL     1       2.578   4.387  20.358  0.00  0.00    +0.000 A 
ATOM     18  C   UNL     1       3.203   4.322  19.130  0.00  0.00    +0.000 A 
ATOM     19  C   UNL     1       4.436   4.976  18.674  0.00  0.00    +0.000 C 
ATOM     20  O   UNL     1       5.101   5.696  19.384  0.00  0.00    +0.000 OA
ATOM     21  H   UNL     1       8.434   6.415  15.617  0.00  0.00    +0.000 HD
ATOM     22  H   UNL     1       3.401   3.205  16.093  0.00  0.00    +0.000 HD
ENDROOT
TORSDOF 0
ENDMDL
MODEL 2
REMARK VINA RESULT:      -8.7      1.204      5.997
REMARK  Name = 
REMARK  0 active torsions:
REMARK  status: ('A' for Active; 'I' for Inactive)
REMARK                            x       y       z     vdW  Elec       q    Type
REMARK                         _______ _______ _______ _____ _____    ______ ____
ROOT
ATOM      1  O   UNL     1       6.498   6.221  18.651  0.00  0.00    +0.000 OA
ATOM      2  C   UNL     1       5.454   5.605  18.598  0.00  0.00    +0.000 C 
ATOM      3  N   UNL     1       4.572   5.488  19.659  0.00  0.00    +0.000 N 
ATOM      4  C   UNL     1       3.462   4.731  19.322  0.00  0.00    +0.000 A 
ATOM      5  C   UNL     1       2.401   4.429  20.156  0.00  0.00    +0.000 A 
ATOM      6  C   UNL     1       1.372   3.652  19.627  0.00  0.00    +0.000 A 
ATOM      7  C   UNL     1       1.432   3.202  18.301  0.00  0.00    +0.000 A 
ATOM      8  C   UNL     1       2.520   3.520  17.479  0.00  0.00    +0.000 A 
ATOM      9  C   UNL     1       3.546   4.294  17.996  0.00  0.00    +0.000 A 
ATOM     10  C   UNL     1       4.818   4.826  17.460  0.00  0.00    +0.000 C 
ATOM     11  C   UNL     1       5.311   4.646  16.222  0.00  0.00    +0.000 C 
ATOM     12  N   UNL     1       4.777   3.938  15.150  0.00  0.00    +0.000 N 
ATOM     13  C   UNL     1       5.591   4.041  14.032  0.00  0.00    +0.000 A 
ATOM     14  C   UNL     1       5.425   3.487  12.780  0.00  0.00    +0.000 A 
ATOM     15  C   UNL     1       6.423   3.713  11.821  0.00  0.00    +0.000 A 
ATOM     16  C   UNL     1       7.567   4.477  12.126  0.00  0.00    +0.000 A 
ATOM     17  C   UNL     1       7.733   5.029  13.394  0.00  0.00    +0.000 A 
ATOM     18  C   UNL     1       6.734   4.788  14.315  0.00  0.00    +0.000 A 
ATOM     19  C   UNL     1       6.629   5.221  15.714  0.00  0.00    +0.000 C 
ATOM     20  O   UNL     1       7.472   5.899  16.258  0.00  0.00    +0.000 OA
ATOM     21  H   UNL     1       4.756   5.916  20.552  0.00  0.00    +0.000 HD
ATOM     22  H   UNL     1       3.872   3.508  15.140  0.00  0.00    +0.000 HD
ENDROOT
TORSDOF 0
ENDMDL
MODEL 3
REMARK VINA RESULT:      -8.0      3.365      4.355
REMARK  Name = 
REMARK  0 active torsions:
REMARK  status: ('A' for Active; 'I' for Inactive)
REMARK                            x       y       z     vdW  Elec       q    Type
REMARK                         _______ _______ _______ _____ _____    ______ ____
ROOT
ATOM      1  O   UNL     1       3.379   3.870  19.832  0.00  0.00    +0.000 OA
ATOM      2  C   UNL     1       3.895   4.192  18.782  0.00  0.00    +0.000 C 
ATOM      3  N   UNL     1       4.706   3.356  18.033  0.00  0.00    +0.000 N 
ATOM      4  C   UNL     1       5.160   3.979  16.882  0.00  0.00    +0.000 A 
ATOM      5  C   UNL     1       5.984   3.416  15.925  0.00  0.00    +0.000 A 
ATOM      6  C   UNL     1       6.329   4.209  14.831  0.00  0.00    +0.000 A 
ATOM      7  C   UNL     1       5.850   5.522  14.726  0.00  0.00    +0.000 A 
ATOM      8  C   UNL     1       5.018   6.067  15.712  0.00  0.00    +0.000 A 
ATOM      9  C   UNL     1       4.669   5.286  16.801  0.00  0.00    +0.000 A 
ATOM     10  C   UNL     1       3.836   5.496  18.006  0.00  0.00    +0.000 C 
ATOM     11  C   UNL     1       3.173   6.615  18.345  0.00  0.00    +0.000 C 
ATOM     12  N   UNL     1       3.093   7.833  17.678  0.00  0.00    +0.000 N 
ATOM     13  C   UNL     1       2.263   8.715  18.354  0.00  0.00    +0.000 A 
ATOM     14  C   UNL     1       1.926  10.014  18.033  0.00  0.00    +0.000 A 
ATOM     15  C   UNL     1       1.086  10.713  18.912  0.00  0.00    +0.000 A 
ATOM     16  C   UNL     1       0.604  10.115  20.092  0.00  0.00    +0.000 A 
ATOM     17  C   UNL     1       0.953   8.805  20.415  0.00  0.00    +0.000 A 
ATOM     18  C   UNL     1       1.781   8.143  19.531  0.00  0.00    +0.000 A 
ATOM     19  C   UNL     1       2.321   6.780  19.599  0.00  0.00    +0.000 C 
ATOM     20  O   UNL     1       2.076   6.019  20.509  0.00  0.00    +0.000 OA
ATOM     21  H   UNL     1       4.917   2.416  18.327  0.00  0.00    +0.000 HD
ATOM     22  H   UNL     1       3.482   8.019  16.774  0.00  0.00    +0.000 HD
ENDROOT
TORSDOF 0
ENDMDL
MODEL 4
REMARK VINA RESULT:      -7.9      4.633      7.397
REMARK  Name = 
REMARK  0 active torsions:
REMARK  status: ('A' for Active; 'I' for Inactive)
REMARK                            x       y       z     vdW  Elec       q    Type
REMARK                         _______ _______ _______ _____ _____    ______ ____
ROOT
ATOM      1  O   UNL     1       2.341   8.948  17.491  0.00  0.00    +0.000 OA
ATOM      2  C   UNL     1       1.799   9.192  18.549  0.00  0.00    +0.000 C 
ATOM      3  N   UNL     1       1.256  10.424  18.871  0.00  0.00    +0.000 N 
ATOM      4  C   UNL     1       0.700  10.424  20.140  0.00  0.00    +0.000 A 
ATOM      5  C   UNL     1       0.080  11.496  20.755  0.00  0.00    +0.000 A 
ATOM      6  C   UNL     1      -0.420  11.294  22.041  0.00  0.00    +0.000 A 
ATOM      7  C   UNL     1      -0.285  10.048  22.668  0.00  0.00    +0.000 A 
ATOM      8  C   UNL     1       0.351   8.980  22.022  0.00  0.00    +0.000 A 
ATOM      9  C   UNL     1       0.848   9.171  20.744  0.00  0.00    +0.000 A 
ATOM     10  C   UNL     1       1.556   8.316  19.765  0.00  0.00    +0.000 C 
ATOM     11  C   UNL     1       1.915   7.031  19.927  0.00  0.00    +0.000 C 
ATOM     12  N   UNL     1       1.725   6.189  21.018  0.00  0.00    +0.000 N 
ATOM     13  C   UNL     1       2.214   4.917  20.755  0.00  0.00    +0.000 A 
ATOM     14  C   UNL     1       2.225   3.803  21.568  0.00  0.00    +0.000 A 
ATOM     15  C   UNL     1       2.819   2.633  21.074  0.00  0.00    +0.000 A 
ATOM     16  C   UNL     1       3.395   2.593  19.788  0.00  0.00    +0.000 A 
ATOM     17  C   UNL     1       3.386   3.723  18.974  0.00  0.00    +0.000 A 
ATOM     18  C   UNL     1       2.795   4.859  19.489  0.00  0.00    +0.000 A 
ATOM     19  C   UNL     1       2.640   6.188  18.883  0.00  0.00    +0.000 C 
ATOM     20  O   UNL     1       3.040   6.456  17.772  0.00  0.00    +0.000 OA
ATOM     21  H   UNL     1       1.284  11.201  18.230  0.00  0.00    +0.000 HD
ATOM     22  H   UNL     1       1.203   6.423  21.840  0.00  0.00    +0.000 HD
ENDROOT
TORSDOF 0
ENDMDL
MODEL 5
REMARK VINA RESULT:      -7.8      5.268      8.122
REMARK  Name = 
REMARK  0 active torsions:
REMARK  status: ('A' for Active; 'I' for Inactive)
REMARK                            x       y       z     vdW  Elec       q    Type
REMARK                         _______ _______ _______ _____ _____    ______ ____
ROOT
ATOM      1  O   UNL     1       1.602  10.665  17.822  0.00  0.00    +0.000 OA
ATOM      2  C   UNL     1       1.150  10.495  18.935  0.00  0.00    +0.000 C 
ATOM      3  N   UNL     1       0.437  11.455  19.633  0.00  0.00    +0.000 N 
ATOM      4  C   UNL     1       0.039  10.996  20.878  0.00  0.00    +0.000 A 
ATOM      5  C   UNL     1      -0.687  11.709  21.813  0.00  0.00    +0.000 A 
ATOM      6  C   UNL     1      -0.993  11.066  23.012  0.00  0.00    +0.000 A 
ATOM      7  C   UNL     1      -0.570   9.750  23.240  0.00  0.00    +0.000 A 
ATOM      8  C   UNL     1       0.167   9.052  22.275  0.00  0.00    +0.000 A 
ATOM      9  C   UNL     1       0.474   9.681  21.080  0.00  0.00    +0.000 A 
ATOM     10  C   UNL     1       1.205   9.289  19.856  0.00  0.00    +0.000 C 
ATOM     11  C   UNL     1       1.802   8.109  19.616  0.00  0.00    +0.000 C 
ATOM     12  N   UNL     1       1.891   6.980  20.424  0.00  0.00    +0.000 N 
ATOM     13  C   UNL     1       2.563   5.956  19.773  0.00  0.00    +0.000 A 
ATOM     14  C   UNL     1       2.864   4.688  20.225  0.00  0.00    +0.000 A 
ATOM     15  C   UNL     1       3.596   3.843  19.378  0.00  0.00    +0.000 A 
ATOM     16  C   UNL     1       4.019   4.274  18.105  0.00  0.00    +0.000 A 
ATOM     17  C   UNL     1       3.717   5.558  17.657  0.00  0.00    +0.000 A 
ATOM     18  C   UNL     1       2.997   6.365  18.513  0.00  0.00    +0.000 A 
ATOM     19  C   UNL     1       2.542   7.749  18.331  0.00  0.00    +0.000 C 
ATOM     20  O   UNL     1       2.759   8.387  17.324  0.00  0.00    +0.000 OA
ATOM     21  H   UNL     1       0.254  12.368  19.246  0.00  0.00    +0.000 HD
ATOM     22  H   UNL     1       1.432   6.869  21.307  0.00  0.00    +0.000 HD
ENDROOT
TORSDOF 0
ENDMDL
MODEL 6
REMARK VINA RESULT:      -7.8      4.518      6.648
REMARK  Name = 
REMARK  0 active torsions:
REMARK  status: ('A' for Active; 'I' for Inactive)
REMARK                            x       y       z     vdW  Elec       q    Type
REMARK                         _______ _______ _______ _____ _____    ______ ____
ROOT
ATOM      1  O   UNL     1       3.149   7.750  17.448  0.00  0.00    +0.000 OA
ATOM      2  C   UNL     1       3.033   6.818  18.215  0.00  0.00    +0.000 C 
ATOM      3  N   UNL     1       3.575   5.563  17.993  0.00  0.00    +0.000 N 
ATOM      4  C   UNL     1       3.290   4.690  19.030  0.00  0.00    +0.000 A 
ATOM      5  C   UNL     1       3.687   3.368  19.112  0.00  0.00    +0.000 A 
ATOM      6  C   UNL     1       3.300   2.652  20.243  0.00  0.00    +0.000 A 
ATOM      7  C   UNL     1       2.536   3.266  21.245  0.00  0.00    +0.000 A 
ATOM      8  C   UNL     1       2.145   4.606  21.136  0.00  0.00    +0.000 A 
ATOM      9  C   UNL     1       2.527   5.326  20.016  0.00  0.00    +0.000 A 
ATOM     10  C   UNL     1       2.321   6.716  19.553  0.00  0.00    +0.000 C 
ATOM     11  C   UNL     1       1.635   7.684  20.185  0.00  0.00    +0.000 C 
ATOM     12  N   UNL     1       0.960   7.642  21.401  0.00  0.00    +0.000 N 
ATOM     13  C   UNL     1       0.419   8.881  21.711  0.00  0.00    +0.000 A 
ATOM     14  C   UNL     1      -0.322   9.256  22.812  0.00  0.00    +0.000 A 
ATOM     15  C   UNL     1      -0.791  10.576  22.872  0.00  0.00    +0.000 A 
ATOM     16  C   UNL     1      -0.523  11.494  21.837  0.00  0.00    +0.000 A 
ATOM     17  C   UNL     1       0.220  11.107  20.724  0.00  0.00    +0.000 A 
ATOM     18  C   UNL     1       0.668   9.802  20.695  0.00  0.00    +0.000 A 
ATOM     19  C   UNL     1       1.455   9.108  19.668  0.00  0.00    +0.000 C 
ATOM     20  O   UNL     1       1.837   9.648  18.654  0.00  0.00    +0.000 OA
ATOM     21  H   UNL     1       4.105   5.353  17.163  0.00  0.00    +0.000 HD
ATOM     22  H   UNL     1       0.960   6.863  22.031  0.00  0.00    +0.000 HD
ENDROOT
TORSDOF 0
ENDMDL
MODEL 7
REMARK VINA RESULT:      -7.6      3.418      6.615
REMARK  Name = 
REMARK  0 active torsions:
REMARK  status: ('A' for Active; 'I' for Inactive)
REMARK                            x       y       z     vdW  Elec       q    Type
REMARK                         _______ _______ _______ _____ _____    ______ ____
ROOT
ATOM      1  O   UNL     1       2.484   4.985  20.829  0.00  0.00    +0.000 OA
ATOM      2  C   UNL     1       2.259   6.082  20.364  0.00  0.00    +0.000 C 
ATOM      3  N   UNL     1       1.455   7.030  20.975  0.00  0.00    +0.000 N 
ATOM      4  C   UNL     1       1.370   8.192  20.226  0.00  0.00    +0.000 A 
ATOM      5  C   UNL     1       0.650   9.324  20.560  0.00  0.00    +0.000 A 
ATOM      6  C   UNL     1       0.693  10.396  19.671  0.00  0.00    +0.000 A 
ATOM      7  C   UNL     1       1.441  10.309  18.489  0.00  0.00    +0.000 A 
ATOM      8  C   UNL     1       2.159   9.148  18.174  0.00  0.00    +0.000 A 
ATOM      9  C   UNL     1       2.124   8.079  19.052  0.00  0.00    +0.000 A 
ATOM     10  C   UNL     1       2.732   6.730  19.074  0.00  0.00    +0.000 C 
ATOM     11  C   UNL     1       3.531   6.190  18.138  0.00  0.00    +0.000 C 
ATOM     12  N   UNL     1       3.986   6.733  16.940  0.00  0.00    +0.000 N 
ATOM     13  C   UNL     1       4.832   5.850  16.285  0.00  0.00    +0.000 A 
ATOM     14  C   UNL     1       5.482   6.002  15.078  0.00  0.00    +0.000 A 
ATOM     15  C   UNL     1       6.260   4.933  14.610  0.00  0.00    +0.000 A 
ATOM     16  C   UNL     1       6.371   3.735  15.343  0.00  0.00    +0.000 A 
ATOM     17  C   UNL     1       5.706   3.585  16.558  0.00  0.00    +0.000 A 
ATOM     18  C   UNL     1       4.949   4.654  16.992  0.00  0.00    +0.000 A 
ATOM     19  C   UNL     1       4.139   4.792  18.208  0.00  0.00    +0.000 C 
ATOM     20  O   UNL     1       4.043   3.916  19.039  0.00  0.00    +0.000 OA
ATOM     21  H   UNL     1       1.004   6.854  21.859  0.00  0.00    +0.000 HD
ATOM     22  H   UNL     1       3.827   7.675  16.641  0.00  0.00    +0.000 HD
ENDROOT
TORSDOF 0
ENDMDL
MODEL 8
REMARK VINA RESULT:      -7.4      4.198      6.460
REMARK  Name = 
REMARK  0 active torsions:
REMARK  status: ('A' for Active; 'I' for Inactive)
REMARK                            x       y       z     vdW  Elec       q    Type
REMARK                         _______ _______ _______ _____ _____    ______ ____
ROOT
ATOM      1  O   UNL     1       4.083   6.455  17.060  0.00  0.00    +0.000 OA
ATOM      2  C   UNL     1       3.717   5.804  18.016  0.00  0.00    +0.000 C 
ATOM      3  N   UNL     1       4.107   4.497  18.256  0.00  0.00    +0.000 N 
ATOM      4  C   UNL     1       3.541   3.997  19.417  0.00  0.00    +0.000 A 
ATOM      5  C   UNL     1       3.731   2.729  19.933  0.00  0.00    +0.000 A 
ATOM      6  C   UNL     1       3.073   2.415  21.121  0.00  0.00    +0.000 A 
ATOM      7  C   UNL     1       2.253   3.363  21.750  0.00  0.00    +0.000 A 
ATOM      8  C   UNL     1       2.076   4.640  21.204  0.00  0.00    +0.000 A 
ATOM      9  C   UNL     1       2.728   4.961  20.025  0.00  0.00    +0.000 A 
ATOM     10  C   UNL     1       2.794   6.165  19.168  0.00  0.00    +0.000 C 
ATOM     11  C   UNL     1       2.160   7.333  19.366  0.00  0.00    +0.000 C 
ATOM     12  N   UNL     1       1.301   7.711  20.393  0.00  0.00    +0.000 N 
ATOM     13  C   UNL     1       0.895   9.029  20.241  0.00  0.00    +0.000 A 
ATOM     14  C   UNL     1       0.049   9.776  21.033  0.00  0.00    +0.000 A 
ATOM     15  C   UNL     1      -0.234  11.091  20.637  0.00  0.00    +0.000 A 
ATOM     16  C   UNL     1       0.321  11.635  19.462  0.00  0.00    +0.000 A 
ATOM     17  C   UNL     1       1.170  10.874  18.662  0.00  0.00    +0.000 A 
ATOM     18  C   UNL     1       1.429   9.584  19.079  0.00  0.00    +0.000 A 
ATOM     19  C   UNL     1       2.264   8.551  18.453  0.00  0.00    +0.000 C 
ATOM     20  O   UNL     1       2.875   8.732  17.423  0.00  0.00    +0.000 OA
ATOM     21  H   UNL     1       4.727   4.005  17.633  0.00  0.00    +0.000 HD
ATOM     22  H   UNL     1       1.092   7.156  21.200  0.00  0.00    +0.000 HD
ENDROOT
TORSDOF 0
ENDMDL
