MODEL 1
REMARK VINA RESULT:      -8.3      0.000      0.000
REMARK  Name = 
REMARK  6 active torsions:
REMARK  status: ('A' for Active; 'I' for Inactive)
REMARK    1  A    between atoms: C_1  and  O_2
REMARK    2  A    between atoms: O_2  and  C_3
REMARK    3  A    between atoms: C_6  and  N_7
REMARK    4  A    between atoms: N_7  and  C_8
REMARK    5  A    between atoms: C_20  and  O_21
REMARK    6  A    between atoms: O_21  and  C_22
REMARK                            x       y       z     vdW  Elec       q    Type
REMARK                         _______ _______ _______ _____ _____    ______ ____
ROOT
ATOM      1  C   UNL     1       3.967   5.172  18.325  0.00  0.00    +0.000 A 
ATOM      2  C   UNL     1       4.659   5.189  17.072  0.00  0.00    +0.000 A 
ATOM      3  C   UNL     1       4.880   6.324  16.264  0.00  0.00    +0.000 A 
ATOM      4  C   UNL     1       5.673   6.267  15.122  0.00  0.00    +0.000 A 
ATOM      5  C   UNL     1       6.284   5.068  14.797  0.00  0.00    +0.000 A 
ATOM      6 CL   UNL     1       7.370   5.001  13.468  0.00  0.00    +0.000 Cl
ATOM      7  C   UNL     1       5.964   3.912  15.501  0.00  0.00    +0.000 A 
ATOM      8  C   UNL     1       5.045   3.957  16.537  0.00  0.00    +0.000 A 
ATOM      9  N   UNL     1       4.433   2.836  16.919  0.00  0.00    +0.000 NA
ATOM     10  C   UNL     1       3.495   2.946  17.864  0.00  0.00    +0.000 A 
ATOM     11  C   UNL     1       2.371   2.132  17.813  0.00  0.00    +0.000 A 
ATOM     12  C   UNL     1       1.371   2.226  18.775  0.00  0.00    +0.000 A 
ATOM     13  C   UNL     1       1.616   3.025  19.868  0.00  0.00    +0.000 A 
ATOM     14  N   UNL     1       2.593   3.947  19.884  0.00  0.00    +0.000 NA
ATOM     15  C   UNL     1       3.399   3.984  18.785  0.00  0.00    +0.000 A 
ENDROOT
BRANCH   1  16
ATOM     16  N   UNL     1       3.745   6.341  19.113  0.00  0.00    +0.000 N 
ATOM     17  H   UNL     1       4.340   6.347  19.936  0.00  0.00    +0.000 HD
BRANCH  16  21
ATOM     18  C   UNL     1       0.963   9.465  19.207  0.00  0.00    +0.000 A 
ATOM     19  C   UNL     1       1.591   9.114  18.010  0.00  0.00    +0.000 A 
ATOM     20  C   UNL     1       2.438   7.995  17.956  0.00  0.00    +0.000 A 
ATOM     21  C   UNL     1       2.678   7.250  19.097  0.00  0.00    +0.000 A 
ATOM     22  C   UNL     1       1.960   7.543  20.261  0.00  0.00    +0.000 A 
ATOM     23  C   UNL     1       1.143   8.668  20.333  0.00  0.00    +0.000 A 
BRANCH  18  25
ATOM     24  C   UNL     1      -0.969  10.556  18.401  0.00  0.00    +0.000 C 
ATOM     25  O   UNL     1       0.230  10.617  19.165  0.00  0.00    +0.000 OA
ENDBRANCH  18  25
ENDBRANCH  16  21
ENDBRANCH   1  16
BRANCH  13  26
ATOM     26  O   UNL     1       0.703   3.004  20.895  0.00  0.00    +0.000 OA
ATOM     27  C   UNL     1       1.302   2.562  22.113  0.00  0.00    +0.000 C 
ENDBRANCH  13  26
TORSDOF 4
ENDMDL
MODEL 2
REMARK VINA RESULT:      -7.7      3.307      5.326
REMARK  Name = 
REMARK  6 active torsions:
REMARK  status: ('A' for Active; 'I' for Inactive)
REMARK    1  A    between atoms: C_1  and  O_2
REMARK    2  A    between atoms: O_2  and  C_3
REMARK    3  A    between atoms: C_6  and  N_7
REMARK    4  A    between atoms: N_7  and  C_8
REMARK    5  A    between atoms: C_20  and  O_21
REMARK    6  A    between atoms: O_21  and  C_22
REMARK                            x       y       z     vdW  Elec       q    Type
REMARK                         _______ _______ _______ _____ _____    ______ ____
ROOT
ATOM      1  C   UNL     1       3.788   5.859  18.452  0.00  0.00    +0.000 A 
ATOM      2  C   UNL     1       3.279   4.934  19.420  0.00  0.00    +0.000 A 
ATOM      3  C   UNL     1       2.123   5.111  20.208  0.00  0.00    +0.000 A 
ATOM      4  C   UNL     1       1.635   4.103  21.031  0.00  0.00    +0.000 A 
ATOM      5  C   UNL     1       2.289   2.883  21.046  0.00  0.00    +0.000 A 
ATOM      6 CL   UNL     1       1.635   1.579  21.954  0.00  0.00    +0.000 Cl
ATOM      7  C   UNL     1       3.504   2.738  20.386  0.00  0.00    +0.000 A 
ATOM      8  C   UNL     1       4.059   3.808  19.701  0.00  0.00    +0.000 A 
ATOM      9  N   UNL     1       5.366   3.813  19.441  0.00  0.00    +0.000 NA
ATOM     10  C   UNL     1       5.866   4.904  18.853  0.00  0.00    +0.000 A 
ATOM     11  C   UNL     1       7.141   5.341  19.189  0.00  0.00    +0.000 A 
ATOM     12  C   UNL     1       7.689   6.477  18.603  0.00  0.00    +0.000 A 
ATOM     13  C   UNL     1       6.998   7.048  17.559  0.00  0.00    +0.000 A 
ATOM     14  N   UNL     1       5.706   6.773  17.312  0.00  0.00    +0.000 NA
ATOM     15  C   UNL     1       5.137   5.817  18.099  0.00  0.00    +0.000 A 
ENDROOT
BRANCH   1  16
ATOM     16  N   UNL     1       3.001   6.899  17.875  0.00  0.00    +0.000 N 
ATOM     17  H   UNL     1       3.105   6.921  16.864  0.00  0.00    +0.000 HD
BRANCH  16  21
ATOM     18  C   UNL     1       0.715   9.990  19.528  0.00  0.00    +0.000 A 
ATOM     19  C   UNL     1       1.150   8.928  20.325  0.00  0.00    +0.000 A 
ATOM     20  C   UNL     1       2.010   7.952  19.796  0.00  0.00    +0.000 A 
ATOM     21  C   UNL     1       2.408   8.020  18.474  0.00  0.00    +0.000 A 
ATOM     22  C   UNL     1       2.057   9.143  17.717  0.00  0.00    +0.000 A 
ATOM     23  C   UNL     1       1.180  10.099  18.221  0.00  0.00    +0.000 A 
BRANCH  18  25
ATOM     24  C   UNL     1      -0.330  10.687  21.526  0.00  0.00    +0.000 C 
ATOM     25  O   UNL     1      -0.184  10.833  20.118  0.00  0.00    +0.000 OA
ENDBRANCH  18  25
ENDBRANCH  16  21
ENDBRANCH   1  16
BRANCH  13  26
ATOM     26  O   UNL     1       7.604   8.075  16.875  0.00  0.00    +0.000 OA
ATOM     27  C   UNL     1       8.134   9.052  17.769  0.00  0.00    +0.000 C 
ENDBRANCH  13  26
TORSDOF 4
ENDMDL
MODEL 3
REMARK VINA RESULT:      -7.4      3.067      5.029
REMARK  Name = 
REMARK  6 active torsions:
REMARK  status: ('A' for Active; 'I' for Inactive)
REMARK    1  A    between atoms: C_1  and  O_2
REMARK    2  A    between atoms: O_2  and  C_3
REMARK    3  A    between atoms: C_6  and  N_7
REMARK    4  A    between atoms: N_7  and  C_8
REMARK    5  A    between atoms: C_20  and  O_21
REMARK    6  A    between atoms: O_21  and  C_22
REMARK                            x       y       z     vdW  Elec       q    Type
REMARK                         _______ _______ _______ _____ _____    ______ ____
ROOT
ATOM      1  C   UNL     1       3.909   6.331  17.488  0.00  0.00    +0.000 A 
ATOM      2  C   UNL     1       3.265   5.143  17.962  0.00  0.00    +0.000 A 
ATOM      3  C   UNL     1       2.024   5.082  18.628  0.00  0.00    +0.000 A 
ATOM      4  C   UNL     1       1.417   3.871  18.940  0.00  0.00    +0.000 A 
ATOM      5  C   UNL     1       2.040   2.697  18.552  0.00  0.00    +0.000 A 
ATOM      6 CL   UNL     1       1.254   1.192  18.809  0.00  0.00    +0.000 Cl
ATOM      7  C   UNL     1       3.326   2.735  18.022  0.00  0.00    +0.000 A 
ATOM      8  C   UNL     1       3.982   3.946  17.868  0.00  0.00    +0.000 A 
ATOM      9  N   UNL     1       5.311   3.964  17.772  0.00  0.00    +0.000 NA
ATOM     10  C   UNL     1       5.901   5.161  17.709  0.00  0.00    +0.000 A 
ATOM     11  C   UNL     1       7.133   5.352  18.323  0.00  0.00    +0.000 A 
ATOM     12  C   UNL     1       7.771   6.587  18.285  0.00  0.00    +0.000 A 
ATOM     13  C   UNL     1       7.227   7.558  17.475  0.00  0.00    +0.000 A 
ATOM     14  N   UNL     1       5.971   7.483  17.004  0.00  0.00    +0.000 NA
ATOM     15  C   UNL     1       5.290   6.339  17.293  0.00  0.00    +0.000 A 
ENDROOT
BRANCH   1  16
ATOM     16  N   UNL     1       3.220   7.563  17.277  0.00  0.00    +0.000 N 
ATOM     17  H   UNL     1       3.494   7.991  16.397  0.00  0.00    +0.000 HD
BRANCH  16  21
ATOM     18  C   UNL     1       0.656   9.674  19.823  0.00  0.00    +0.000 A 
ATOM     19  C   UNL     1       1.345   8.551  20.287  0.00  0.00    +0.000 A 
ATOM     20  C   UNL     1       2.290   7.911  19.467  0.00  0.00    +0.000 A 
ATOM     21  C   UNL     1       2.522   8.373  18.184  0.00  0.00    +0.000 A 
ATOM     22  C   UNL     1       1.909   9.560  17.769  0.00  0.00    +0.000 A 
ATOM     23  C   UNL     1       0.948  10.183  18.561  0.00  0.00    +0.000 A 
BRANCH  18  25
ATOM     24  C   UNL     1      -0.254   9.663  22.000  0.00  0.00    +0.000 C 
ATOM     25  O   UNL     1      -0.298  10.164  20.669  0.00  0.00    +0.000 OA
ENDBRANCH  18  25
ENDBRANCH  16  21
ENDBRANCH   1  16
BRANCH  13  26
ATOM     26  O   UNL     1       7.933   8.725  17.310  0.00  0.00    +0.000 OA
ATOM     27  C   UNL     1       8.570   9.121  18.524  0.00  0.00    +0.000 C 
ENDBRANCH  13  26
TORSDOF 4
ENDMDL
MODEL 4
REMARK VINA RESULT:      -7.4      2.936      4.829
REMARK  Name = 
REMARK  6 active torsions:
REMARK  status: ('A' for Active; 'I' for Inactive)
REMARK    1  A    between atoms: C_1  and  O_2
REMARK    2  A    between atoms: O_2  and  C_3
REMARK    3  A    between atoms: C_6  and  N_7
REMARK    4  A    between atoms: N_7  and  C_8
REMARK    5  A    between atoms: C_20  and  O_21
REMARK    6  A    between atoms: O_21  and  C_22
REMARK                            x       y       z     vdW  Elec       q    Type
REMARK                         _______ _______ _______ _____ _____    ______ ____
ROOT
ATOM      1  C   UNL     1       3.699   6.234  18.118  0.00  0.00    +0.000 A 
ATOM      2  C   UNL     1       2.921   5.074  18.434  0.00  0.00    +0.000 A 
ATOM      3  C   UNL     1       2.066   4.927  19.546  0.00  0.00    +0.000 A 
ATOM      4  C   UNL     1       1.254   3.810  19.703  0.00  0.00    +0.000 A 
ATOM      5  C   UNL     1       1.266   2.836  18.719  0.00  0.00    +0.000 A 
ATOM      6 CL   UNL     1       0.180   1.509  18.823  0.00  0.00    +0.000 Cl
ATOM      7  C   UNL     1       2.202   2.898  17.692  0.00  0.00    +0.000 A 
ATOM      8  C   UNL     1       3.115   3.939  17.642  0.00  0.00    +0.000 A 
ATOM      9  N   UNL     1       4.241   3.789  16.945  0.00  0.00    +0.000 NA
ATOM     10  C   UNL     1       5.126   4.788  16.996  0.00  0.00    +0.000 A 
ATOM     11  C   UNL     1       6.485   4.503  16.985  0.00  0.00    +0.000 A 
ATOM     12  C   UNL     1       7.434   5.518  17.045  0.00  0.00    +0.000 A 
ATOM     13  C   UNL     1       6.984   6.814  16.940  0.00  0.00    +0.000 A 
ATOM     14  N   UNL     1       5.694   7.146  17.117  0.00  0.00    +0.000 NA
ATOM     15  C   UNL     1       4.830   6.110  17.312  0.00  0.00    +0.000 A 
ENDROOT
BRANCH   1  16
ATOM     16  N   UNL     1       3.429   7.528  18.657  0.00  0.00    +0.000 N 
ATOM     17  H   UNL     1       4.222   7.877  19.187  0.00  0.00    +0.000 HD
BRANCH  16  21
ATOM     18  C   UNL     1       0.113  10.014  19.231  0.00  0.00    +0.000 A 
ATOM     19  C   UNL     1       0.581   9.747  17.942  0.00  0.00    +0.000 A 
ATOM     20  C   UNL     1       1.621   8.824  17.744  0.00  0.00    +0.000 A 
ATOM     21  C   UNL     1       2.209   8.197  18.828  0.00  0.00    +0.000 A 
ATOM     22  C   UNL     1       1.661   8.388  20.100  0.00  0.00    +0.000 A 
ATOM     23  C   UNL     1       0.652   9.323  20.312  0.00  0.00    +0.000 A 
BRANCH  18  25
ATOM     24  C   UNL     1      -1.856  10.942  18.318  0.00  0.00    +0.000 C 
ATOM     25  O   UNL     1      -0.842  10.988  19.315  0.00  0.00    +0.000 OA
ENDBRANCH  18  25
ENDBRANCH  16  21
ENDBRANCH   1  16
BRANCH  13  26
ATOM     26  O   UNL     1       7.923   7.813  16.843  0.00  0.00    +0.000 OA
ATOM     27  C   UNL     1       7.798   8.748  17.914  0.00  0.00    +0.000 C 
ENDBRANCH  13  26
TORSDOF 4
ENDMDL
MODEL 5
REMARK VINA RESULT:      -7.4      3.314      5.244
REMARK  Name = 
REMARK  6 active torsions:
REMARK  status: ('A' for Active; 'I' for Inactive)
REMARK    1  A    between atoms: C_1  and  O_2
REMARK    2  A    between atoms: O_2  and  C_3
REMARK    3  A    between atoms: C_6  and  N_7
REMARK    4  A    between atoms: N_7  and  C_8
REMARK    5  A    between atoms: C_20  and  O_21
REMARK    6  A    between atoms: O_21  and  C_22
REMARK                            x       y       z     vdW  Elec       q    Type
REMARK                         _______ _______ _______ _____ _____    ______ ____
ROOT
ATOM      1  C   UNL     1       3.895   6.051  18.432  0.00  0.00    +0.000 A 
ATOM      2  C   UNL     1       3.336   5.131  19.378  0.00  0.00    +0.000 A 
ATOM      3  C   UNL     1       2.175   5.341  20.150  0.00  0.00    +0.000 A 
ATOM      4  C   UNL     1       1.637   4.339  20.951  0.00  0.00    +0.000 A 
ATOM      5  C   UNL     1       2.244   3.095  20.956  0.00  0.00    +0.000 A 
ATOM      6 CL   UNL     1       1.528   1.803  21.833  0.00  0.00    +0.000 Cl
ATOM      7  C   UNL     1       3.464   2.915  20.312  0.00  0.00    +0.000 A 
ATOM      8  C   UNL     1       4.069   3.973  19.653  0.00  0.00    +0.000 A 
ATOM      9  N   UNL     1       5.379   3.933  19.412  0.00  0.00    +0.000 NA
ATOM     10  C   UNL     1       5.929   5.013  18.850  0.00  0.00    +0.000 A 
ATOM     11  C   UNL     1       7.214   5.396  19.211  0.00  0.00    +0.000 A 
ATOM     12  C   UNL     1       7.813   6.520  18.652  0.00  0.00    +0.000 A 
ATOM     13  C   UNL     1       7.161   7.132  17.607  0.00  0.00    +0.000 A 
ATOM     14  N   UNL     1       5.864   6.910  17.336  0.00  0.00    +0.000 NA
ATOM     15  C   UNL     1       5.246   5.963  18.099  0.00  0.00    +0.000 A 
ENDROOT
BRANCH   1  16
ATOM     16  N   UNL     1       3.157   7.129  17.859  0.00  0.00    +0.000 N 
ATOM     17  H   UNL     1       3.561   7.422  16.975  0.00  0.00    +0.000 HD
BRANCH  16  21
ATOM     18  C   UNL     1       0.830  10.081  19.698  0.00  0.00    +0.000 A 
ATOM     19  C   UNL     1       0.977  10.061  18.309  0.00  0.00    +0.000 A 
ATOM     20  C   UNL     1       1.664   9.006  17.686  0.00  0.00    +0.000 A 
ATOM     21  C   UNL     1       2.224   7.996  18.446  0.00  0.00    +0.000 A 
ATOM     22  C   UNL     1       1.978   7.968  19.823  0.00  0.00    +0.000 A 
ATOM     23  C   UNL     1       1.326   9.024  20.455  0.00  0.00    +0.000 A 
BRANCH  18  25
ATOM     24  C   UNL     1      -1.140  11.374  19.826  0.00  0.00    +0.000 C 
ATOM     25  O   UNL     1       0.219  11.194  20.204  0.00  0.00    +0.000 OA
ENDBRANCH  18  25
ENDBRANCH  16  21
ENDBRANCH   1  16
BRANCH  13  26
ATOM     26  O   UNL     1       7.815   8.145  16.948  0.00  0.00    +0.000 OA
ATOM     27  C   UNL     1       8.188   9.190  17.845  0.00  0.00    +0.000 C 
ENDBRANCH  13  26
TORSDOF 4
ENDMDL
MODEL 6
REMARK VINA RESULT:      -7.3      0.403      1.021
REMARK  Name = 
REMARK  6 active torsions:
REMARK  status: ('A' for Active; 'I' for Inactive)
REMARK    1  A    between atoms: C_1  and  O_2
REMARK    2  A    between atoms: O_2  and  C_3
REMARK    3  A    between atoms: C_6  and  N_7
REMARK    4  A    between atoms: N_7  and  C_8
REMARK    5  A    between atoms: C_20  and  O_21
REMARK    6  A    between atoms: O_21  and  C_22
REMARK                            x       y       z     vdW  Elec       q    Type
REMARK                         _______ _______ _______ _____ _____    ______ ____
ROOT
ATOM      1  C   UNL     1       3.980   5.095  18.408  0.00  0.00    +0.000 A 
ATOM      2  C   UNL     1       4.650   5.138  17.143  0.00  0.00    +0.000 A 
ATOM      3  C   UNL     1       4.910   6.296  16.382  0.00  0.00    +0.000 A 
ATOM      4  C   UNL     1       5.678   6.255  15.224  0.00  0.00    +0.000 A 
ATOM      5  C   UNL     1       6.228   5.045  14.834  0.00  0.00    +0.000 A 
ATOM      6 CL   UNL     1       7.286   4.988  13.482  0.00  0.00    +0.000 Cl
ATOM      7  C   UNL     1       5.868   3.874  15.493  0.00  0.00    +0.000 A 
ATOM      8  C   UNL     1       4.969   3.914  16.547  0.00  0.00    +0.000 A 
ATOM      9  N   UNL     1       4.313   2.807  16.891  0.00  0.00    +0.000 NA
ATOM     10  C   UNL     1       3.398   2.917  17.858  0.00  0.00    +0.000 A 
ATOM     11  C   UNL     1       2.237   2.157  17.794  0.00  0.00    +0.000 A 
ATOM     12  C   UNL     1       1.259   2.253  18.779  0.00  0.00    +0.000 A 
ATOM     13  C   UNL     1       1.560   2.991  19.901  0.00  0.00    +0.000 A 
ATOM     14  N   UNL     1       2.578   3.865  19.938  0.00  0.00    +0.000 NA
ATOM     15  C   UNL     1       3.366   3.915  18.826  0.00  0.00    +0.000 A 
ENDROOT
BRANCH   1  16
ATOM     16  N   UNL     1       3.826   6.236  19.251  0.00  0.00    +0.000 N 
ATOM     17  H   UNL     1       4.219   6.068  20.173  0.00  0.00    +0.000 HD
BRANCH  16  21
ATOM     18  C   UNL     1       0.912   9.181  18.661  0.00  0.00    +0.000 A 
ATOM     19  C   UNL     1       1.064   8.578  19.912  0.00  0.00    +0.000 A 
ATOM     20  C   UNL     1       2.115   7.673  20.139  0.00  0.00    +0.000 A 
ATOM     21  C   UNL     1       2.987   7.351  19.115  0.00  0.00    +0.000 A 
ATOM     22  C   UNL     1       2.893   8.041  17.902  0.00  0.00    +0.000 A 
ATOM     23  C   UNL     1       1.838   8.916  17.656  0.00  0.00    +0.000 A 
BRANCH  18  25
ATOM     24  C   UNL     1      -0.736  10.480  19.742  0.00  0.00    +0.000 C 
ATOM     25  O   UNL     1      -0.190   9.977  18.528  0.00  0.00    +0.000 OA
ENDBRANCH  18  25
ENDBRANCH  16  21
ENDBRANCH   1  16
BRANCH  13  26
ATOM     26  O   UNL     1       0.665   2.964  20.944  0.00  0.00    +0.000 OA
ATOM     27  C   UNL     1       1.286   2.519  22.149  0.00  0.00    +0.000 C 
ENDBRANCH  13  26
TORSDOF 4
ENDMDL
MODEL 7
REMARK VINA RESULT:      -7.2      5.461      9.809
REMARK  Name = 
REMARK  6 active torsions:
REMARK  status: ('A' for Active; 'I' for Inactive)
REMARK    1  A    between atoms: C_1  and  O_2
REMARK    2  A    between atoms: O_2  and  C_3
REMARK    3  A    between atoms: C_6  and  N_7
REMARK    4  A    between atoms: N_7  and  C_8
REMARK    5  A    between atoms: C_20  and  O_21
REMARK    6  A    between atoms: O_21  and  C_22
REMARK                            x       y       z     vdW  Elec       q    Type
REMARK                         _______ _______ _______ _____ _____    ______ ____
ROOT
ATOM      1  C   UNL     1      -1.247  11.733  19.487  0.00  0.00    +0.000 A 
ATOM      2  C   UNL     1      -1.695  12.158  20.780  0.00  0.00    +0.000 A 
ATOM      3  C   UNL     1      -1.071  11.864  22.010  0.00  0.00    +0.000 A 
ATOM      4  C   UNL     1      -1.507  12.425  23.205  0.00  0.00    +0.000 A 
ATOM      5  C   UNL     1      -2.561  13.322  23.173  0.00  0.00    +0.000 A 
ATOM      6 CL   UNL     1      -3.037  14.127  24.613  0.00  0.00    +0.000 Cl
ATOM      7  C   UNL     1      -3.274  13.513  21.993  0.00  0.00    +0.000 A 
ATOM      8  C   UNL     1      -2.924  12.819  20.846  0.00  0.00    +0.000 A 
ATOM      9  N   UNL     1      -3.821  12.672  19.871  0.00  0.00    +0.000 NA
ATOM     10  C   UNL     1      -3.463  11.924  18.823  0.00  0.00    +0.000 A 
ATOM     11  C   UNL     1      -4.411  11.128  18.193  0.00  0.00    +0.000 A 
ATOM     12  C   UNL     1      -4.071  10.331  17.104  0.00  0.00    +0.000 A 
ATOM     13  C   UNL     1      -2.814  10.492  16.568  0.00  0.00    +0.000 A 
ATOM     14  N   UNL     1      -1.822  11.111  17.229  0.00  0.00    +0.000 NA
ATOM     15  C   UNL     1      -2.155  11.662  18.430  0.00  0.00    +0.000 A 
ENDROOT
BRANCH   1  16
ATOM     16  N   UNL     1       0.083  11.289  19.226  0.00  0.00    +0.000 N 
ATOM     17  H   UNL     1       0.628  12.011  18.765  0.00  0.00    +0.000 HD
BRANCH  16  21
ATOM     18  C   UNL     1       2.182   7.671  19.341  0.00  0.00    +0.000 A 
ATOM     19  C   UNL     1       1.505   8.131  20.473  0.00  0.00    +0.000 A 
ATOM     20  C   UNL     1       0.709   9.286  20.400  0.00  0.00    +0.000 A 
ATOM     21  C   UNL     1       0.615   9.991  19.215  0.00  0.00    +0.000 A 
ATOM     22  C   UNL     1       1.207   9.463  18.063  0.00  0.00    +0.000 A 
ATOM     23  C   UNL     1       2.023   8.338  18.130  0.00  0.00    +0.000 A 
BRANCH  18  25
ATOM     24  C   UNL     1       2.326   5.375  19.869  0.00  0.00    +0.000 C 
ATOM     25  O   UNL     1       2.992   6.589  19.546  0.00  0.00    +0.000 OA
ENDBRANCH  18  25
ENDBRANCH  16  21
ENDBRANCH   1  16
BRANCH  13  26
ATOM     26  O   UNL     1      -2.524   9.824  15.403  0.00  0.00    +0.000 OA
ATOM     27  C   UNL     1      -3.443  10.167  14.366  0.00  0.00    +0.000 C 
ENDBRANCH  13  26
TORSDOF 4
ENDMDL
MODEL 8
REMARK VINA RESULT:      -7.2      4.791      9.418
REMARK  Name = 
REMARK  6 active torsions:
REMARK  status: ('A' for Active; 'I' for Inactive)
REMARK    1  A    between atoms: C_1  and  O_2
REMARK    2  A    between atoms: O_2  and  C_3
REMARK    3  A    between atoms: C_6  and  N_7
REMARK    4  A    between atoms: N_7  and  C_8
REMARK    5  A    between atoms: C_20  and  O_21
REMARK    6  A    between atoms: O_21  and  C_22
REMARK                            x       y       z     vdW  Elec       q    Type
REMARK                         _______ _______ _______ _____ _____    ______ ____
ROOT
ATOM      1  C   UNL     1      -0.067  11.254  18.362  0.00  0.00    +0.000 A 
ATOM      2  C   UNL     1      -1.488  11.184  18.193  0.00  0.00    +0.000 A 
ATOM      3  C   UNL     1      -2.170  10.409  17.233  0.00  0.00    +0.000 A 
ATOM      4  C   UNL     1      -3.557  10.306  17.225  0.00  0.00    +0.000 A 
ATOM      5  C   UNL     1      -4.277  10.959  18.212  0.00  0.00    +0.000 A 
ATOM      6 CL   UNL     1      -5.979  10.747  18.304  0.00  0.00    +0.000 Cl
ATOM      7  C   UNL     1      -3.632  11.837  19.077  0.00  0.00    +0.000 A 
ATOM      8  C   UNL     1      -2.267  12.051  18.964  0.00  0.00    +0.000 A 
ATOM      9  N   UNL     1      -1.734  13.160  19.476  0.00  0.00    +0.000 NA
ATOM     10  C   UNL     1      -0.429  13.360  19.269  0.00  0.00    +0.000 A 
ATOM     11  C   UNL     1       0.044  14.651  19.070  0.00  0.00    +0.000 A 
ATOM     12  C   UNL     1       1.394  14.895  18.842  0.00  0.00    +0.000 A 
ATOM     13  C   UNL     1       2.264  13.839  18.995  0.00  0.00    +0.000 A 
ATOM     14  N   UNL     1       1.850  12.561  19.019  0.00  0.00    +0.000 NA
ATOM     15  C   UNL     1       0.501  12.368  18.981  0.00  0.00    +0.000 A 
ENDROOT
BRANCH   1  16
ATOM     16  N   UNL     1       0.831  10.271  17.851  0.00  0.00    +0.000 N 
ATOM     17  H   UNL     1       0.761  10.199  16.840  0.00  0.00    +0.000 HD
BRANCH  16  21
ATOM     18  C   UNL     1       2.406   6.836  19.648  0.00  0.00    +0.000 A 
ATOM     19  C   UNL     1       2.785   7.192  18.352  0.00  0.00    +0.000 A 
ATOM     20  C   UNL     1       2.344   8.403  17.793  0.00  0.00    +0.000 A 
ATOM     21  C   UNL     1       1.508   9.236  18.513  0.00  0.00    +0.000 A 
ATOM     22  C   UNL     1       1.224   8.924  19.846  0.00  0.00    +0.000 A 
ATOM     23  C   UNL     1       1.629   7.713  20.399  0.00  0.00    +0.000 A 
BRANCH  18  25
ATOM     24  C   UNL     1       1.865   4.841  20.787  0.00  0.00    +0.000 C 
ATOM     25  O   UNL     1       2.822   5.601  20.059  0.00  0.00    +0.000 OA
ENDBRANCH  18  25
ENDBRANCH  16  21
ENDBRANCH   1  16
BRANCH  13  26
ATOM     26  O   UNL     1       3.611  14.103  18.925  0.00  0.00    +0.000 OA
ATOM     27  C   UNL     1       3.889  15.130  17.975  0.00  0.00    +0.000 C 
ENDBRANCH  13  26
TORSDOF 4
ENDMDL
MODEL 9
REMARK VINA RESULT:      -7.0      4.739      9.481
REMARK  Name = 
REMARK  6 active torsions:
REMARK  status: ('A' for Active; 'I' for Inactive)
REMARK    1  A    between atoms: C_1  and  O_2
REMARK    2  A    between atoms: O_2  and  C_3
REMARK    3  A    between atoms: C_6  and  N_7
REMARK    4  A    between atoms: N_7  and  C_8
REMARK    5  A    between atoms: C_20  and  O_21
REMARK    6  A    between atoms: O_21  and  C_22
REMARK                            x       y       z     vdW  Elec       q    Type
REMARK                         _______ _______ _______ _____ _____    ______ ____
ROOT
ATOM      1  C   UNL     1       0.414  11.464  18.573  0.00  0.00    +0.000 A 
ATOM      2  C   UNL     1      -0.993  11.313  18.347  0.00  0.00    +0.000 A 
ATOM      3  C   UNL     1      -1.593  10.446  17.411  0.00  0.00    +0.000 A 
ATOM      4  C   UNL     1      -2.971  10.275  17.349  0.00  0.00    +0.000 A 
ATOM      5  C   UNL     1      -3.766  10.952  18.258  0.00  0.00    +0.000 A 
ATOM      6 CL   UNL     1      -5.458  10.662  18.290  0.00  0.00    +0.000 Cl
ATOM      7  C   UNL     1      -3.204  11.914  19.091  0.00  0.00    +0.000 A 
ATOM      8  C   UNL     1      -1.847  12.188  19.025  0.00  0.00    +0.000 A 
ATOM      9  N   UNL     1      -1.390  13.352  19.486  0.00  0.00    +0.000 NA
ATOM     10  C   UNL     1      -0.088  13.603  19.323  0.00  0.00    +0.000 A 
ATOM     11  C   UNL     1       0.334  14.900  19.060  0.00  0.00    +0.000 A 
ATOM     12  C   UNL     1       1.680  15.195  18.877  0.00  0.00    +0.000 A 
ATOM     13  C   UNL     1       2.590  14.196  19.137  0.00  0.00    +0.000 A 
ATOM     14  N   UNL     1       2.235  12.903  19.226  0.00  0.00    +0.000 NA
ATOM     15  C   UNL     1       0.900  12.641  19.142  0.00  0.00    +0.000 A 
ENDROOT
BRANCH   1  16
ATOM     16  N   UNL     1       1.380  10.496  18.167  0.00  0.00    +0.000 N 
ATOM     17  H   UNL     1       1.830  10.768  17.298  0.00  0.00    +0.000 HD
BRANCH  16  21
ATOM     18  C   UNL     1       2.440   6.701  19.576  0.00  0.00    +0.000 A 
ATOM     19  C   UNL     1       1.775   7.603  20.409  0.00  0.00    +0.000 A 
ATOM     20  C   UNL     1       1.320   8.832  19.902  0.00  0.00    +0.000 A 
ATOM     21  C   UNL     1       1.555   9.168  18.581  0.00  0.00    +0.000 A 
ATOM     22  C   UNL     1       2.122   8.214  17.730  0.00  0.00    +0.000 A 
ATOM     23  C   UNL     1       2.605   7.007  18.228  0.00  0.00    +0.000 A 
BRANCH  18  25
ATOM     24  C   UNL     1       3.950   4.888  19.505  0.00  0.00    +0.000 C 
ATOM     25  O   UNL     1       2.912   5.576  20.192  0.00  0.00    +0.000 OA
ENDBRANCH  18  25
ENDBRANCH  16  21
ENDBRANCH   1  16
BRANCH  13  26
ATOM     26  O   UNL     1       3.925  14.521  19.108  0.00  0.00    +0.000 OA
ATOM     27  C   UNL     1       4.114  15.910  18.844  0.00  0.00    +0.000 C 
ENDBRANCH  13  26
TORSDOF 4
ENDMDL
