MODEL 1
REMARK VINA RESULT:      -6.9      0.000      0.000
REMARK  Name = 
REMARK  1 active torsions:
REMARK  status: ('A' for Active; 'I' for Inactive)
REMARK    1  A    between atoms: C_5  and  C_6
REMARK                            x       y       z     vdW  Elec       q    Type
REMARK                         _______ _______ _______ _____ _____    ______ ____
ROOT
ATOM      1  C   UNL     1       1.968   8.475  17.762  0.00  0.00    +0.000 C 
ATOM      2  C   UNL     1       2.334   7.533  18.655  0.00  0.00    +0.000 C 
ATOM      3  C   UNL     1       2.069   7.590  20.135  0.00  0.00    +0.000 C 
ATOM      4  O   UNL     1       1.457   6.389  20.620  0.00  0.00    +0.000 OA
ATOM      5  C   UNL     1       2.156   5.254  20.315  0.00  0.00    +0.000 A 
ATOM      6  C   UNL     1       2.004   4.174  21.184  0.00  0.00    +0.000 A 
ATOM      7  C   UNL     1       2.677   2.977  20.935  0.00  0.00    +0.000 A 
ATOM      8  C   UNL     1       3.477   2.855  19.800  0.00  0.00    +0.000 A 
ATOM      9  C   UNL     1       3.612   3.932  18.920  0.00  0.00    +0.000 A 
ATOM     10  C   UNL     1       2.951   5.146  19.172  0.00  0.00    +0.000 A 
ATOM     11  C   UNL     1       3.102   6.307  18.226  0.00  0.00    +0.000 C 
ENDROOT
BRANCH   1  16
ATOM     12 CL   UNL     1      -0.777  13.569  19.268  0.00  0.00    +0.000 Cl
ATOM     13  C   UNL     1       0.013  12.115  18.798  0.00  0.00    +0.000 A 
ATOM     14  C   UNL     1      -0.741  10.980  18.510  0.00  0.00    +0.000 A 
ATOM     15  C   UNL     1      -0.098   9.790  18.156  0.00  0.00    +0.000 A 
ATOM     16  C   UNL     1       1.301   9.737  18.089  0.00  0.00    +0.000 A 
ATOM     17  C   UNL     1       2.047  10.889  18.355  0.00  0.00    +0.000 A 
ATOM     18  C   UNL     1       1.404  12.078  18.714  0.00  0.00    +0.000 A 
ENDBRANCH   1  16
TORSDOF 1
ENDMDL
MODEL 2
REMARK VINA RESULT:      -6.9      0.120      1.146
REMARK  Name = 
REMARK  1 active torsions:
REMARK  status: ('A' for Active; 'I' for Inactive)
REMARK    1  A    between atoms: C_5  and  C_6
REMARK                            x       y       z     vdW  Elec       q    Type
REMARK                         _______ _______ _______ _____ _____    ______ ____
ROOT
ATOM      1  C   UNL     1       2.026   8.471  17.791  0.00  0.00    +0.000 C 
ATOM      2  C   UNL     1       2.375   7.514  18.674  0.00  0.00    +0.000 C 
ATOM      3  C   UNL     1       2.108   7.558  20.154  0.00  0.00    +0.000 C 
ATOM      4  O   UNL     1       1.477   6.361  20.624  0.00  0.00    +0.000 OA
ATOM      5  C   UNL     1       2.158   5.219  20.308  0.00  0.00    +0.000 A 
ATOM      6  C   UNL     1       1.989   4.132  21.164  0.00  0.00    +0.000 A 
ATOM      7  C   UNL     1       2.643   2.928  20.902  0.00  0.00    +0.000 A 
ATOM      8  C   UNL     1       3.444   2.807  19.768  0.00  0.00    +0.000 A 
ATOM      9  C   UNL     1       3.597   3.891  18.900  0.00  0.00    +0.000 A 
ATOM     10  C   UNL     1       2.954   5.112  19.165  0.00  0.00    +0.000 A 
ATOM     11  C   UNL     1       3.125   6.281  18.232  0.00  0.00    +0.000 C 
ENDROOT
BRANCH   1  16
ATOM     12 CL   UNL     1      -0.608  13.701  19.006  0.00  0.00    +0.000 Cl
ATOM     13  C   UNL     1       0.150  12.188  18.694  0.00  0.00    +0.000 A 
ATOM     14  C   UNL     1       1.539  12.114  18.611  0.00  0.00    +0.000 A 
ATOM     15  C   UNL     1       2.152  10.890  18.329  0.00  0.00    +0.000 A 
ATOM     16  C   UNL     1       1.377   9.740  18.131  0.00  0.00    +0.000 A 
ATOM     17  C   UNL     1      -0.014   9.820  18.241  0.00  0.00    +0.000 A 
ATOM     18  C   UNL     1      -0.629  11.045  18.520  0.00  0.00    +0.000 A 
ENDBRANCH   1  16
TORSDOF 1
ENDMDL
MODEL 3
REMARK VINA RESULT:      -6.8      2.166      2.651
REMARK  Name = 
REMARK  1 active torsions:
REMARK  status: ('A' for Active; 'I' for Inactive)
REMARK    1  A    between atoms: C_5  and  C_6
REMARK                            x       y       z     vdW  Elec       q    Type
REMARK                         _______ _______ _______ _____ _____    ______ ____
ROOT
ATOM      1  C   UNL     1       2.019   8.057  19.512  0.00  0.00    +0.000 C 
ATOM      2  C   UNL     1       2.277   6.740  19.644  0.00  0.00    +0.000 C 
ATOM      3  C   UNL     1       1.709   5.846  20.713  0.00  0.00    +0.000 C 
ATOM      4  O   UNL     1       1.122   4.659  20.168  0.00  0.00    +0.000 OA
ATOM      5  C   UNL     1       1.969   3.945  19.366  0.00  0.00    +0.000 A 
ATOM      6  C   UNL     1       1.741   2.573  19.280  0.00  0.00    +0.000 A 
ATOM      7  C   UNL     1       2.556   1.778  18.474  0.00  0.00    +0.000 A 
ATOM      8  C   UNL     1       3.581   2.364  17.734  0.00  0.00    +0.000 A 
ATOM      9  C   UNL     1       3.796   3.743  17.805  0.00  0.00    +0.000 A 
ATOM     10  C   UNL     1       2.989   4.548  18.627  0.00  0.00    +0.000 A 
ATOM     11  C   UNL     1       3.225   6.033  18.707  0.00  0.00    +0.000 C 
ENDROOT
BRANCH   1  16
ATOM     12 CL   UNL     1      -1.518  11.182  23.185  0.00  0.00    +0.000 Cl
ATOM     13  C   UNL     1      -0.474  10.310  22.132  0.00  0.00    +0.000 A 
ATOM     14  C   UNL     1      -0.574  10.488  20.753  0.00  0.00    +0.000 A 
ATOM     15  C   UNL     1       0.255   9.759  19.897  0.00  0.00    +0.000 A 
ATOM     16  C   UNL     1       1.186   8.851  20.418  0.00  0.00    +0.000 A 
ATOM     17  C   UNL     1       1.296   8.698  21.804  0.00  0.00    +0.000 A 
ATOM     18  C   UNL     1       0.464   9.425  22.661  0.00  0.00    +0.000 A 
ENDBRANCH   1  16
TORSDOF 1
ENDMDL
MODEL 4
REMARK VINA RESULT:      -6.8      2.201      2.773
REMARK  Name = 
REMARK  1 active torsions:
REMARK  status: ('A' for Active; 'I' for Inactive)
REMARK    1  A    between atoms: C_5  and  C_6
REMARK                            x       y       z     vdW  Elec       q    Type
REMARK                         _______ _______ _______ _____ _____    ______ ____
ROOT
ATOM      1  C   UNL     1       2.041   7.962  19.672  0.00  0.00    +0.000 C 
ATOM      2  C   UNL     1       2.247   6.633  19.781  0.00  0.00    +0.000 C 
ATOM      3  C   UNL     1       1.560   5.725  20.764  0.00  0.00    +0.000 C 
ATOM      4  O   UNL     1       0.988   4.575  20.129  0.00  0.00    +0.000 OA
ATOM      5  C   UNL     1       1.881   3.861  19.379  0.00  0.00    +0.000 A 
ATOM      6  C   UNL     1       1.620   2.499  19.226  0.00  0.00    +0.000 A 
ATOM      7  C   UNL     1       2.479   1.705  18.467  0.00  0.00    +0.000 A 
ATOM      8  C   UNL     1       3.583   2.281  17.839  0.00  0.00    +0.000 A 
ATOM      9  C   UNL     1       3.831   3.649  17.977  0.00  0.00    +0.000 A 
ATOM     10  C   UNL     1       2.980   4.453  18.753  0.00  0.00    +0.000 A 
ATOM     11  C   UNL     1       3.252   5.926  18.906  0.00  0.00    +0.000 C 
ENDROOT
BRANCH   1  16
ATOM     12 CL   UNL     1      -1.439  11.311  23.199  0.00  0.00    +0.000 Cl
ATOM     13  C   UNL     1      -0.465  10.321  22.183  0.00  0.00    +0.000 A 
ATOM     14  C   UNL     1       0.448   9.434  22.750  0.00  0.00    +0.000 A 
ATOM     15  C   UNL     1       1.258   8.650  21.923  0.00  0.00    +0.000 A 
ATOM     16  C   UNL     1       1.156   8.753  20.530  0.00  0.00    +0.000 A 
ATOM     17  C   UNL     1       0.219   9.628  19.971  0.00  0.00    +0.000 A 
ATOM     18  C   UNL     1      -0.590  10.415  20.797  0.00  0.00    +0.000 A 
ENDBRANCH   1  16
TORSDOF 1
ENDMDL
MODEL 5
REMARK VINA RESULT:      -6.8      5.018      5.704
REMARK  Name = 
REMARK  1 active torsions:
REMARK  status: ('A' for Active; 'I' for Inactive)
REMARK    1  A    between atoms: C_5  and  C_6
REMARK                            x       y       z     vdW  Elec       q    Type
REMARK                         _______ _______ _______ _____ _____    ______ ____
ROOT
ATOM      1  C   UNL     1       5.880   5.398  17.280  0.00  0.00    +0.000 C 
ATOM      2  C   UNL     1       4.979   4.803  18.088  0.00  0.00    +0.000 C 
ATOM      3  C   UNL     1       4.696   5.196  19.512  0.00  0.00    +0.000 C 
ATOM      4  O   UNL     1       3.297   5.387  19.752  0.00  0.00    +0.000 OA
ATOM      5  C   UNL     1       2.528   4.312  19.404  0.00  0.00    +0.000 A 
ATOM      6  C   UNL     1       1.330   4.148  20.099  0.00  0.00    +0.000 A 
ATOM      7  C   UNL     1       0.486   3.080  19.794  0.00  0.00    +0.000 A 
ATOM      8  C   UNL     1       0.830   2.194  18.774  0.00  0.00    +0.000 A 
ATOM      9  C   UNL     1       2.021   2.371  18.065  0.00  0.00    +0.000 A 
ATOM     10  C   UNL     1       2.884   3.435  18.376  0.00  0.00    +0.000 A 
ATOM     11  C   UNL     1       4.170   3.621  17.616  0.00  0.00    +0.000 C 
ENDROOT
BRANCH   1  16
ATOM     12 CL   UNL     1       9.397   9.926  18.982  0.00  0.00    +0.000 Cl
ATOM     13  C   UNL     1       8.412   8.613  18.467  0.00  0.00    +0.000 A 
ATOM     14  C   UNL     1       7.452   8.814  17.477  0.00  0.00    +0.000 A 
ATOM     15  C   UNL     1       6.633   7.754  17.079  0.00  0.00    +0.000 A 
ATOM     16  C   UNL     1       6.774   6.492  17.670  0.00  0.00    +0.000 A 
ATOM     17  C   UNL     1       7.756   6.294  18.645  0.00  0.00    +0.000 A 
ATOM     18  C   UNL     1       8.574   7.356  19.047  0.00  0.00    +0.000 A 
ENDBRANCH   1  16
TORSDOF 1
ENDMDL
MODEL 6
REMARK VINA RESULT:      -6.7      3.591      6.930
REMARK  Name = 
REMARK  1 active torsions:
REMARK  status: ('A' for Active; 'I' for Inactive)
REMARK    1  A    between atoms: C_5  and  C_6
REMARK                            x       y       z     vdW  Elec       q    Type
REMARK                         _______ _______ _______ _____ _____    ______ ____
ROOT
ATOM      1  C   UNL     1       2.921   6.377  19.108  0.00  0.00    +0.000 C 
ATOM      2  C   UNL     1       2.397   7.619  19.118  0.00  0.00    +0.000 C 
ATOM      3  C   UNL     1       2.427   8.584  17.964  0.00  0.00    +0.000 C 
ATOM      4  O   UNL     1       1.130   9.118  17.673  0.00  0.00    +0.000 OA
ATOM      5  C   UNL     1       0.521   9.700  18.751  0.00  0.00    +0.000 A 
ATOM      6  C   UNL     1      -0.397  10.713  18.478  0.00  0.00    +0.000 A 
ATOM      7  C   UNL     1      -1.067  11.348  19.524  0.00  0.00    +0.000 A 
ATOM      8  C   UNL     1      -0.837  10.947  20.840  0.00  0.00    +0.000 A 
ATOM      9  C   UNL     1       0.068   9.918  21.109  0.00  0.00    +0.000 A 
ATOM     10  C   UNL     1       0.759   9.284  20.063  0.00  0.00    +0.000 A 
ATOM     11  C   UNL     1       1.738   8.179  20.355  0.00  0.00    +0.000 C 
ENDROOT
BRANCH   1  16
ATOM     12 CL   UNL     1       6.061   3.908  14.658  0.00  0.00    +0.000 Cl
ATOM     13  C   UNL     1       5.130   4.625  15.914  0.00  0.00    +0.000 A 
ATOM     14  C   UNL     1       5.309   5.972  16.225  0.00  0.00    +0.000 A 
ATOM     15  C   UNL     1       4.572   6.548  17.264  0.00  0.00    +0.000 A 
ATOM     16  C   UNL     1       3.655   5.777  17.991  0.00  0.00    +0.000 A 
ATOM     17  C   UNL     1       3.465   4.434  17.654  0.00  0.00    +0.000 A 
ATOM     18  C   UNL     1       4.204   3.856  16.617  0.00  0.00    +0.000 A 
ENDBRANCH   1  16
TORSDOF 1
ENDMDL
MODEL 7
REMARK VINA RESULT:      -6.7      3.548      6.837
REMARK  Name = 
REMARK  1 active torsions:
REMARK  status: ('A' for Active; 'I' for Inactive)
REMARK    1  A    between atoms: C_5  and  C_6
REMARK                            x       y       z     vdW  Elec       q    Type
REMARK                         _______ _______ _______ _____ _____    ______ ____
ROOT
ATOM      1  C   UNL     1       2.859   6.417  19.193  0.00  0.00    +0.000 C 
ATOM      2  C   UNL     1       2.348   7.665  19.197  0.00  0.00    +0.000 C 
ATOM      3  C   UNL     1       2.436   8.644  18.058  0.00  0.00    +0.000 C 
ATOM      4  O   UNL     1       1.158   9.196  17.721  0.00  0.00    +0.000 OA
ATOM      5  C   UNL     1       0.511   9.771  18.779  0.00  0.00    +0.000 A 
ATOM      6  C   UNL     1      -0.384  10.798  18.482  0.00  0.00    +0.000 A 
ATOM      7  C   UNL     1      -1.091  11.427  19.508  0.00  0.00    +0.000 A 
ATOM      8  C   UNL     1      -0.920  11.007  20.826  0.00  0.00    +0.000 A 
ATOM      9  C   UNL     1      -0.038   9.963  21.119  0.00  0.00    +0.000 A 
ATOM     10  C   UNL     1       0.689   9.335  20.095  0.00  0.00    +0.000 A 
ATOM     11  C   UNL     1       1.643   8.216  20.413  0.00  0.00    +0.000 C 
ENDROOT
BRANCH   1  16
ATOM     12 CL   UNL     1       5.877   4.022  14.620  0.00  0.00    +0.000 Cl
ATOM     13  C   UNL     1       5.038   4.702  15.959  0.00  0.00    +0.000 A 
ATOM     14  C   UNL     1       4.116   3.929  16.662  0.00  0.00    +0.000 A 
ATOM     15  C   UNL     1       3.413   4.490  17.732  0.00  0.00    +0.000 A 
ATOM     16  C   UNL     1       3.633   5.824  18.100  0.00  0.00    +0.000 A 
ATOM     17  C   UNL     1       4.578   6.583  17.404  0.00  0.00    +0.000 A 
ATOM     18  C   UNL     1       5.279   6.023  16.331  0.00  0.00    +0.000 A 
ENDBRANCH   1  16
TORSDOF 1
ENDMDL
MODEL 8
REMARK VINA RESULT:      -6.7      1.184      1.506
REMARK  Name = 
REMARK  1 active torsions:
REMARK  status: ('A' for Active; 'I' for Inactive)
REMARK    1  A    between atoms: C_5  and  C_6
REMARK                            x       y       z     vdW  Elec       q    Type
REMARK                         _______ _______ _______ _____ _____    ______ ____
ROOT
ATOM      1  C   UNL     1       1.646   9.116  17.745  0.00  0.00    +0.000 C 
ATOM      2  C   UNL     1       2.314   8.138  18.390  0.00  0.00    +0.000 C 
ATOM      3  C   UNL     1       2.066   7.708  19.811  0.00  0.00    +0.000 C 
ATOM      4  O   UNL     1       1.890   6.291  19.923  0.00  0.00    +0.000 OA
ATOM      5  C   UNL     1       2.919   5.565  19.389  0.00  0.00    +0.000 A 
ATOM      6  C   UNL     1       3.143   4.302  19.936  0.00  0.00    +0.000 A 
ATOM      7  C   UNL     1       4.168   3.498  19.438  0.00  0.00    +0.000 A 
ATOM      8  C   UNL     1       4.948   3.948  18.374  0.00  0.00    +0.000 A 
ATOM      9  C   UNL     1       4.708   5.205  17.814  0.00  0.00    +0.000 A 
ATOM     10  C   UNL     1       3.689   6.029  18.320  0.00  0.00    +0.000 A 
ATOM     11  C   UNL     1       3.436   7.385  17.719  0.00  0.00    +0.000 C 
ENDROOT
BRANCH   1  16
ATOM     12 CL   UNL     1      -2.650  12.428  20.264  0.00  0.00    +0.000 Cl
ATOM     13  C   UNL     1      -1.407  11.503  19.515  0.00  0.00    +0.000 A 
ATOM     14  C   UNL     1      -1.732  10.594  18.509  0.00  0.00    +0.000 A 
ATOM     15  C   UNL     1      -0.725   9.823  17.920  0.00  0.00    +0.000 A 
ATOM     16  C   UNL     1       0.605   9.961  18.336  0.00  0.00    +0.000 A 
ATOM     17  C   UNL     1       0.923  10.894  19.328  0.00  0.00    +0.000 A 
ATOM     18  C   UNL     1      -0.083  11.663  19.920  0.00  0.00    +0.000 A 
ENDBRANCH   1  16
TORSDOF 1
ENDMDL
MODEL 9
REMARK VINA RESULT:      -6.6      5.005      5.721
REMARK  Name = 
REMARK  1 active torsions:
REMARK  status: ('A' for Active; 'I' for Inactive)
REMARK    1  A    between atoms: C_5  and  C_6
REMARK                            x       y       z     vdW  Elec       q    Type
REMARK                         _______ _______ _______ _____ _____    ______ ____
ROOT
ATOM      1  C   UNL     1       5.922   5.381  17.343  0.00  0.00    +0.000 C 
ATOM      2  C   UNL     1       4.996   4.794  18.128  0.00  0.00    +0.000 C 
ATOM      3  C   UNL     1       4.620   5.245  19.513  0.00  0.00    +0.000 C 
ATOM      4  O   UNL     1       3.203   5.397  19.665  0.00  0.00    +0.000 OA
ATOM      5  C   UNL     1       2.491   4.280  19.329  0.00  0.00    +0.000 A 
ATOM      6  C   UNL     1       1.262   4.107  19.964  0.00  0.00    +0.000 A 
ATOM      7  C   UNL     1       0.472   2.996  19.667  0.00  0.00    +0.000 A 
ATOM      8  C   UNL     1       0.902   2.075  18.714  0.00  0.00    +0.000 A 
ATOM      9  C   UNL     1       2.126   2.260  18.064  0.00  0.00    +0.000 A 
ATOM     10  C   UNL     1       2.934   3.367  18.369  0.00  0.00    +0.000 A 
ATOM     11  C   UNL     1       4.254   3.562  17.672  0.00  0.00    +0.000 C 
ENDROOT
BRANCH   1  16
ATOM     12 CL   UNL     1       9.454   9.982  18.799  0.00  0.00    +0.000 Cl
ATOM     13  C   UNL     1       8.413   8.670  18.406  0.00  0.00    +0.000 A 
ATOM     14  C   UNL     1       8.596   7.433  19.021  0.00  0.00    +0.000 A 
ATOM     15  C   UNL     1       7.768   6.360  18.681  0.00  0.00    +0.000 A 
ATOM     16  C   UNL     1       6.756   6.523  17.727  0.00  0.00    +0.000 A 
ATOM     17  C   UNL     1       6.563   7.775  17.134  0.00  0.00    +0.000 A 
ATOM     18  C   UNL     1       7.394   8.849  17.471  0.00  0.00    +0.000 A 
ENDBRANCH   1  16
TORSDOF 1
ENDMDL
