MODEL 1
REMARK VINA RESULT:      -6.6      0.000      0.000
REMARK  Name = 
REMARK  14 active torsions:
REMARK  status: ('A' for Active; 'I' for Inactive)
REMARK    1  A    between atoms: C_1  and  C_2
REMARK    2  A    between atoms: C_2  and  C_3
REMARK    3  A    between atoms: C_3  and  C_4
REMARK    4  A    between atoms: C_3  and  O_6
REMARK    5  A    between atoms: C_4  and  C_5
REMARK    6  A    between atoms: O_6  and  C_7
REMARK    7  A    between atoms: C_8  and  C_9
REMARK    8  A    between atoms: C_11  and  C_12
REMARK    9  A    between atoms: C_13  and  O_14
REMARK   10  A    between atoms: O_14  and  C_15
REMARK   11  A    between atoms: C_20  and  O_21
REMARK   12  A    between atoms: O_21  and  C_22
REMARK   13  A    between atoms: C_24  and  O_25
REMARK   14  A    between atoms: O_25  and  C_26
REMARK                            x       y       z     vdW  Elec       q    Type
REMARK                         _______ _______ _______ _____ _____    ______ ____
ROOT
ATOM      1  C   UNL     1       5.396   4.746  16.504  0.00  0.00    +0.000 A 
ATOM      2  C   UNL     1       4.202   4.243  16.997  0.00  0.00    +0.000 A 
ATOM      3  C   UNL     1       3.864   2.796  17.191  0.00  0.00    +0.000 C 
ATOM      4  N   UNL     1       3.244   5.031  17.521  0.00  0.00    +0.000 NA
ATOM      5  C   UNL     1       3.568   6.270  17.898  0.00  0.00    +0.000 A 
ATOM      6  N   UNL     1       4.740   6.821  17.589  0.00  0.00    +0.000 NA
ATOM      7  C   UNL     1       5.613   6.085  16.851  0.00  0.00    +0.000 A 
ENDROOT
BRANCH   5   8
ATOM      8  C   UNL     1       2.638   6.945  18.834  0.00  0.00    +0.000 A 
ATOM      9  C   UNL     1       2.261   6.267  20.046  0.00  0.00    +0.000 A 
ATOM     10  C   UNL     1       1.426   6.874  20.993  0.00  0.00    +0.000 A 
ATOM     11  C   UNL     1       0.970   8.161  20.779  0.00  0.00    +0.000 A 
ATOM     12 CL   UNL     1      -0.008   8.922  21.980  0.00  0.00    +0.000 Cl
ATOM     13  C   UNL     1       1.321   8.855  19.629  0.00  0.00    +0.000 A 
ATOM     14  C   UNL     1       2.138   8.258  18.653  0.00  0.00    +0.000 A 
BRANCH   9  15
ATOM     15  O   UNL     1       2.814   5.028  20.269  0.00  0.00    +0.000 OA
ATOM     16  C   UNL     1       2.273   4.169  21.257  0.00  0.00    +0.000 C 
ENDBRANCH   9  15
BRANCH  14  17
ATOM     17  O   UNL     1       2.461   9.126  17.638  0.00  0.00    +0.000 OA
ATOM     18  C   UNL     1       2.044  10.478  17.798  0.00  0.00    +0.000 C 
ENDBRANCH  14  17
ENDBRANCH   5   8
BRANCH   7  19
ATOM     19  O   UNL     1       6.694   6.864  16.561  0.00  0.00    +0.000 OA
ATOM     20  C   UNL     1       7.522   7.360  17.590  0.00  0.00    +0.000 C 
ENDBRANCH   7  19
BRANCH   1  21
ATOM     21  O   UNL     1       6.367   4.029  15.862  0.00  0.00    +0.000 OA
BRANCH  21  22
ATOM     22  C   UNL     1       6.459   4.043  14.426  0.00  0.00    +0.000 C 
BRANCH  22  24
ATOM     23  C   UNL     1       4.892   3.371  12.531  0.00  0.00    +0.000 C 
ATOM     24  C   UNL     1       5.065   4.203  13.798  0.00  0.00    +0.000 C 
ENDBRANCH  22  24
BRANCH  22  25
ATOM     25  C   UNL     1       7.408   5.188  14.028  0.00  0.00    +0.000 C 
ATOM     26  C   UNL     1       7.784   5.168  12.548  0.00  0.00    +0.000 C 
ENDBRANCH  22  25
ENDBRANCH  21  22
ENDBRANCH   1  21
TORSDOF 8
ENDMDL
MODEL 2
REMARK VINA RESULT:      -6.6      0.501      1.264
REMARK  Name = 
REMARK  14 active torsions:
REMARK  status: ('A' for Active; 'I' for Inactive)
REMARK    1  A    between atoms: C_1  and  C_2
REMARK    2  A    between atoms: C_2  and  C_3
REMARK    3  A    between atoms: C_3  and  C_4
REMARK    4  A    between atoms: C_3  and  O_6
REMARK    5  A    between atoms: C_4  and  C_5
REMARK    6  A    between atoms: O_6  and  C_7
REMARK    7  A    between atoms: C_8  and  C_9
REMARK    8  A    between atoms: C_11  and  C_12
REMARK    9  A    between atoms: C_13  and  O_14
REMARK   10  A    between atoms: O_14  and  C_15
REMARK   11  A    between atoms: C_20  and  O_21
REMARK   12  A    between atoms: O_21  and  C_22
REMARK   13  A    between atoms: C_24  and  O_25
REMARK   14  A    between atoms: O_25  and  C_26
REMARK                            x       y       z     vdW  Elec       q    Type
REMARK                         _______ _______ _______ _____ _____    ______ ____
ROOT
ATOM      1  C   UNL     1       5.139   5.159  16.473  0.00  0.00    +0.000 A 
ATOM      2  C   UNL     1       3.968   4.622  16.984  0.00  0.00    +0.000 A 
ATOM      3  C   UNL     1       3.647   3.163  17.117  0.00  0.00    +0.000 C 
ATOM      4  N   UNL     1       3.026   5.374  17.583  0.00  0.00    +0.000 NA
ATOM      5  C   UNL     1       3.356   6.595  18.009  0.00  0.00    +0.000 A 
ATOM      6  N   UNL     1       4.512   7.171  17.684  0.00  0.00    +0.000 NA
ATOM      7  C   UNL     1       5.361   6.480  16.879  0.00  0.00    +0.000 A 
ENDROOT
BRANCH   5   8
ATOM      8  C   UNL     1       2.457   7.215  19.012  0.00  0.00    +0.000 A 
ATOM      9  C   UNL     1       2.125   6.470  20.199  0.00  0.00    +0.000 A 
ATOM     10  C   UNL     1       1.323   7.021  21.206  0.00  0.00    +0.000 A 
ATOM     11  C   UNL     1       0.856   8.316  21.077  0.00  0.00    +0.000 A 
ATOM     12 CL   UNL     1      -0.082   9.007  22.351  0.00  0.00    +0.000 Cl
ATOM     13  C   UNL     1       1.164   9.073  19.955  0.00  0.00    +0.000 A 
ATOM     14  C   UNL     1       1.948   8.533  18.921  0.00  0.00    +0.000 A 
BRANCH   9  15
ATOM     15  O   UNL     1       2.689   5.223  20.335  0.00  0.00    +0.000 OA
ATOM     16  C   UNL     1       2.015   4.207  21.055  0.00  0.00    +0.000 C 
ENDBRANCH   9  15
BRANCH  14  17
ATOM     17  O   UNL     1       2.232   9.456  17.943  0.00  0.00    +0.000 OA
ATOM     18  C   UNL     1       1.759  10.781  18.160  0.00  0.00    +0.000 C 
ENDBRANCH  14  17
ENDBRANCH   5   8
BRANCH   7  19
ATOM     19  O   UNL     1       6.425   7.281  16.588  0.00  0.00    +0.000 OA
ATOM     20  C   UNL     1       7.510   7.393  17.484  0.00  0.00    +0.000 C 
ENDBRANCH   7  19
BRANCH   1  21
ATOM     21  O   UNL     1       6.091   4.483  15.759  0.00  0.00    +0.000 OA
BRANCH  21  22
ATOM     22  C   UNL     1       6.215   4.676  14.338  0.00  0.00    +0.000 C 
BRANCH  22  24
ATOM     23  C   UNL     1       8.074   5.784  12.992  0.00  0.00    +0.000 C 
ATOM     24  C   UNL     1       7.692   4.631  13.916  0.00  0.00    +0.000 C 
ENDBRANCH  22  24
BRANCH  22  25
ATOM     25  C   UNL     1       5.379   3.587  13.642  0.00  0.00    +0.000 C 
ATOM     26  C   UNL     1       5.787   3.356  12.189  0.00  0.00    +0.000 C 
ENDBRANCH  22  25
ENDBRANCH  21  22
ENDBRANCH   1  21
TORSDOF 8
ENDMDL
MODEL 3
REMARK VINA RESULT:      -6.5      0.515      2.861
REMARK  Name = 
REMARK  14 active torsions:
REMARK  status: ('A' for Active; 'I' for Inactive)
REMARK    1  A    between atoms: C_1  and  C_2
REMARK    2  A    between atoms: C_2  and  C_3
REMARK    3  A    between atoms: C_3  and  C_4
REMARK    4  A    between atoms: C_3  and  O_6
REMARK    5  A    between atoms: C_4  and  C_5
REMARK    6  A    between atoms: O_6  and  C_7
REMARK    7  A    between atoms: C_8  and  C_9
REMARK    8  A    between atoms: C_11  and  C_12
REMARK    9  A    between atoms: C_13  and  O_14
REMARK   10  A    between atoms: O_14  and  C_15
REMARK   11  A    between atoms: C_20  and  O_21
REMARK   12  A    between atoms: O_21  and  C_22
REMARK   13  A    between atoms: C_24  and  O_25
REMARK   14  A    between atoms: O_25  and  C_26
REMARK                            x       y       z     vdW  Elec       q    Type
REMARK                         _______ _______ _______ _____ _____    ______ ____
ROOT
ATOM      1  C   UNL     1       5.066   5.024  16.412  0.00  0.00    +0.000 A 
ATOM      2  C   UNL     1       3.932   4.468  16.985  0.00  0.00    +0.000 A 
ATOM      3  C   UNL     1       3.629   3.005  17.108  0.00  0.00    +0.000 C 
ATOM      4  N   UNL     1       3.026   5.201  17.657  0.00  0.00    +0.000 NA
ATOM      5  C   UNL     1       3.374   6.415  18.086  0.00  0.00    +0.000 A 
ATOM      6  N   UNL     1       4.504   7.006  17.701  0.00  0.00    +0.000 NA
ATOM      7  C   UNL     1       5.305   6.338  16.830  0.00  0.00    +0.000 A 
ENDROOT
BRANCH   5   8
ATOM      8  C   UNL     1       2.537   7.009  19.157  0.00  0.00    +0.000 A 
ATOM      9  C   UNL     1       2.020   8.339  18.975  0.00  0.00    +0.000 A 
ATOM     10  C   UNL     1       1.182   8.934  19.927  0.00  0.00    +0.000 A 
ATOM     11  C   UNL     1       0.819   8.225  21.057  0.00  0.00    +0.000 A 
ATOM     12 CL   UNL     1      -0.263   8.943  22.194  0.00  0.00    +0.000 Cl
ATOM     13  C   UNL     1       1.285   6.934  21.264  0.00  0.00    +0.000 A 
ATOM     14  C   UNL     1       2.146   6.326  20.334  0.00  0.00    +0.000 A 
BRANCH   9  15
ATOM     15  O   UNL     1       2.324   8.974  17.793  0.00  0.00    +0.000 OA
ATOM     16  C   UNL     1       2.154  10.374  17.667  0.00  0.00    +0.000 C 
ENDBRANCH   9  15
BRANCH  14  17
ATOM     17  O   UNL     1       2.422   5.018  20.654  0.00  0.00    +0.000 OA
ATOM     18  C   UNL     1       1.311   4.130  20.721  0.00  0.00    +0.000 C 
ENDBRANCH  14  17
ENDBRANCH   5   8
BRANCH   7  19
ATOM     19  O   UNL     1       6.343   7.153  16.489  0.00  0.00    +0.000 OA
ATOM     20  C   UNL     1       7.215   7.661  17.476  0.00  0.00    +0.000 C 
ENDBRANCH   7  19
BRANCH   1  21
ATOM     21  O   UNL     1       5.974   4.369  15.627  0.00  0.00    +0.000 OA
BRANCH  21  22
ATOM     22  C   UNL     1       6.121   4.712  14.236  0.00  0.00    +0.000 C 
BRANCH  22  24
ATOM     23  C   UNL     1       8.115   5.697  12.990  0.00  0.00    +0.000 C 
ATOM     24  C   UNL     1       7.575   4.509  13.782  0.00  0.00    +0.000 C 
ENDBRANCH  22  24
BRANCH  22  25
ATOM     25  C   UNL     1       5.137   3.843  13.432  0.00  0.00    +0.000 C 
ATOM     26  C   UNL     1       5.761   3.232  12.180  0.00  0.00    +0.000 C 
ENDBRANCH  22  25
ENDBRANCH  21  22
ENDBRANCH   1  21
TORSDOF 8
ENDMDL
MODEL 4
REMARK VINA RESULT:      -6.3      2.863      7.265
REMARK  Name = 
REMARK  14 active torsions:
REMARK  status: ('A' for Active; 'I' for Inactive)
REMARK    1  A    between atoms: C_1  and  C_2
REMARK    2  A    between atoms: C_2  and  C_3
REMARK    3  A    between atoms: C_3  and  C_4
REMARK    4  A    between atoms: C_3  and  O_6
REMARK    5  A    between atoms: C_4  and  C_5
REMARK    6  A    between atoms: O_6  and  C_7
REMARK    7  A    between atoms: C_8  and  C_9
REMARK    8  A    between atoms: C_11  and  C_12
REMARK    9  A    between atoms: C_13  and  O_14
REMARK   10  A    between atoms: O_14  and  C_15
REMARK   11  A    between atoms: C_20  and  O_21
REMARK   12  A    between atoms: O_21  and  C_22
REMARK   13  A    between atoms: C_24  and  O_25
REMARK   14  A    between atoms: O_25  and  C_26
REMARK                            x       y       z     vdW  Elec       q    Type
REMARK                         _______ _______ _______ _____ _____    ______ ____
ROOT
ATOM      1  C   UNL     1       2.038   6.998  20.225  0.00  0.00    +0.000 A 
ATOM      2  C   UNL     1       2.641   5.750  20.233  0.00  0.00    +0.000 A 
ATOM      3  C   UNL     1       2.206   4.562  21.038  0.00  0.00    +0.000 C 
ATOM      4  N   UNL     1       3.617   5.411  19.371  0.00  0.00    +0.000 NA
ATOM      5  C   UNL     1       3.782   6.143  18.268  0.00  0.00    +0.000 A 
ATOM      6  N   UNL     1       3.158   7.306  18.090  0.00  0.00    +0.000 NA
ATOM      7  C   UNL     1       2.345   7.749  19.085  0.00  0.00    +0.000 A 
ENDROOT
BRANCH   5   8
ATOM      8  C   UNL     1       4.550   5.520  17.163  0.00  0.00    +0.000 A 
ATOM      9  C   UNL     1       4.077   4.281  16.603  0.00  0.00    +0.000 A 
ATOM     10  C   UNL     1       4.730   3.670  15.525  0.00  0.00    +0.000 A 
ATOM     11  C   UNL     1       5.841   4.276  14.966  0.00  0.00    +0.000 A 
ATOM     12 CL   UNL     1       6.603   3.546  13.600  0.00  0.00    +0.000 Cl
ATOM     13  C   UNL     1       6.321   5.477  15.468  0.00  0.00    +0.000 A 
ATOM     14  C   UNL     1       5.697   6.096  16.564  0.00  0.00    +0.000 A 
BRANCH   9  15
ATOM     15  O   UNL     1       2.914   3.762  17.122  0.00  0.00    +0.000 OA
ATOM     16  C   UNL     1       2.882   2.438  17.624  0.00  0.00    +0.000 C 
ENDBRANCH   9  15
BRANCH  14  17
ATOM     17  O   UNL     1       6.247   7.321  16.857  0.00  0.00    +0.000 OA
ATOM     18  C   UNL     1       7.492   7.312  17.547  0.00  0.00    +0.000 C 
ENDBRANCH  14  17
ENDBRANCH   5   8
BRANCH   7  19
ATOM     19  O   UNL     1       1.894   8.991  18.749  0.00  0.00    +0.000 OA
ATOM     20  C   UNL     1       1.306   9.229  17.488  0.00  0.00    +0.000 C 
ENDBRANCH   7  19
BRANCH   1  21
ATOM     21  O   UNL     1       1.120   7.454  21.130  0.00  0.00    +0.000 OA
BRANCH  21  22
ATOM     22  C   UNL     1       0.894   8.867  21.295  0.00  0.00    +0.000 C 
BRANCH  22  24
ATOM     23  C   UNL     1      -0.690  10.573  20.259  0.00  0.00    +0.000 C 
ATOM     24  C   UNL     1      -0.562   9.222  20.958  0.00  0.00    +0.000 C 
ENDBRANCH  22  24
BRANCH  22  25
ATOM     25  C   UNL     1       1.259   9.234  22.745  0.00  0.00    +0.000 C 
ATOM     26  C   UNL     1       0.039   9.534  23.613  0.00  0.00    +0.000 C 
ENDBRANCH  22  25
ENDBRANCH  21  22
ENDBRANCH   1  21
TORSDOF 8
ENDMDL
MODEL 5
REMARK VINA RESULT:      -6.1      0.885      2.494
REMARK  Name = 
REMARK  14 active torsions:
REMARK  status: ('A' for Active; 'I' for Inactive)
REMARK    1  A    between atoms: C_1  and  C_2
REMARK    2  A    between atoms: C_2  and  C_3
REMARK    3  A    between atoms: C_3  and  C_4
REMARK    4  A    between atoms: C_3  and  O_6
REMARK    5  A    between atoms: C_4  and  C_5
REMARK    6  A    between atoms: O_6  and  C_7
REMARK    7  A    between atoms: C_8  and  C_9
REMARK    8  A    between atoms: C_11  and  C_12
REMARK    9  A    between atoms: C_13  and  O_14
REMARK   10  A    between atoms: O_14  and  C_15
REMARK   11  A    between atoms: C_20  and  O_21
REMARK   12  A    between atoms: O_21  and  C_22
REMARK   13  A    between atoms: C_24  and  O_25
REMARK   14  A    between atoms: O_25  and  C_26
REMARK                            x       y       z     vdW  Elec       q    Type
REMARK                         _______ _______ _______ _____ _____    ______ ____
ROOT
ATOM      1  C   UNL     1       5.254   4.736  16.768  0.00  0.00    +0.000 A 
ATOM      2  C   UNL     1       5.515   5.930  17.422  0.00  0.00    +0.000 A 
ATOM      3  C   UNL     1       6.563   6.934  17.047  0.00  0.00    +0.000 C 
ATOM      4  N   UNL     1       4.725   6.409  18.401  0.00  0.00    +0.000 NA
ATOM      5  C   UNL     1       3.488   5.923  18.521  0.00  0.00    +0.000 A 
ATOM      6  N   UNL     1       3.079   4.849  17.848  0.00  0.00    +0.000 NA
ATOM      7  C   UNL     1       3.974   4.235  17.030  0.00  0.00    +0.000 A 
ENDROOT
BRANCH   5   8
ATOM      8  C   UNL     1       2.525   6.739  19.300  0.00  0.00    +0.000 A 
ATOM      9  C   UNL     1       1.982   6.196  20.517  0.00  0.00    +0.000 A 
ATOM     10  C   UNL     1       1.108   6.937  21.322  0.00  0.00    +0.000 A 
ATOM     11  C   UNL     1       0.775   8.230  20.961  0.00  0.00    +0.000 A 
ATOM     12 CL   UNL     1      -0.253   9.157  21.991  0.00  0.00    +0.000 Cl
ATOM     13  C   UNL     1       1.288   8.796  19.802  0.00  0.00    +0.000 A 
ATOM     14  C   UNL     1       2.147   8.063  18.966  0.00  0.00    +0.000 A 
BRANCH   9  15
ATOM     15  O   UNL     1       2.413   4.945  20.893  0.00  0.00    +0.000 OA
ATOM     16  C   UNL     1       1.497   3.869  20.987  0.00  0.00    +0.000 C 
ENDBRANCH   9  15
BRANCH  14  17
ATOM     17  O   UNL     1       2.633   8.816  17.924  0.00  0.00    +0.000 OA
ATOM     18  C   UNL     1       2.193  10.168  17.856  0.00  0.00    +0.000 C 
ENDBRANCH  14  17
ENDBRANCH   5   8
BRANCH   7  19
ATOM     19  O   UNL     1       3.391   3.111  16.524  0.00  0.00    +0.000 OA
ATOM     20  C   UNL     1       2.601   2.276  17.343  0.00  0.00    +0.000 C 
ENDBRANCH   7  19
BRANCH   1  21
ATOM     21  O   UNL     1       6.060   4.132  15.843  0.00  0.00    +0.000 OA
BRANCH  21  22
ATOM     22  C   UNL     1       6.090   4.598  14.482  0.00  0.00    +0.000 C 
BRANCH  22  24
ATOM     23  C   UNL     1       7.850   5.196  12.737  0.00  0.00    +0.000 C 
ATOM     24  C   UNL     1       7.409   5.332  14.192  0.00  0.00    +0.000 C 
ENDBRANCH  22  24
BRANCH  22  25
ATOM     25  C   UNL     1       5.891   3.379  13.564  0.00  0.00    +0.000 C 
ATOM     26  C   UNL     1       4.870   3.622  12.456  0.00  0.00    +0.000 C 
ENDBRANCH  22  25
ENDBRANCH  21  22
ENDBRANCH   1  21
TORSDOF 8
ENDMDL
MODEL 6
REMARK VINA RESULT:      -6.1      2.984      7.564
REMARK  Name = 
REMARK  14 active torsions:
REMARK  status: ('A' for Active; 'I' for Inactive)
REMARK    1  A    between atoms: C_1  and  C_2
REMARK    2  A    between atoms: C_2  and  C_3
REMARK    3  A    between atoms: C_3  and  C_4
REMARK    4  A    between atoms: C_3  and  O_6
REMARK    5  A    between atoms: C_4  and  C_5
REMARK    6  A    between atoms: O_6  and  C_7
REMARK    7  A    between atoms: C_8  and  C_9
REMARK    8  A    between atoms: C_11  and  C_12
REMARK    9  A    between atoms: C_13  and  O_14
REMARK   10  A    between atoms: O_14  and  C_15
REMARK   11  A    between atoms: C_20  and  O_21
REMARK   12  A    between atoms: O_21  and  C_22
REMARK   13  A    between atoms: C_24  and  O_25
REMARK   14  A    between atoms: O_25  and  C_26
REMARK                            x       y       z     vdW  Elec       q    Type
REMARK                         _______ _______ _______ _____ _____    ______ ____
ROOT
ATOM      1  C   UNL     1       1.358   8.972  19.566  0.00  0.00    +0.000 A 
ATOM      2  C   UNL     1       1.762   7.742  20.064  0.00  0.00    +0.000 A 
ATOM      3  C   UNL     1       1.038   6.919  21.086  0.00  0.00    +0.000 C 
ATOM      4  N   UNL     1       2.801   7.058  19.549  0.00  0.00    +0.000 NA
ATOM      5  C   UNL     1       3.240   7.381  18.331  0.00  0.00    +0.000 A 
ATOM      6  N   UNL     1       2.830   8.478  17.696  0.00  0.00    +0.000 NA
ATOM      7  C   UNL     1       1.945   9.287  18.336  0.00  0.00    +0.000 A 
ENDROOT
BRANCH   5   8
ATOM      8  C   UNL     1       4.072   6.370  17.634  0.00  0.00    +0.000 A 
ATOM      9  C   UNL     1       3.483   5.100  17.300  0.00  0.00    +0.000 A 
ATOM     10  C   UNL     1       4.201   4.124  16.598  0.00  0.00    +0.000 A 
ATOM     11  C   UNL     1       5.496   4.388  16.190  0.00  0.00    +0.000 A 
ATOM     12 CL   UNL     1       6.351   3.202  15.272  0.00  0.00    +0.000 Cl
ATOM     13  C   UNL     1       6.095   5.606  16.479  0.00  0.00    +0.000 A 
ATOM     14  C   UNL     1       5.403   6.591  17.204  0.00  0.00    +0.000 A 
BRANCH   9  15
ATOM     15  O   UNL     1       2.163   4.913  17.637  0.00  0.00    +0.000 OA
ATOM     16  C   UNL     1       1.755   3.736  18.311  0.00  0.00    +0.000 C 
ENDBRANCH   9  15
BRANCH  14  17
ATOM     17  O   UNL     1       6.115   7.762  17.308  0.00  0.00    +0.000 OA
ATOM     18  C   UNL     1       7.523   7.639  17.477  0.00  0.00    +0.000 C 
ENDBRANCH  14  17
ENDBRANCH   5   8
BRANCH   7  19
ATOM     19  O   UNL     1       1.739  10.392  17.565  0.00  0.00    +0.000 OA
ATOM     20  C   UNL     1       2.411  11.602  17.842  0.00  0.00    +0.000 C 
ENDBRANCH   7  19
BRANCH   1  21
ATOM     21  O   UNL     1       0.386   9.775  20.098  0.00  0.00    +0.000 OA
BRANCH  21  22
ATOM     22  C   UNL     1       0.635  10.525  21.302  0.00  0.00    +0.000 C 
BRANCH  22  24
ATOM     23  C   UNL     1      -0.315  12.837  21.801  0.00  0.00    +0.000 C 
ATOM     24  C   UNL     1       0.699  12.029  20.996  0.00  0.00    +0.000 C 
ENDBRANCH  22  24
BRANCH  22  25
ATOM     25  C   UNL     1      -0.481  10.185  22.306  0.00  0.00    +0.000 C 
ATOM     26  C   UNL     1       0.031   9.470  23.554  0.00  0.00    +0.000 C 
ENDBRANCH  22  25
ENDBRANCH  21  22
ENDBRANCH   1  21
TORSDOF 8
ENDMDL
MODEL 7
REMARK VINA RESULT:      -6.0      0.385      2.589
REMARK  Name = 
REMARK  14 active torsions:
REMARK  status: ('A' for Active; 'I' for Inactive)
REMARK    1  A    between atoms: C_1  and  C_2
REMARK    2  A    between atoms: C_2  and  C_3
REMARK    3  A    between atoms: C_3  and  C_4
REMARK    4  A    between atoms: C_3  and  O_6
REMARK    5  A    between atoms: C_4  and  C_5
REMARK    6  A    between atoms: O_6  and  C_7
REMARK    7  A    between atoms: C_8  and  C_9
REMARK    8  A    between atoms: C_11  and  C_12
REMARK    9  A    between atoms: C_13  and  O_14
REMARK   10  A    between atoms: O_14  and  C_15
REMARK   11  A    between atoms: C_20  and  O_21
REMARK   12  A    between atoms: O_21  and  C_22
REMARK   13  A    between atoms: C_24  and  O_25
REMARK   14  A    between atoms: O_25  and  C_26
REMARK                            x       y       z     vdW  Elec       q    Type
REMARK                         _______ _______ _______ _____ _____    ______ ____
ROOT
ATOM      1  C   UNL     1       5.529   4.780  16.638  0.00  0.00    +0.000 A 
ATOM      2  C   UNL     1       4.354   4.207  17.099  0.00  0.00    +0.000 A 
ATOM      3  C   UNL     1       4.060   2.739  17.186  0.00  0.00    +0.000 C 
ATOM      4  N   UNL     1       3.379   4.925  17.687  0.00  0.00    +0.000 NA
ATOM      5  C   UNL     1       3.670   6.141  18.154  0.00  0.00    +0.000 A 
ATOM      6  N   UNL     1       4.824   6.747  17.879  0.00  0.00    +0.000 NA
ATOM      7  C   UNL     1       5.711   6.094  17.083  0.00  0.00    +0.000 A 
ENDROOT
BRANCH   5   8
ATOM      8  C   UNL     1       2.729   6.717  19.144  0.00  0.00    +0.000 A 
ATOM      9  C   UNL     1       2.214   8.042  18.921  0.00  0.00    +0.000 A 
ATOM     10  C   UNL     1       1.283   8.620  19.793  0.00  0.00    +0.000 A 
ATOM     11  C   UNL     1       0.825   7.900  20.881  0.00  0.00    +0.000 A 
ATOM     12 CL   UNL     1      -0.367   8.598  21.915  0.00  0.00    +0.000 Cl
ATOM     13  C   UNL     1       1.286   6.613  21.124  0.00  0.00    +0.000 A 
ATOM     14  C   UNL     1       2.238   6.021  20.276  0.00  0.00    +0.000 A 
BRANCH   9  15
ATOM     15  O   UNL     1       2.620   8.688  17.777  0.00  0.00    +0.000 OA
ATOM     16  C   UNL     1       2.346  10.066  17.596  0.00  0.00    +0.000 C 
ENDBRANCH   9  15
BRANCH  14  17
ATOM     17  O   UNL     1       2.499   4.715  20.613  0.00  0.00    +0.000 OA
ATOM     18  C   UNL     1       1.376   3.844  20.706  0.00  0.00    +0.000 C 
ENDBRANCH  14  17
ENDBRANCH   5   8
BRANCH   7  19
ATOM     19  O   UNL     1       6.766   6.924  16.846  0.00  0.00    +0.000 OA
ATOM     20  C   UNL     1       7.704   7.207  17.862  0.00  0.00    +0.000 C 
ENDBRANCH   7  19
BRANCH   1  21
ATOM     21  O   UNL     1       6.515   4.142  15.938  0.00  0.00    +0.000 OA
BRANCH  21  22
ATOM     22  C   UNL     1       6.535   4.182  14.499  0.00  0.00    +0.000 C 
BRANCH  22  24
ATOM     23  C   UNL     1       4.868   3.558  12.674  0.00  0.00    +0.000 C 
ATOM     24  C   UNL     1       5.113   4.365  13.946  0.00  0.00    +0.000 C 
ENDBRANCH  22  24
BRANCH  22  25
ATOM     25  C   UNL     1       7.474   5.325  14.074  0.00  0.00    +0.000 C 
ATOM     26  C   UNL     1       7.895   5.242  12.609  0.00  0.00    +0.000 C 
ENDBRANCH  22  25
ENDBRANCH  21  22
ENDBRANCH   1  21
TORSDOF 8
ENDMDL
MODEL 8
REMARK VINA RESULT:      -5.9      2.689      4.878
REMARK  Name = 
REMARK  14 active torsions:
REMARK  status: ('A' for Active; 'I' for Inactive)
REMARK    1  A    between atoms: C_1  and  C_2
REMARK    2  A    between atoms: C_2  and  C_3
REMARK    3  A    between atoms: C_3  and  C_4
REMARK    4  A    between atoms: C_3  and  O_6
REMARK    5  A    between atoms: C_4  and  C_5
REMARK    6  A    between atoms: O_6  and  C_7
REMARK    7  A    between atoms: C_8  and  C_9
REMARK    8  A    between atoms: C_11  and  C_12
REMARK    9  A    between atoms: C_13  and  O_14
REMARK   10  A    between atoms: O_14  and  C_15
REMARK   11  A    between atoms: C_20  and  O_21
REMARK   12  A    between atoms: O_21  and  C_22
REMARK   13  A    between atoms: C_24  and  O_25
REMARK   14  A    between atoms: O_25  and  C_26
REMARK                            x       y       z     vdW  Elec       q    Type
REMARK                         _______ _______ _______ _____ _____    ______ ____
ROOT
ATOM      1  C   UNL     1       2.868   6.346  19.205  0.00  0.00    +0.000 A 
ATOM      2  C   UNL     1       2.830   7.569  18.551  0.00  0.00    +0.000 A 
ATOM      3  C   UNL     1       3.318   7.845  17.161  0.00  0.00    +0.000 C 
ATOM      4  N   UNL     1       2.184   8.638  19.052  0.00  0.00    +0.000 NA
ATOM      5  C   UNL     1       1.276   8.448  20.011  0.00  0.00    +0.000 A 
ATOM      6  N   UNL     1       1.133   7.278  20.630  0.00  0.00    +0.000 NA
ATOM      7  C   UNL     1       1.961   6.263  20.268  0.00  0.00    +0.000 A 
ENDROOT
BRANCH   5   8
ATOM      8  C   UNL     1       0.304   9.546  20.235  0.00  0.00    +0.000 A 
ATOM      9  C   UNL     1       0.195  10.117  21.551  0.00  0.00    +0.000 A 
ATOM     10  C   UNL     1      -0.667  11.189  21.813  0.00  0.00    +0.000 A 
ATOM     11  C   UNL     1      -1.414  11.733  20.785  0.00  0.00    +0.000 A 
ATOM     12 CL   UNL     1      -2.428  13.093  21.105  0.00  0.00    +0.000 Cl
ATOM     13  C   UNL     1      -1.328  11.221  19.498  0.00  0.00    +0.000 A 
ATOM     14  C   UNL     1      -0.488  10.130  19.216  0.00  0.00    +0.000 A 
BRANCH   9  15
ATOM     15  O   UNL     1       1.026   9.612  22.524  0.00  0.00    +0.000 OA
ATOM     16  C   UNL     1       0.513   9.275  23.800  0.00  0.00    +0.000 C 
ENDBRANCH   9  15
BRANCH  14  17
ATOM     17  O   UNL     1      -0.456   9.826  17.876  0.00  0.00    +0.000 OA
ATOM     18  C   UNL     1      -1.680   9.960  17.163  0.00  0.00    +0.000 C 
ENDBRANCH  14  17
ENDBRANCH   5   8
BRANCH   7  19
ATOM     19  O   UNL     1       1.721   5.199  21.086  0.00  0.00    +0.000 OA
ATOM     20  C   UNL     1       1.006   4.076  20.618  0.00  0.00    +0.000 C 
ENDBRANCH   7  19
BRANCH   1  21
ATOM     21  O   UNL     1       3.587   5.249  18.818  0.00  0.00    +0.000 OA
BRANCH  21  22
ATOM     22  C   UNL     1       3.499   4.755  17.469  0.00  0.00    +0.000 C 
BRANCH  22  24
ATOM     23  C   UNL     1       5.318   4.881  15.688  0.00  0.00    +0.000 C 
ATOM     24  C   UNL     1       4.866   4.236  16.995  0.00  0.00    +0.000 C 
ENDBRANCH  22  24
BRANCH  22  25
ATOM     25  C   UNL     1       2.421   3.656  17.441  0.00  0.00    +0.000 C 
ATOM     26  C   UNL     1       2.927   2.307  17.945  0.00  0.00    +0.000 C 
ENDBRANCH  22  25
ENDBRANCH  21  22
ENDBRANCH   1  21
TORSDOF 8
ENDMDL
MODEL 9
REMARK VINA RESULT:      -5.9      3.073      7.679
REMARK  Name = 
REMARK  14 active torsions:
REMARK  status: ('A' for Active; 'I' for Inactive)
REMARK    1  A    between atoms: C_1  and  C_2
REMARK    2  A    between atoms: C_2  and  C_3
REMARK    3  A    between atoms: C_3  and  C_4
REMARK    4  A    between atoms: C_3  and  O_6
REMARK    5  A    between atoms: C_4  and  C_5
REMARK    6  A    between atoms: O_6  and  C_7
REMARK    7  A    between atoms: C_8  and  C_9
REMARK    8  A    between atoms: C_11  and  C_12
REMARK    9  A    between atoms: C_13  and  O_14
REMARK   10  A    between atoms: O_14  and  C_15
REMARK   11  A    between atoms: C_20  and  O_21
REMARK   12  A    between atoms: O_21  and  C_22
REMARK   13  A    between atoms: C_24  and  O_25
REMARK   14  A    between atoms: O_25  and  C_26
REMARK                            x       y       z     vdW  Elec       q    Type
REMARK                         _______ _______ _______ _____ _____    ______ ____
ROOT
ATOM      1  C   UNL     1       1.185   9.581  19.850  0.00  0.00    +0.000 A 
ATOM      2  C   UNL     1       1.151   8.454  20.657  0.00  0.00    +0.000 A 
ATOM      3  C   UNL     1       0.255   8.238  21.839  0.00  0.00    +0.000 C 
ATOM      4  N   UNL     1       1.828   7.330  20.360  0.00  0.00    +0.000 NA
ATOM      5  C   UNL     1       2.264   7.154  19.111  0.00  0.00    +0.000 A 
ATOM      6  N   UNL     1       2.234   8.130  18.206  0.00  0.00    +0.000 NA
ATOM      7  C   UNL     1       1.754   9.341  18.595  0.00  0.00    +0.000 A 
ENDROOT
BRANCH   5   8
ATOM      8  C   UNL     1       2.617   5.768  18.718  0.00  0.00    +0.000 A 
ATOM      9  C   UNL     1       3.645   5.568  17.731  0.00  0.00    +0.000 A 
ATOM     10  C   UNL     1       4.058   4.284  17.356  0.00  0.00    +0.000 A 
ATOM     11  C   UNL     1       3.487   3.178  17.960  0.00  0.00    +0.000 A 
ATOM     12 CL   UNL     1       4.045   1.601  17.534  0.00  0.00    +0.000 Cl
ATOM     13  C   UNL     1       2.502   3.328  18.926  0.00  0.00    +0.000 A 
ATOM     14  C   UNL     1       2.055   4.606  19.301  0.00  0.00    +0.000 A 
BRANCH   9  15
ATOM     15  O   UNL     1       4.256   6.692  17.226  0.00  0.00    +0.000 OA
ATOM     16  C   UNL     1       5.651   6.701  16.981  0.00  0.00    +0.000 C 
ENDBRANCH   9  15
BRANCH  14  17
ATOM     17  O   UNL     1       1.153   4.562  20.337  0.00  0.00    +0.000 OA
ATOM     18  C   UNL     1       1.201   3.413  21.176  0.00  0.00    +0.000 C 
ENDBRANCH  14  17
ENDBRANCH   5   8
BRANCH   7  19
ATOM     19  O   UNL     1       1.907  10.216  17.560  0.00  0.00    +0.000 OA
ATOM     20  C   UNL     1       2.506  11.478  17.764  0.00  0.00    +0.000 C 
ENDBRANCH   7  19
BRANCH   1  21
ATOM     21  O   UNL     1       0.614  10.791  20.134  0.00  0.00    +0.000 OA
BRANCH  21  22
ATOM     22  C   UNL     1      -0.814  10.961  20.064  0.00  0.00    +0.000 C 
BRANCH  22  24
ATOM     23  C   UNL     1      -1.034  11.558  22.533  0.00  0.00    +0.000 C 
ATOM     24  C   UNL     1      -1.283  12.002  21.094  0.00  0.00    +0.000 C 
ENDBRANCH  22  24
BRANCH  22  25
ATOM     25  C   UNL     1      -1.168  11.372  18.623  0.00  0.00    +0.000 C 
ATOM     26  C   UNL     1      -2.530  10.854  18.170  0.00  0.00    +0.000 C 
ENDBRANCH  22  25
ENDBRANCH  21  22
ENDBRANCH   1  21
TORSDOF 8
ENDMDL
