MODEL 1
REMARK VINA RESULT:      -7.4      0.000      0.000
REMARK  Name = 
REMARK  4 active torsions:
REMARK  status: ('A' for Active; 'I' for Inactive)
REMARK    1  A    between atoms: C_2  and  O_3
REMARK    2  A    between atoms: C_2  and  C_17
REMARK    3  A    between atoms: O_3  and  C_4
REMARK    4  A    between atoms: C_4  and  N_5
REMARK                            x       y       z     vdW  Elec       q    Type
REMARK                         _______ _______ _______ _____ _____    ______ ____
ROOT
ATOM      1  C   UNL     1       5.319   3.870  16.453  0.00  0.00    +0.000 C 
ENDROOT
BRANCH   1   2
ATOM      2  N   UNL     1       6.041   5.033  16.897  0.00  0.00    +0.000 N 
ATOM      3  C   UNL     1       5.846   6.371  16.544  0.00  0.00    +0.000 C 
ATOM      4  O   UNL     1       5.053   6.794  15.722  0.00  0.00    +0.000 OA
ATOM      5  C   UNL     1       6.775   7.229  17.318  0.00  0.00    +0.000 C 
ATOM      6  C   UNL     1       7.514   6.547  18.196  0.00  0.00    +0.000 C 
ATOM      7  C   UNL     1       8.561   7.099  19.071  0.00  0.00    +0.000 C 
ATOM      8  C   UNL     1       8.782   8.609  18.918  0.00  0.00    +0.000 C 
ATOM      9  C   UNL     1       7.946   9.402  17.899  0.00  0.00    +0.000 C 
ATOM     10  C   UNL     1       6.875   8.682  17.073  0.00  0.00    +0.000 C 
ATOM     11  S   UNL     1       7.096   4.875  18.174  0.00  0.00    +0.000 S 
ATOM     12  O   UNL     1       8.227   4.081  17.759  0.00  0.00    +0.000 OA
ATOM     13  O   UNL     1       6.322   4.542  19.349  0.00  0.00    +0.000 OA
ENDBRANCH   1   2
BRANCH   1  14
ATOM     14  O   UNL     1       4.046   3.831  17.102  0.00  0.00    +0.000 OA
BRANCH  14  16
ATOM     15  O   UNL     1       4.066   1.569  17.401  0.00  0.00    +0.000 OA
ATOM     16  C   UNL     1       3.754   2.689  17.763  0.00  0.00    +0.000 C 
BRANCH  16  17
ATOM     17  C   UNL     1       2.943   2.990  18.971  0.00  0.00    +0.000 A 
ATOM     18  C   UNL     1       1.738   3.714  18.898  0.00  0.00    +0.000 A 
ATOM     19 CL   UNL     1       1.117   4.420  17.441  0.00  0.00    +0.000 Cl
ATOM     20  C   UNL     1       0.987   3.968  20.055  0.00  0.00    +0.000 A 
ATOM     21  C   UNL     1       1.430   3.531  21.298  0.00  0.00    +0.000 A 
ATOM     22  C   UNL     1       2.636   2.845  21.391  0.00  0.00    +0.000 A 
ATOM     23  C   UNL     1       3.392   2.573  20.240  0.00  0.00    +0.000 A 
ATOM     24 CL   UNL     1       4.863   1.699  20.503  0.00  0.00    +0.000 Cl
ENDBRANCH  16  17
ENDBRANCH  14  16
ENDBRANCH   1  14
TORSDOF 4
ENDMDL
MODEL 2
REMARK VINA RESULT:      -7.2      0.086      1.882
REMARK  Name = 
REMARK  4 active torsions:
REMARK  status: ('A' for Active; 'I' for Inactive)
REMARK    1  A    between atoms: C_2  and  O_3
REMARK    2  A    between atoms: C_2  and  C_17
REMARK    3  A    between atoms: O_3  and  C_4
REMARK    4  A    between atoms: C_4  and  N_5
REMARK                            x       y       z     vdW  Elec       q    Type
REMARK                         _______ _______ _______ _____ _____    ______ ____
ROOT
ATOM      1  C   UNL     1       5.233   3.975  16.374  0.00  0.00    +0.000 C 
ENDROOT
BRANCH   1   2
ATOM      2  N   UNL     1       5.984   5.110  16.841  0.00  0.00    +0.000 N 
ATOM      3  C   UNL     1       5.820   6.460  16.519  0.00  0.00    +0.000 C 
ATOM      4  O   UNL     1       5.035   6.921  15.711  0.00  0.00    +0.000 OA
ATOM      5  C   UNL     1       6.772   7.278  17.310  0.00  0.00    +0.000 C 
ATOM      6  C   UNL     1       7.497   6.558  18.169  0.00  0.00    +0.000 C 
ATOM      7  C   UNL     1       8.560   7.065  19.052  0.00  0.00    +0.000 C 
ATOM      8  C   UNL     1       8.816   8.573  18.933  0.00  0.00    +0.000 C 
ATOM      9  C   UNL     1       7.996   9.409  17.935  0.00  0.00    +0.000 C 
ATOM     10  C   UNL     1       6.906   8.734  17.098  0.00  0.00    +0.000 C 
ATOM     11  S   UNL     1       7.039   4.898  18.110  0.00  0.00    +0.000 S 
ATOM     12  O   UNL     1       8.149   4.087  17.673  0.00  0.00    +0.000 OA
ATOM     13  O   UNL     1       6.261   4.557  19.280  0.00  0.00    +0.000 OA
ENDBRANCH   1   2
BRANCH   1  14
ATOM     14  O   UNL     1       3.999   3.901  17.091  0.00  0.00    +0.000 OA
BRANCH  14  16
ATOM     15  O   UNL     1       4.120   1.641  17.388  0.00  0.00    +0.000 OA
ATOM     16  C   UNL     1       3.774   2.748  17.760  0.00  0.00    +0.000 C 
BRANCH  16  17
ATOM     17  C   UNL     1       2.986   3.015  18.990  0.00  0.00    +0.000 A 
ATOM     18  C   UNL     1       3.422   2.592  20.260  0.00  0.00    +0.000 A 
ATOM     19 CL   UNL     1       4.845   1.638  20.529  0.00  0.00    +0.000 Cl
ATOM     20  C   UNL     1       2.663   2.873  21.407  0.00  0.00    +0.000 A 
ATOM     21  C   UNL     1       1.455   3.553  21.306  0.00  0.00    +0.000 A 
ATOM     22  C   UNL     1       0.994   3.947  20.055  0.00  0.00    +0.000 A 
ATOM     23  C   UNL     1       1.749   3.682  18.902  0.00  0.00    +0.000 A 
ATOM     24 CL   UNL     1       1.060   4.242  17.415  0.00  0.00    +0.000 Cl
ENDBRANCH  16  17
ENDBRANCH  14  16
ENDBRANCH   1  14
TORSDOF 4
ENDMDL
MODEL 3
REMARK VINA RESULT:      -7.2      5.087      6.696
REMARK  Name = 
REMARK  4 active torsions:
REMARK  status: ('A' for Active; 'I' for Inactive)
REMARK    1  A    between atoms: C_2  and  O_3
REMARK    2  A    between atoms: C_2  and  C_17
REMARK    3  A    between atoms: O_3  and  C_4
REMARK    4  A    between atoms: C_4  and  N_5
REMARK                            x       y       z     vdW  Elec       q    Type
REMARK                         _______ _______ _______ _____ _____    ______ ____
ROOT
ATOM      1  C   UNL     1       2.385   8.124  18.287  0.00  0.00    +0.000 C 
ENDROOT
BRANCH   1   2
ATOM      2  N   UNL     1       1.536   8.801  19.230  0.00  0.00    +0.000 N 
ATOM      3  C   UNL     1       1.413   8.588  20.606  0.00  0.00    +0.000 C 
ATOM      4  O   UNL     1       1.967   7.721  21.256  0.00  0.00    +0.000 OA
ATOM      5  C   UNL     1       0.475   9.583  21.179  0.00  0.00    +0.000 C 
ATOM      6  C   UNL     1       0.032  10.468  20.283  0.00  0.00    +0.000 C 
ATOM      7  C   UNL     1      -0.946  11.541  20.525  0.00  0.00    +0.000 C 
ATOM      8  C   UNL     1      -1.473  11.604  21.965  0.00  0.00    +0.000 C 
ATOM      9  C   UNL     1      -0.980  10.581  23.002  0.00  0.00    +0.000 C 
ATOM     10  C   UNL     1       0.061   9.532  22.597  0.00  0.00    +0.000 C 
ATOM     11  S   UNL     1       0.751  10.185  18.743  0.00  0.00    +0.000 S 
ATOM     12  O   UNL     1      -0.259   9.841  17.773  0.00  0.00    +0.000 OA
ATOM     13  O   UNL     1       1.755  11.191  18.473  0.00  0.00    +0.000 OA
ENDBRANCH   1   2
BRANCH   1  14
ATOM     14  O   UNL     1       2.077   6.728  18.295  0.00  0.00    +0.000 OA
BRANCH  14  16
ATOM     15  O   UNL     1       4.189   6.262  19.024  0.00  0.00    +0.000 OA
ATOM     16  C   UNL     1       3.083   5.903  18.662  0.00  0.00    +0.000 C 
BRANCH  16  17
ATOM     17  C   UNL     1       2.666   4.486  18.505  0.00  0.00    +0.000 A 
ATOM     18  C   UNL     1       1.697   3.898  19.339  0.00  0.00    +0.000 A 
ATOM     19 CL   UNL     1       0.962   4.701  20.689  0.00  0.00    +0.000 Cl
ATOM     20  C   UNL     1       1.313   2.560  19.155  0.00  0.00    +0.000 A 
ATOM     21  C   UNL     1       1.901   1.785  18.162  0.00  0.00    +0.000 A 
ATOM     22  C   UNL     1       2.885   2.343  17.353  0.00  0.00    +0.000 A 
ATOM     23  C   UNL     1       3.270   3.682  17.518  0.00  0.00    +0.000 A 
ATOM     24 CL   UNL     1       4.495   4.245  16.432  0.00  0.00    +0.000 Cl
ENDBRANCH  16  17
ENDBRANCH  14  16
ENDBRANCH   1  14
TORSDOF 4
ENDMDL
MODEL 4
REMARK VINA RESULT:      -7.2      5.135      6.774
REMARK  Name = 
REMARK  4 active torsions:
REMARK  status: ('A' for Active; 'I' for Inactive)
REMARK    1  A    between atoms: C_2  and  O_3
REMARK    2  A    between atoms: C_2  and  C_17
REMARK    3  A    between atoms: O_3  and  C_4
REMARK    4  A    between atoms: C_4  and  N_5
REMARK                            x       y       z     vdW  Elec       q    Type
REMARK                         _______ _______ _______ _____ _____    ______ ____
ROOT
ATOM      1  C   UNL     1       2.334   8.116  18.393  0.00  0.00    +0.000 C 
ENDROOT
BRANCH   1   2
ATOM      2  N   UNL     1       1.483   8.813  19.321  0.00  0.00    +0.000 N 
ATOM      3  C   UNL     1       1.330   8.602  20.694  0.00  0.00    +0.000 C 
ATOM      4  O   UNL     1       1.852   7.722  21.354  0.00  0.00    +0.000 OA
ATOM      5  C   UNL     1       0.405   9.619  21.251  0.00  0.00    +0.000 C 
ATOM      6  C   UNL     1      -0.001  10.514  20.347  0.00  0.00    +0.000 C 
ATOM      7  C   UNL     1      -0.958  11.609  20.572  0.00  0.00    +0.000 C 
ATOM      8  C   UNL     1      -1.509  11.683  22.002  0.00  0.00    +0.000 C 
ATOM      9  C   UNL     1      -1.059  10.649  23.048  0.00  0.00    +0.000 C 
ATOM     10  C   UNL     1      -0.035   9.577  22.660  0.00  0.00    +0.000 C 
ATOM     11  S   UNL     1       0.740  10.215  18.820  0.00  0.00    +0.000 S 
ATOM     12  O   UNL     1      -0.260   9.894  17.832  0.00  0.00    +0.000 OA
ATOM     13  O   UNL     1       1.771  11.197  18.569  0.00  0.00    +0.000 OA
ENDBRANCH   1   2
BRANCH   1  14
ATOM     14  O   UNL     1       2.060   6.715  18.465  0.00  0.00    +0.000 OA
BRANCH  14  16
ATOM     15  O   UNL     1       4.132   6.332  19.341  0.00  0.00    +0.000 OA
ATOM     16  C   UNL     1       3.089   5.931  18.857  0.00  0.00    +0.000 C 
BRANCH  16  17
ATOM     17  C   UNL     1       2.791   4.507  18.557  0.00  0.00    +0.000 A 
ATOM     18  C   UNL     1       3.448   3.811  17.525  0.00  0.00    +0.000 A 
ATOM     19 CL   UNL     1       4.581   4.537  16.432  0.00  0.00    +0.000 Cl
ATOM     20  C   UNL     1       3.155   2.461  17.276  0.00  0.00    +0.000 A 
ATOM     21  C   UNL     1       2.196   1.794  18.028  0.00  0.00    +0.000 A 
ATOM     22  C   UNL     1       1.514   2.479  19.029  0.00  0.00    +0.000 A 
ATOM     23  C   UNL     1       1.805   3.825  19.296  0.00  0.00    +0.000 A 
ATOM     24 CL   UNL     1       0.890   4.545  20.577  0.00  0.00    +0.000 Cl
ENDBRANCH  16  17
ENDBRANCH  14  16
ENDBRANCH   1  14
TORSDOF 4
ENDMDL
MODEL 5
REMARK VINA RESULT:      -7.0      4.651      6.723
REMARK  Name = 
REMARK  4 active torsions:
REMARK  status: ('A' for Active; 'I' for Inactive)
REMARK    1  A    between atoms: C_2  and  O_3
REMARK    2  A    between atoms: C_2  and  C_17
REMARK    3  A    between atoms: O_3  and  C_4
REMARK    4  A    between atoms: C_4  and  N_5
REMARK                            x       y       z     vdW  Elec       q    Type
REMARK                         _______ _______ _______ _____ _____    ______ ____
ROOT
ATOM      1  C   UNL     1       2.454   7.014  17.964  0.00  0.00    +0.000 C 
ENDROOT
BRANCH   1   2
ATOM      2  N   UNL     1       1.799   7.885  18.904  0.00  0.00    +0.000 N 
ATOM      3  C   UNL     1       1.640   7.722  20.283  0.00  0.00    +0.000 C 
ATOM      4  O   UNL     1       1.978   6.755  20.941  0.00  0.00    +0.000 OA
ATOM      5  C   UNL     1       0.970   8.918  20.849  0.00  0.00    +0.000 C 
ATOM      6  C   UNL     1       0.743   9.873  19.944  0.00  0.00    +0.000 C 
ATOM      7  C   UNL     1       0.050  11.150  20.178  0.00  0.00    +0.000 C 
ATOM      8  C   UNL     1      -0.434  11.352  21.620  0.00  0.00    +0.000 C 
ATOM      9  C   UNL     1      -0.189  10.252  22.668  0.00  0.00    +0.000 C 
ATOM     10  C   UNL     1       0.569   8.982  22.270  0.00  0.00    +0.000 C 
ATOM     11  S   UNL     1       1.361   9.410  18.403  0.00  0.00    +0.000 S 
ATOM     12  O   UNL     1       0.289   9.305  17.444  0.00  0.00    +0.000 OA
ATOM     13  O   UNL     1       2.573  10.145  18.115  0.00  0.00    +0.000 OA
ENDBRANCH   1   2
BRANCH   1  14
ATOM     14  O   UNL     1       3.869   7.124  18.130  0.00  0.00    +0.000 OA
BRANCH  14  16
ATOM     15  O   UNL     1       4.590   5.521  19.587  0.00  0.00    +0.000 OA
ATOM     16  C   UNL     1       4.515   5.984  18.463  0.00  0.00    +0.000 C 
BRANCH  16  17
ATOM     17  C   UNL     1       5.176   5.402  17.266  0.00  0.00    +0.000 A 
ATOM     18  C   UNL     1       4.616   4.322  16.558  0.00  0.00    +0.000 A 
ATOM     19 CL   UNL     1       3.175   3.487  17.041  0.00  0.00    +0.000 Cl
ATOM     20  C   UNL     1       5.257   3.805  15.422  0.00  0.00    +0.000 A 
ATOM     21  C   UNL     1       6.469   4.332  14.990  0.00  0.00    +0.000 A 
ATOM     22  C   UNL     1       7.051   5.376  15.700  0.00  0.00    +0.000 A 
ATOM     23  C   UNL     1       6.415   5.912  16.831  0.00  0.00    +0.000 A 
ATOM     24 CL   UNL     1       7.248   7.216  17.607  0.00  0.00    +0.000 Cl
ENDBRANCH  16  17
ENDBRANCH  14  16
ENDBRANCH   1  14
TORSDOF 4
ENDMDL
MODEL 6
REMARK VINA RESULT:      -7.0      4.672      6.790
REMARK  Name = 
REMARK  4 active torsions:
REMARK  status: ('A' for Active; 'I' for Inactive)
REMARK    1  A    between atoms: C_2  and  O_3
REMARK    2  A    between atoms: C_2  and  C_17
REMARK    3  A    between atoms: O_3  and  C_4
REMARK    4  A    between atoms: C_4  and  N_5
REMARK                            x       y       z     vdW  Elec       q    Type
REMARK                         _______ _______ _______ _____ _____    ______ ____
ROOT
ATOM      1  C   UNL     1       2.441   7.028  17.978  0.00  0.00    +0.000 C 
ENDROOT
BRANCH   1   2
ATOM      2  N   UNL     1       1.786   7.904  18.912  0.00  0.00    +0.000 N 
ATOM      3  C   UNL     1       1.636   7.755  20.293  0.00  0.00    +0.000 C 
ATOM      4  O   UNL     1       1.982   6.797  20.960  0.00  0.00    +0.000 OA
ATOM      5  C   UNL     1       0.962   8.953  20.851  0.00  0.00    +0.000 C 
ATOM      6  C   UNL     1       0.725   9.897  19.937  0.00  0.00    +0.000 C 
ATOM      7  C   UNL     1       0.026  11.173  20.162  0.00  0.00    +0.000 C 
ATOM      8  C   UNL     1      -0.451  11.387  21.604  0.00  0.00    +0.000 C 
ATOM      9  C   UNL     1      -0.195  10.300  22.662  0.00  0.00    +0.000 C 
ATOM     10  C   UNL     1       0.568   9.030  22.272  0.00  0.00    +0.000 C 
ATOM     11  S   UNL     1       1.337   9.422  18.398  0.00  0.00    +0.000 S 
ATOM     12  O   UNL     1       0.261   9.301  17.446  0.00  0.00    +0.000 OA
ATOM     13  O   UNL     1       2.543  10.161  18.095  0.00  0.00    +0.000 OA
ENDBRANCH   1   2
BRANCH   1  14
ATOM     14  O   UNL     1       3.856   7.118  18.161  0.00  0.00    +0.000 OA
BRANCH  14  16
ATOM     15  O   UNL     1       4.514   5.480  19.608  0.00  0.00    +0.000 OA
ATOM     16  C   UNL     1       4.484   5.968  18.492  0.00  0.00    +0.000 C 
BRANCH  16  17
ATOM     17  C   UNL     1       5.186   5.408  17.308  0.00  0.00    +0.000 A 
ATOM     18  C   UNL     1       6.400   5.946  16.840  0.00  0.00    +0.000 A 
ATOM     19 CL   UNL     1       7.155   7.359  17.503  0.00  0.00    +0.000 Cl
ATOM     20  C   UNL     1       7.047   5.385  15.728  0.00  0.00    +0.000 A 
ATOM     21  C   UNL     1       6.489   4.305  15.054  0.00  0.00    +0.000 A 
ATOM     22  C   UNL     1       5.273   3.785  15.485  0.00  0.00    +0.000 A 
ATOM     23  C   UNL     1       4.621   4.328  16.602  0.00  0.00    +0.000 A 
ATOM     24 CL   UNL     1       3.124   3.572  17.032  0.00  0.00    +0.000 Cl
ENDBRANCH  16  17
ENDBRANCH  14  16
ENDBRANCH   1  14
TORSDOF 4
ENDMDL
MODEL 7
REMARK VINA RESULT:      -7.0      5.145      6.923
REMARK  Name = 
REMARK  4 active torsions:
REMARK  status: ('A' for Active; 'I' for Inactive)
REMARK    1  A    between atoms: C_2  and  O_3
REMARK    2  A    between atoms: C_2  and  C_17
REMARK    3  A    between atoms: O_3  and  C_4
REMARK    4  A    between atoms: C_4  and  N_5
REMARK                            x       y       z     vdW  Elec       q    Type
REMARK                         _______ _______ _______ _____ _____    ______ ____
ROOT
ATOM      1  C   UNL     1       2.119   8.197  18.221  0.00  0.00    +0.000 C 
ENDROOT
BRANCH   1   2
ATOM      2  N   UNL     1       1.336   8.859  19.231  0.00  0.00    +0.000 N 
ATOM      3  C   UNL     1       1.210   8.543  20.586  0.00  0.00    +0.000 C 
ATOM      4  O   UNL     1       1.699   7.584  21.155  0.00  0.00    +0.000 OA
ATOM      5  C   UNL     1       0.360   9.558  21.255  0.00  0.00    +0.000 C 
ATOM      6  C   UNL     1      -0.020  10.546  20.441  0.00  0.00    +0.000 C 
ATOM      7  C   UNL     1      -0.906  11.669  20.787  0.00  0.00    +0.000 C 
ATOM      8  C   UNL     1      -1.412  11.653  22.235  0.00  0.00    +0.000 C 
ATOM      9  C   UNL     1      -0.992  10.512  23.177  0.00  0.00    +0.000 C 
ATOM     10  C   UNL     1      -0.043   9.422  22.670  0.00  0.00    +0.000 C 
ATOM     11  S   UNL     1       0.660  10.336  18.871  0.00  0.00    +0.000 S 
ATOM     12  O   UNL     1      -0.384  10.155  17.894  0.00  0.00    +0.000 OA
ATOM     13  O   UNL     1       1.738  11.279  18.669  0.00  0.00    +0.000 OA
ENDBRANCH   1   2
BRANCH   1  14
ATOM     14  O   UNL     1       2.883   7.153  18.829  0.00  0.00    +0.000 OA
BRANCH  14  16
ATOM     15  O   UNL     1       4.166   6.814  16.972  0.00  0.00    +0.000 OA
ATOM     16  C   UNL     1       3.635   6.406  17.990  0.00  0.00    +0.000 C 
BRANCH  16  17
ATOM     17  C   UNL     1       3.674   4.996  18.454  0.00  0.00    +0.000 A 
ATOM     18  C   UNL     1       4.795   4.462  19.119  0.00  0.00    +0.000 A 
ATOM     19 CL   UNL     1       6.274   5.330  19.379  0.00  0.00    +0.000 Cl
ATOM     20  C   UNL     1       4.796   3.130  19.560  0.00  0.00    +0.000 A 
ATOM     21  C   UNL     1       3.701   2.306  19.327  0.00  0.00    +0.000 A 
ATOM     22  C   UNL     1       2.600   2.810  18.641  0.00  0.00    +0.000 A 
ATOM     23  C   UNL     1       2.581   4.143  18.205  0.00  0.00    +0.000 A 
ATOM     24 CL   UNL     1       1.143   4.637  17.378  0.00  0.00    +0.000 Cl
ENDBRANCH  16  17
ENDBRANCH  14  16
ENDBRANCH   1  14
TORSDOF 4
ENDMDL
MODEL 8
REMARK VINA RESULT:      -7.0      4.957      6.541
REMARK  Name = 
REMARK  4 active torsions:
REMARK  status: ('A' for Active; 'I' for Inactive)
REMARK    1  A    between atoms: C_2  and  O_3
REMARK    2  A    between atoms: C_2  and  C_17
REMARK    3  A    between atoms: O_3  and  C_4
REMARK    4  A    between atoms: C_4  and  N_5
REMARK                            x       y       z     vdW  Elec       q    Type
REMARK                         _______ _______ _______ _____ _____    ______ ____
ROOT
ATOM      1  C   UNL     1       2.180   8.007  18.015  0.00  0.00    +0.000 C 
ENDROOT
BRANCH   1   2
ATOM      2  N   UNL     1       1.442   8.666  19.060  0.00  0.00    +0.000 N 
ATOM      3  C   UNL     1       1.357   8.332  20.414  0.00  0.00    +0.000 C 
ATOM      4  O   UNL     1       1.852   7.358  20.952  0.00  0.00    +0.000 OA
ATOM      5  C   UNL     1       0.545   9.349  21.126  0.00  0.00    +0.000 C 
ATOM      6  C   UNL     1       0.152  10.353  20.339  0.00  0.00    +0.000 C 
ATOM      7  C   UNL     1      -0.706  11.483  20.730  0.00  0.00    +0.000 C 
ATOM      8  C   UNL     1      -1.163  11.454  22.195  0.00  0.00    +0.000 C 
ATOM      9  C   UNL     1      -0.727  10.294  23.106  0.00  0.00    +0.000 C 
ATOM     10  C   UNL     1       0.189   9.198  22.552  0.00  0.00    +0.000 C 
ATOM     11  S   UNL     1       0.774  10.156  18.744  0.00  0.00    +0.000 S 
ATOM     12  O   UNL     1      -0.305  10.003  17.800  0.00  0.00    +0.000 OA
ATOM     13  O   UNL     1       1.858  11.087  18.517  0.00  0.00    +0.000 OA
ENDBRANCH   1   2
BRANCH   1  14
ATOM     14  O   UNL     1       3.196   7.190  18.601  0.00  0.00    +0.000 OA
BRANCH  14  16
ATOM     15  O   UNL     1       4.307   6.616  16.692  0.00  0.00    +0.000 OA
ATOM     16  C   UNL     1       3.812   6.324  17.766  0.00  0.00    +0.000 C 
BRANCH  16  17
ATOM     17  C   UNL     1       3.748   4.947  18.318  0.00  0.00    +0.000 A 
ATOM     18  C   UNL     1       2.615   4.128  18.147  0.00  0.00    +0.000 A 
ATOM     19 CL   UNL     1       1.149   4.648  17.383  0.00  0.00    +0.000 Cl
ATOM     20  C   UNL     1       2.592   2.825  18.668  0.00  0.00    +0.000 A 
ATOM     21  C   UNL     1       3.675   2.327  19.381  0.00  0.00    +0.000 A 
ATOM     22  C   UNL     1       4.788   3.137  19.588  0.00  0.00    +0.000 A 
ATOM     23  C   UNL     1       4.830   4.437  19.063  0.00  0.00    +0.000 A 
ATOM     24 CL   UNL     1       6.281   5.325  19.385  0.00  0.00    +0.000 Cl
ENDBRANCH  16  17
ENDBRANCH  14  16
ENDBRANCH   1  14
TORSDOF 4
ENDMDL
MODEL 9
REMARK VINA RESULT:      -7.0      0.971      1.056
REMARK  Name = 
REMARK  4 active torsions:
REMARK  status: ('A' for Active; 'I' for Inactive)
REMARK    1  A    between atoms: C_2  and  O_3
REMARK    2  A    between atoms: C_2  and  C_17
REMARK    3  A    between atoms: O_3  and  C_4
REMARK    4  A    between atoms: C_4  and  N_5
REMARK                            x       y       z     vdW  Elec       q    Type
REMARK                         _______ _______ _______ _____ _____    ______ ____
ROOT
ATOM      1  C   UNL     1       5.281   3.990  16.166  0.00  0.00    +0.000 C 
ENDROOT
BRANCH   1   2
ATOM      2  N   UNL     1       6.013   5.111  16.694  0.00  0.00    +0.000 N 
ATOM      3  C   UNL     1       5.852   6.470  16.414  0.00  0.00    +0.000 C 
ATOM      4  O   UNL     1       5.089   6.956  15.598  0.00  0.00    +0.000 OA
ATOM      5  C   UNL     1       6.777   7.264  17.259  0.00  0.00    +0.000 C 
ATOM      6  C   UNL     1       7.479   6.517  18.115  0.00  0.00    +0.000 C 
ATOM      7  C   UNL     1       8.513   6.997  19.046  0.00  0.00    +0.000 C 
ATOM      8  C   UNL     1       8.766   8.509  18.986  0.00  0.00    +0.000 C 
ATOM      9  C   UNL     1       7.972   9.376  17.994  0.00  0.00    +0.000 C 
ATOM     10  C   UNL     1       6.910   8.726  17.101  0.00  0.00    +0.000 C 
ATOM     11  S   UNL     1       7.030   4.858  17.986  0.00  0.00    +0.000 S 
ATOM     12  O   UNL     1       8.157   4.067  17.555  0.00  0.00    +0.000 OA
ATOM     13  O   UNL     1       6.219   4.475  19.120  0.00  0.00    +0.000 OA
ENDBRANCH   1   2
BRANCH   1  14
ATOM     14  O   UNL     1       4.634   3.303  17.239  0.00  0.00    +0.000 OA
BRANCH  14  16
ATOM     15  O   UNL     1       2.530   3.485  16.374  0.00  0.00    +0.000 OA
ATOM     16  C   UNL     1       3.294   3.464  17.322  0.00  0.00    +0.000 C 
BRANCH  16  17
ATOM     17  C   UNL     1       2.890   3.673  18.736  0.00  0.00    +0.000 A 
ATOM     18  C   UNL     1       2.486   4.933  19.217  0.00  0.00    +0.000 A 
ATOM     19 CL   UNL     1       2.511   6.386  18.271  0.00  0.00    +0.000 Cl
ATOM     20  C   UNL     1       2.095   5.095  20.554  0.00  0.00    +0.000 A 
ATOM     21  C   UNL     1       2.121   4.020  21.435  0.00  0.00    +0.000 A 
ATOM     22  C   UNL     1       2.551   2.776  20.983  0.00  0.00    +0.000 A 
ATOM     23  C   UNL     1       2.934   2.598  19.645  0.00  0.00    +0.000 A 
ATOM     24 CL   UNL     1       3.432   0.995  19.220  0.00  0.00    +0.000 Cl
ENDBRANCH  16  17
ENDBRANCH  14  16
ENDBRANCH   1  14
TORSDOF 4
ENDMDL
