MODEL 1
REMARK VINA RESULT:      -7.9      0.000      0.000
REMARK  Name = 
REMARK  5 active torsions:
REMARK  status: ('A' for Active; 'I' for Inactive)
REMARK    1  A    between atoms: C_1  and  C_2
REMARK    2  A    between atoms: N_4  and  C_5
REMARK    3  A    between atoms: C_8  and  C_9
REMARK    4  A    between atoms: C_9  and  C_10
REMARK    5  A    between atoms: C_14  and  C_15
REMARK                            x       y       z     vdW  Elec       q    Type
REMARK                         _______ _______ _______ _____ _____    ______ ____
ROOT
ATOM      1  C   UNL     1       4.154   5.362  18.275  0.00  0.00    +0.000 A 
ATOM      2  N   UNL     1       3.735   4.700  17.215  0.00  0.00    +0.000 NA
ATOM      3  C   UNL     1       4.791   4.682  16.346  0.00  0.00    +0.000 A 
ATOM      4  C   UNL     1       4.860   4.147  15.054  0.00  0.00    +0.000 A 
ATOM      5  C   UNL     1       6.059   4.259  14.330  0.00  0.00    +0.000 A 
ATOM      6  C   UNL     1       7.175   4.874  14.928  0.00  0.00    +0.000 A 
ATOM      7  C   UNL     1       7.120   5.420  16.220  0.00  0.00    +0.000 A 
ATOM      8  C   UNL     1       5.900   5.314  16.892  0.00  0.00    +0.000 A 
ATOM      9  N   UNL     1       5.464   5.755  18.120  0.00  0.00    +0.000 N 
ATOM     10  H   UNL     1       5.999   6.299  18.782  0.00  0.00    +0.000 HD
ENDROOT
BRANCH   5  11
ATOM     11  C   UNL     1       6.143   3.738  12.918  0.00  0.00    +0.000 C 
ATOM     12  F   UNL     1       6.473   2.416  12.839  0.00  0.00    +0.000 F 
ATOM     13  F   UNL     1       4.964   3.865  12.247  0.00  0.00    +0.000 F 
ATOM     14  F   UNL     1       7.070   4.396  12.171  0.00  0.00    +0.000 F 
ENDBRANCH   5  11
BRANCH   1  15
ATOM     15  C   UNL     1       3.306   5.741  19.443  0.00  0.00    +0.000 C 
BRANCH  15  19
ATOM     16  C   UNL     1       1.115   9.471  19.031  0.00  0.00    +0.000 A 
ATOM     17  C   UNL     1       1.822   8.910  17.971  0.00  0.00    +0.000 A 
ATOM     18  C   UNL     1       2.537   7.723  18.140  0.00  0.00    +0.000 A 
ATOM     19  C   UNL     1       2.570   7.060  19.375  0.00  0.00    +0.000 A 
ATOM     20  C   UNL     1       1.835   7.611  20.436  0.00  0.00    +0.000 A 
ATOM     21  C   UNL     1       1.132   8.815  20.269  0.00  0.00    +0.000 A 
BRANCH  16  25
ATOM     22  C   UNL     1      -1.263  12.288  18.232  0.00  0.00    +0.000 C 
ATOM     23  C   UNL     1      -0.845  10.844  18.319  0.00  0.00    +0.000 C 
ATOM     24  O   UNL     1      -1.570   9.961  17.872  0.00  0.00    +0.000 OA
ATOM     25  N   UNL     1       0.393  10.679  18.921  0.00  0.00    +0.000 N 
ATOM     26  H   UNL     1       0.797  11.489  19.373  0.00  0.00    +0.000 HD
ENDBRANCH  16  25
ENDBRANCH  15  19
ENDBRANCH   1  15
TORSDOF 4
ENDMDL
MODEL 2
REMARK VINA RESULT:      -7.9      0.150      1.254
REMARK  Name = 
REMARK  5 active torsions:
REMARK  status: ('A' for Active; 'I' for Inactive)
REMARK    1  A    between atoms: C_1  and  C_2
REMARK    2  A    between atoms: N_4  and  C_5
REMARK    3  A    between atoms: C_8  and  C_9
REMARK    4  A    between atoms: C_9  and  C_10
REMARK    5  A    between atoms: C_14  and  C_15
REMARK                            x       y       z     vdW  Elec       q    Type
REMARK                         _______ _______ _______ _____ _____    ______ ____
ROOT
ATOM      1  C   UNL     1       4.246   5.392  18.158  0.00  0.00    +0.000 A 
ATOM      2  N   UNL     1       3.805   4.714  17.117  0.00  0.00    +0.000 NA
ATOM      3  C   UNL     1       4.847   4.676  16.231  0.00  0.00    +0.000 A 
ATOM      4  C   UNL     1       4.891   4.119  14.948  0.00  0.00    +0.000 A 
ATOM      5  C   UNL     1       6.078   4.212  14.202  0.00  0.00    +0.000 A 
ATOM      6  C   UNL     1       7.207   4.833  14.769  0.00  0.00    +0.000 A 
ATOM      7  C   UNL     1       7.176   5.402  16.052  0.00  0.00    +0.000 A 
ATOM      8  C   UNL     1       5.967   5.313  16.747  0.00  0.00    +0.000 A 
ATOM      9  N   UNL     1       5.554   5.777  17.974  0.00  0.00    +0.000 N 
ATOM     10  H   UNL     1       6.102   6.331  18.617  0.00  0.00    +0.000 HD
ENDROOT
BRANCH   5  11
ATOM     11  C   UNL     1       6.135   3.666  12.797  0.00  0.00    +0.000 C 
ATOM     12  F   UNL     1       7.047   4.296  12.001  0.00  0.00    +0.000 F 
ATOM     13  F   UNL     1       6.468   2.346  12.766  0.00  0.00    +0.000 F 
ATOM     14  F   UNL     1       4.944   3.767  12.148  0.00  0.00    +0.000 F 
ENDBRANCH   5  11
BRANCH   1  15
ATOM     15  C   UNL     1       3.419   5.795  19.334  0.00  0.00    +0.000 C 
BRANCH  15  19
ATOM     16  C   UNL     1       1.076   9.452  19.170  0.00  0.00    +0.000 A 
ATOM     17  C   UNL     1       1.194   8.703  20.338  0.00  0.00    +0.000 A 
ATOM     18  C   UNL     1       1.934   7.519  20.354  0.00  0.00    +0.000 A 
ATOM     19  C   UNL     1       2.576   7.044  19.202  0.00  0.00    +0.000 A 
ATOM     20  C   UNL     1       2.480   7.812  18.032  0.00  0.00    +0.000 A 
ATOM     21  C   UNL     1       1.720   8.993  18.013  0.00  0.00    +0.000 A 
BRANCH  16  25
ATOM     22  C   UNL     1      -1.309  12.265  18.378  0.00  0.00    +0.000 C 
ATOM     23  C   UNL     1      -0.847  10.832  18.376  0.00  0.00    +0.000 C 
ATOM     24  O   UNL     1      -1.486   9.975  17.772  0.00  0.00    +0.000 OA
ATOM     25  N   UNL     1       0.324  10.644  19.093  0.00  0.00    +0.000 N 
ATOM     26  H   UNL     1       0.646  11.418  19.660  0.00  0.00    +0.000 HD
ENDBRANCH  16  25
ENDBRANCH  15  19
ENDBRANCH   1  15
TORSDOF 4
ENDMDL
MODEL 3
REMARK VINA RESULT:      -7.8      0.568      1.132
REMARK  Name = 
REMARK  5 active torsions:
REMARK  status: ('A' for Active; 'I' for Inactive)
REMARK    1  A    between atoms: C_1  and  C_2
REMARK    2  A    between atoms: N_4  and  C_5
REMARK    3  A    between atoms: C_8  and  C_9
REMARK    4  A    between atoms: C_9  and  C_10
REMARK    5  A    between atoms: C_14  and  C_15
REMARK                            x       y       z     vdW  Elec       q    Type
REMARK                         _______ _______ _______ _____ _____    ______ ____
ROOT
ATOM      1  C   UNL     1       3.938   5.308  18.711  0.00  0.00    +0.000 A 
ATOM      2  N   UNL     1       3.507   4.963  17.514  0.00  0.00    +0.000 NA
ATOM      3  C   UNL     1       4.629   4.728  16.768  0.00  0.00    +0.000 A 
ATOM      4  C   UNL     1       4.731   4.379  15.416  0.00  0.00    +0.000 A 
ATOM      5  C   UNL     1       6.004   4.201  14.850  0.00  0.00    +0.000 A 
ATOM      6  C   UNL     1       7.149   4.345  15.657  0.00  0.00    +0.000 A 
ATOM      7  C   UNL     1       7.063   4.701  17.012  0.00  0.00    +0.000 A 
ATOM      8  C   UNL     1       5.779   4.897  17.527  0.00  0.00    +0.000 A 
ATOM      9  N   UNL     1       5.313   5.283  18.762  0.00  0.00    +0.000 N 
ATOM     10  H   UNL     1       5.878   5.535  19.560  0.00  0.00    +0.000 HD
ENDROOT
BRANCH   5  11
ATOM     11  C   UNL     1       6.143   3.877  13.383  0.00  0.00    +0.000 C 
ATOM     12  F   UNL     1       6.469   2.575  13.138  0.00  0.00    +0.000 F 
ATOM     13  F   UNL     1       4.993   4.107  12.690  0.00  0.00    +0.000 F 
ATOM     14  F   UNL     1       7.104   4.620  12.771  0.00  0.00    +0.000 F 
ENDBRANCH   5  11
BRANCH   1  15
ATOM     15  C   UNL     1       3.073   5.774  19.835  0.00  0.00    +0.000 C 
BRANCH  15  19
ATOM     16  C   UNL     1       0.964   9.560  19.511  0.00  0.00    +0.000 A 
ATOM     17  C   UNL     1       0.933   8.795  20.675  0.00  0.00    +0.000 A 
ATOM     18  C   UNL     1       1.600   7.571  20.740  0.00  0.00    +0.000 A 
ATOM     19  C   UNL     1       2.318   7.070  19.645  0.00  0.00    +0.000 A 
ATOM     20  C   UNL     1       2.371   7.853  18.482  0.00  0.00    +0.000 A 
ATOM     21  C   UNL     1       1.684   9.075  18.411  0.00  0.00    +0.000 A 
BRANCH  16  25
ATOM     22  C   UNL     1      -1.304  12.457  18.676  0.00  0.00    +0.000 C 
ATOM     23  C   UNL     1      -0.944  10.998  18.787  0.00  0.00    +0.000 C 
ATOM     24  O   UNL     1      -1.707  10.137  18.361  0.00  0.00    +0.000 OA
ATOM     25  N   UNL     1       0.291  10.794  19.383  0.00  0.00    +0.000 N 
ATOM     26  H   UNL     1       0.731  11.595  19.818  0.00  0.00    +0.000 HD
ENDBRANCH  16  25
ENDBRANCH  15  19
ENDBRANCH   1  15
TORSDOF 4
ENDMDL
MODEL 4
REMARK VINA RESULT:      -7.7      4.288      5.861
REMARK  Name = 
REMARK  5 active torsions:
REMARK  status: ('A' for Active; 'I' for Inactive)
REMARK    1  A    between atoms: C_1  and  C_2
REMARK    2  A    between atoms: N_4  and  C_5
REMARK    3  A    between atoms: C_8  and  C_9
REMARK    4  A    between atoms: C_9  and  C_10
REMARK    5  A    between atoms: C_14  and  C_15
REMARK                            x       y       z     vdW  Elec       q    Type
REMARK                         _______ _______ _______ _____ _____    ______ ____
ROOT
ATOM      1  C   UNL     1       2.021   8.725  18.660  0.00  0.00    +0.000 A 
ATOM      2  N   UNL     1       1.763   8.125  19.805  0.00  0.00    +0.000 NA
ATOM      3  C   UNL     1       2.110   6.814  19.625  0.00  0.00    +0.000 A 
ATOM      4  C   UNL     1       1.991   5.742  20.516  0.00  0.00    +0.000 A 
ATOM      5  C   UNL     1       2.402   4.462  20.105  0.00  0.00    +0.000 A 
ATOM      6  C   UNL     1       2.955   4.290  18.822  0.00  0.00    +0.000 A 
ATOM      7  C   UNL     1       3.075   5.355  17.916  0.00  0.00    +0.000 A 
ATOM      8  C   UNL     1       2.626   6.603  18.354  0.00  0.00    +0.000 A 
ATOM      9  N   UNL     1       2.546   7.836  17.749  0.00  0.00    +0.000 N 
ATOM     10  H   UNL     1       2.796   8.049  16.794  0.00  0.00    +0.000 HD
ENDROOT
BRANCH   5  11
ATOM     11  C   UNL     1       2.235   3.281  21.027  0.00  0.00    +0.000 C 
ATOM     12  F   UNL     1       3.140   2.283  20.809  0.00  0.00    +0.000 F 
ATOM     13  F   UNL     1       2.370   3.622  22.338  0.00  0.00    +0.000 F 
ATOM     14  F   UNL     1       1.010   2.700  20.916  0.00  0.00    +0.000 F 
ENDBRANCH   5  11
BRANCH   1  15
ATOM     15  C   UNL     1       1.692  10.145  18.339  0.00  0.00    +0.000 C 
BRANCH  15  19
ATOM     16  C   UNL     1      -2.438  11.494  18.226  0.00  0.00    +0.000 A 
ATOM     17  C   UNL     1      -1.416  12.289  18.737  0.00  0.00    +0.000 A 
ATOM     18  C   UNL     1      -0.103  11.819  18.783  0.00  0.00    +0.000 A 
ATOM     19  C   UNL     1       0.231  10.538  18.322  0.00  0.00    +0.000 A 
ATOM     20  C   UNL     1      -0.794   9.746  17.782  0.00  0.00    +0.000 A 
ATOM     21  C   UNL     1      -2.117  10.214  17.755  0.00  0.00    +0.000 A 
BRANCH  16  25
ATOM     22  C   UNL     1      -5.967  12.468  17.316  0.00  0.00    +0.000 C 
ATOM     23  C   UNL     1      -4.647  11.777  17.096  0.00  0.00    +0.000 C 
ATOM     24  O   UNL     1      -4.422  11.187  16.044  0.00  0.00    +0.000 OA
ATOM     25  N   UNL     1      -3.786  11.911  18.175  0.00  0.00    +0.000 N 
ATOM     26  H   UNL     1      -4.172  12.295  19.027  0.00  0.00    +0.000 HD
ENDBRANCH  16  25
ENDBRANCH  15  19
ENDBRANCH   1  15
TORSDOF 4
ENDMDL
MODEL 5
REMARK VINA RESULT:      -7.7      1.078      1.646
REMARK  Name = 
REMARK  5 active torsions:
REMARK  status: ('A' for Active; 'I' for Inactive)
REMARK    1  A    between atoms: C_1  and  C_2
REMARK    2  A    between atoms: N_4  and  C_5
REMARK    3  A    between atoms: C_8  and  C_9
REMARK    4  A    between atoms: C_9  and  C_10
REMARK    5  A    between atoms: C_14  and  C_15
REMARK                            x       y       z     vdW  Elec       q    Type
REMARK                         _______ _______ _______ _____ _____    ______ ____
ROOT
ATOM      1  C   UNL     1       4.160   5.521  18.240  0.00  0.00    +0.000 A 
ATOM      2  N   UNL     1       3.714   4.861  17.190  0.00  0.00    +0.000 NA
ATOM      3  C   UNL     1       4.771   4.777  16.326  0.00  0.00    +0.000 A 
ATOM      4  C   UNL     1       4.819   4.217  15.044  0.00  0.00    +0.000 A 
ATOM      5  C   UNL     1       6.025   4.259  14.324  0.00  0.00    +0.000 A 
ATOM      6  C   UNL     1       7.166   4.833  14.915  0.00  0.00    +0.000 A 
ATOM      7  C   UNL     1       7.132   5.404  16.197  0.00  0.00    +0.000 A 
ATOM      8  C   UNL     1       5.906   5.367  16.865  0.00  0.00    +0.000 A 
ATOM      9  N   UNL     1       5.488   5.850  18.083  0.00  0.00    +0.000 N 
ATOM     10  H   UNL     1       6.045   6.381  18.737  0.00  0.00    +0.000 HD
ENDROOT
BRANCH   5  11
ATOM     11  C   UNL     1       6.089   3.710  12.921  0.00  0.00    +0.000 C 
ATOM     12  F   UNL     1       7.017   4.325  12.133  0.00  0.00    +0.000 F 
ATOM     13  F   UNL     1       6.402   2.385  12.896  0.00  0.00    +0.000 F 
ATOM     14  F   UNL     1       4.906   3.827  12.259  0.00  0.00    +0.000 F 
ENDBRANCH   5  11
BRANCH   1  15
ATOM     15  C   UNL     1       3.327   5.959  19.398  0.00  0.00    +0.000 C 
BRANCH  15  19
ATOM     16  C   UNL     1       0.972   9.601  19.106  0.00  0.00    +0.000 A 
ATOM     17  C   UNL     1       1.063   8.874  20.290  0.00  0.00    +0.000 A 
ATOM     18  C   UNL     1       1.807   7.694  20.347  0.00  0.00    +0.000 A 
ATOM     19  C   UNL     1       2.482   7.202  19.221  0.00  0.00    +0.000 A 
ATOM     20  C   UNL     1       2.413   7.949  18.035  0.00  0.00    +0.000 A 
ATOM     21  C   UNL     1       1.649   9.125  17.975  0.00  0.00    +0.000 A 
BRANCH  16  25
ATOM     22  C   UNL     1      -0.485  13.077  19.258  0.00  0.00    +0.000 C 
ATOM     23  C   UNL     1       0.617  12.057  19.376  0.00  0.00    +0.000 C 
ATOM     24  O   UNL     1       1.723  12.386  19.793  0.00  0.00    +0.000 OA
ATOM     25  N   UNL     1       0.218  10.788  18.988  0.00  0.00    +0.000 N 
ATOM     26  H   UNL     1      -0.679  10.708  18.525  0.00  0.00    +0.000 HD
ENDBRANCH  16  25
ENDBRANCH  15  19
ENDBRANCH   1  15
TORSDOF 4
ENDMDL
MODEL 6
REMARK VINA RESULT:      -7.7      1.768      2.275
REMARK  Name = 
REMARK  5 active torsions:
REMARK  status: ('A' for Active; 'I' for Inactive)
REMARK    1  A    between atoms: C_1  and  C_2
REMARK    2  A    between atoms: N_4  and  C_5
REMARK    3  A    between atoms: C_8  and  C_9
REMARK    4  A    between atoms: C_9  and  C_10
REMARK    5  A    between atoms: C_14  and  C_15
REMARK                            x       y       z     vdW  Elec       q    Type
REMARK                         _______ _______ _______ _____ _____    ______ ____
ROOT
ATOM      1  C   UNL     1       4.585   4.328  17.908  0.00  0.00    +0.000 A 
ATOM      2  N   UNL     1       4.197   3.721  16.804  0.00  0.00    +0.000 NA
ATOM      3  C   UNL     1       5.165   3.985  15.874  0.00  0.00    +0.000 A 
ATOM      4  C   UNL     1       5.216   3.614  14.526  0.00  0.00    +0.000 A 
ATOM      5  C   UNL     1       6.314   4.016  13.746  0.00  0.00    +0.000 A 
ATOM      6  C   UNL     1       7.355   4.753  14.342  0.00  0.00    +0.000 A 
ATOM      7  C   UNL     1       7.315   5.137  15.692  0.00  0.00    +0.000 A 
ATOM      8  C   UNL     1       6.191   4.743  16.422  0.00  0.00    +0.000 A 
ATOM      9  N   UNL     1       5.792   4.963  17.719  0.00  0.00    +0.000 N 
ATOM     10  H   UNL     1       6.279   5.520  18.407  0.00  0.00    +0.000 HD
ENDROOT
BRANCH   5  11
ATOM     11  C   UNL     1       6.367   3.674  12.278  0.00  0.00    +0.000 C 
ATOM     12  F   UNL     1       7.161   4.509  11.549  0.00  0.00    +0.000 F 
ATOM     13  F   UNL     1       6.846   2.419  12.054  0.00  0.00    +0.000 F 
ATOM     14  F   UNL     1       5.142   3.718  11.687  0.00  0.00    +0.000 F 
ENDBRANCH   5  11
BRANCH   1  15
ATOM     15  C   UNL     1       3.785   4.421  19.164  0.00  0.00    +0.000 C 
BRANCH  15  19
ATOM     16  C   UNL     1       1.488   8.008  20.024  0.00  0.00    +0.000 A 
ATOM     17  C   UNL     1       1.465   6.899  20.865  0.00  0.00    +0.000 A 
ATOM     18  C   UNL     1       2.194   5.751  20.550  0.00  0.00    +0.000 A 
ATOM     19  C   UNL     1       2.967   5.674  19.383  0.00  0.00    +0.000 A 
ATOM     20  C   UNL     1       3.012   6.802  18.549  0.00  0.00    +0.000 A 
ATOM     21  C   UNL     1       2.262   7.948  18.858  0.00  0.00    +0.000 A 
BRANCH  16  25
ATOM     22  C   UNL     1      -0.209  11.058  21.455  0.00  0.00    +0.000 C 
ATOM     23  C   UNL     1       0.820   9.959  21.433  0.00  0.00    +0.000 C 
ATOM     24  O   UNL     1       1.595   9.814  22.373  0.00  0.00    +0.000 OA
ATOM     25  N   UNL     1       0.754   9.186  20.284  0.00  0.00    +0.000 N 
ATOM     26  H   UNL     1       0.163   9.524  19.535  0.00  0.00    +0.000 HD
ENDBRANCH  16  25
ENDBRANCH  15  19
ENDBRANCH   1  15
TORSDOF 4
ENDMDL
MODEL 7
REMARK VINA RESULT:      -7.7      6.968     10.118
REMARK  Name = 
REMARK  5 active torsions:
REMARK  status: ('A' for Active; 'I' for Inactive)
REMARK    1  A    between atoms: C_1  and  C_2
REMARK    2  A    between atoms: N_4  and  C_5
REMARK    3  A    between atoms: C_8  and  C_9
REMARK    4  A    between atoms: C_9  and  C_10
REMARK    5  A    between atoms: C_14  and  C_15
REMARK                            x       y       z     vdW  Elec       q    Type
REMARK                         _______ _______ _______ _____ _____    ______ ____
ROOT
ATOM      1  C   UNL     1      -0.471  10.593  18.361  0.00  0.00    +0.000 A 
ATOM      2  N   UNL     1      -1.353  11.182  19.144  0.00  0.00    +0.000 NA
ATOM      3  C   UNL     1      -2.519  11.219  18.429  0.00  0.00    +0.000 A 
ATOM      4  C   UNL     1      -3.751  11.780  18.783  0.00  0.00    +0.000 A 
ATOM      5  C   UNL     1      -4.820  11.713  17.873  0.00  0.00    +0.000 A 
ATOM      6  C   UNL     1      -4.642  11.056  16.641  0.00  0.00    +0.000 A 
ATOM      7  C   UNL     1      -3.410  10.493  16.270  0.00  0.00    +0.000 A 
ATOM      8  C   UNL     1      -2.367  10.609  17.191  0.00  0.00    +0.000 A 
ATOM      9  N   UNL     1      -1.045  10.231  17.163  0.00  0.00    +0.000 N 
ATOM     10  H   UNL     1      -0.567   9.792  16.390  0.00  0.00    +0.000 HD
ENDROOT
BRANCH   5  11
ATOM     11  C   UNL     1      -6.142  12.356  18.209  0.00  0.00    +0.000 C 
ATOM     12  F   UNL     1      -7.012  12.401  17.159  0.00  0.00    +0.000 F 
ATOM     13  F   UNL     1      -6.799  11.703  19.206  0.00  0.00    +0.000 F 
ATOM     14  F   UNL     1      -6.006  13.643  18.630  0.00  0.00    +0.000 F 
ENDBRANCH   5  11
BRANCH   1  15
ATOM     15  C   UNL     1       0.981  10.435  18.668  0.00  0.00    +0.000 C 
BRANCH  15  19
ATOM     16  C   UNL     1       2.080   6.577  20.342  0.00  0.00    +0.000 A 
ATOM     17  C   UNL     1       1.309   7.496  21.050  0.00  0.00    +0.000 A 
ATOM     18  C   UNL     1       0.993   8.738  20.495  0.00  0.00    +0.000 A 
ATOM     19  C   UNL     1       1.439   9.102  19.217  0.00  0.00    +0.000 A 
ATOM     20  C   UNL     1       2.192   8.166  18.493  0.00  0.00    +0.000 A 
ATOM     21  C   UNL     1       2.526   6.926  19.060  0.00  0.00    +0.000 A 
BRANCH  16  25
ATOM     22  C   UNL     1       2.301   3.031  21.606  0.00  0.00    +0.000 C 
ATOM     23  C   UNL     1       1.686   4.159  20.820  0.00  0.00    +0.000 C 
ATOM     24  O   UNL     1       0.617   4.001  20.239  0.00  0.00    +0.000 OA
ATOM     25  N   UNL     1       2.446   5.318  20.862  0.00  0.00    +0.000 N 
ATOM     26  H   UNL     1       3.376   5.245  21.255  0.00  0.00    +0.000 HD
ENDBRANCH  16  25
ENDBRANCH  15  19
ENDBRANCH   1  15
TORSDOF 4
ENDMDL
MODEL 8
REMARK VINA RESULT:      -7.6      1.195      1.422
REMARK  Name = 
REMARK  5 active torsions:
REMARK  status: ('A' for Active; 'I' for Inactive)
REMARK    1  A    between atoms: C_1  and  C_2
REMARK    2  A    between atoms: N_4  and  C_5
REMARK    3  A    between atoms: C_8  and  C_9
REMARK    4  A    between atoms: C_9  and  C_10
REMARK    5  A    between atoms: C_14  and  C_15
REMARK                            x       y       z     vdW  Elec       q    Type
REMARK                         _______ _______ _______ _____ _____    ______ ____
ROOT
ATOM      1  C   UNL     1       3.902   5.541  18.659  0.00  0.00    +0.000 A 
ATOM      2  N   UNL     1       3.492   5.115  17.481  0.00  0.00    +0.000 NA
ATOM      3  C   UNL     1       4.626   4.890  16.750  0.00  0.00    +0.000 A 
ATOM      4  C   UNL     1       4.748   4.475  15.419  0.00  0.00    +0.000 A 
ATOM      5  C   UNL     1       6.031   4.324  14.865  0.00  0.00    +0.000 A 
ATOM      6  C   UNL     1       7.165   4.560  15.665  0.00  0.00    +0.000 A 
ATOM      7  C   UNL     1       7.058   4.983  17.000  0.00  0.00    +0.000 A 
ATOM      8  C   UNL     1       5.764   5.149  17.501  0.00  0.00    +0.000 A 
ATOM      9  N   UNL     1       5.277   5.579  18.713  0.00  0.00    +0.000 N 
ATOM     10  H   UNL     1       5.827   5.898  19.498  0.00  0.00    +0.000 HD
ENDROOT
BRANCH   5  11
ATOM     11  C   UNL     1       6.189   3.929  13.418  0.00  0.00    +0.000 C 
ATOM     12  F   UNL     1       7.153   4.635  12.759  0.00  0.00    +0.000 F 
ATOM     13  F   UNL     1       6.526   2.618  13.272  0.00  0.00    +0.000 F 
ATOM     14  F   UNL     1       5.047   4.104  12.700  0.00  0.00    +0.000 F 
ENDBRANCH   5  11
BRANCH   1  15
ATOM     15  C   UNL     1       3.014   6.027  19.755  0.00  0.00    +0.000 C 
BRANCH  15  19
ATOM     16  C   UNL     1       0.970   9.784  18.978  0.00  0.00    +0.000 A 
ATOM     17  C   UNL     1       1.695   9.120  17.991  0.00  0.00    +0.000 A 
ATOM     18  C   UNL     1       2.361   7.928  18.277  0.00  0.00    +0.000 A 
ATOM     19  C   UNL     1       2.328   7.361  19.559  0.00  0.00    +0.000 A 
ATOM     20  C   UNL     1       1.575   8.015  20.547  0.00  0.00    +0.000 A 
ATOM     21  C   UNL     1       0.921   9.225  20.262  0.00  0.00    +0.000 A 
BRANCH  16  25
ATOM     22  C   UNL     1      -0.164  13.365  18.633  0.00  0.00    +0.000 C 
ATOM     23  C   UNL     1       0.861  12.268  18.755  0.00  0.00    +0.000 C 
ATOM     24  O   UNL     1       2.053  12.541  18.858  0.00  0.00    +0.000 OA
ATOM     25  N   UNL     1       0.296  11.002  18.750  0.00  0.00    +0.000 N 
ATOM     26  H   UNL     1      -0.684  10.937  18.505  0.00  0.00    +0.000 HD
ENDBRANCH  16  25
ENDBRANCH  15  19
ENDBRANCH   1  15
TORSDOF 4
ENDMDL
MODEL 9
REMARK VINA RESULT:      -7.6      6.525      9.916
REMARK  Name = 
REMARK  5 active torsions:
REMARK  status: ('A' for Active; 'I' for Inactive)
REMARK    1  A    between atoms: C_1  and  C_2
REMARK    2  A    between atoms: N_4  and  C_5
REMARK    3  A    between atoms: C_8  and  C_9
REMARK    4  A    between atoms: C_9  and  C_10
REMARK    5  A    between atoms: C_14  and  C_15
REMARK                            x       y       z     vdW  Elec       q    Type
REMARK                         _______ _______ _______ _____ _____    ______ ____
ROOT
ATOM      1  C   UNL     1      -0.348  10.465  18.642  0.00  0.00    +0.000 A 
ATOM      2  N   UNL     1      -1.316  11.076  19.295  0.00  0.00    +0.000 NA
ATOM      3  C   UNL     1      -2.371  11.135  18.426  0.00  0.00    +0.000 A 
ATOM      4  C   UNL     1      -3.628  11.725  18.605  0.00  0.00    +0.000 A 
ATOM      5  C   UNL     1      -4.562  11.678  17.557  0.00  0.00    +0.000 A 
ATOM      6  C   UNL     1      -4.230  11.013  16.361  0.00  0.00    +0.000 A 
ATOM      7  C   UNL     1      -2.971  10.422  16.165  0.00  0.00    +0.000 A 
ATOM      8  C   UNL     1      -2.063  10.518  17.221  0.00  0.00    +0.000 A 
ATOM      9  N   UNL     1      -0.759  10.110  17.376  0.00  0.00    +0.000 N 
ATOM     10  H   UNL     1      -0.188   9.658  16.677  0.00  0.00    +0.000 HD
ENDROOT
BRANCH   5  11
ATOM     11  C   UNL     1      -5.903  12.352  17.706  0.00  0.00    +0.000 C 
ATOM     12  F   UNL     1      -6.049  13.027  18.882  0.00  0.00    +0.000 F 
ATOM     13  F   UNL     1      -6.136  13.266  16.724  0.00  0.00    +0.000 F 
ATOM     14  F   UNL     1      -6.939  11.472  17.652  0.00  0.00    +0.000 F 
ENDBRANCH   5  11
BRANCH   1  15
ATOM     15  C   UNL     1       1.044  10.276  19.147  0.00  0.00    +0.000 C 
BRANCH  15  19
ATOM     16  C   UNL     1       2.857   6.328  19.003  0.00  0.00    +0.000 A 
ATOM     17  C   UNL     1       2.930   7.214  17.930  0.00  0.00    +0.000 A 
ATOM     18  C   UNL     1       2.317   8.466  17.997  0.00  0.00    +0.000 A 
ATOM     19  C   UNL     1       1.608   8.872  19.136  0.00  0.00    +0.000 A 
ATOM     20  C   UNL     1       1.557   7.991  20.227  0.00  0.00    +0.000 A 
ATOM     21  C   UNL     1       2.159   6.725  20.151  0.00  0.00    +0.000 A 
BRANCH  16  25
ATOM     22  C   UNL     1       3.688   2.657  18.758  0.00  0.00    +0.000 C 
ATOM     23  C   UNL     1       2.862   3.886  18.484  0.00  0.00    +0.000 C 
ATOM     24  O   UNL     1       1.793   3.796  17.888  0.00  0.00    +0.000 OA
ATOM     25  N   UNL     1       3.441   5.043  18.981  0.00  0.00    +0.000 N 
ATOM     26  H   UNL     1       4.395   4.976  19.313  0.00  0.00    +0.000 HD
ENDBRANCH  16  25
ENDBRANCH  15  19
ENDBRANCH   1  15
TORSDOF 4
ENDMDL
