MODEL 1
REMARK VINA RESULT:      -7.7      0.000      0.000
REMARK  Name = 
REMARK  5 active torsions:
REMARK  status: ('A' for Active; 'I' for Inactive)
REMARK    1  A    between atoms: C_1  and  C_2
REMARK    2  A    between atoms: N_4  and  C_5
REMARK    3  A    between atoms: C_5  and  C_6
REMARK    4  A    between atoms: N_8  and  C_9
REMARK    5  A    between atoms: C_13  and  C_15
REMARK                            x       y       z     vdW  Elec       q    Type
REMARK                         _______ _______ _______ _____ _____    ______ ____
ROOT
ATOM      1  C   UNL     1       2.439   5.072  19.081  0.00  0.00    +0.000 C 
ATOM      2  O   UNL     1       1.446   4.849  19.773  0.00  0.00    +0.000 OA
ATOM      3  N   UNL     1       2.713   6.328  18.565  0.00  0.00    +0.000 N 
ATOM      4  H   UNL     1       3.383   6.413  17.809  0.00  0.00    +0.000 HD
ENDROOT
BRANCH   3   5
ATOM      5  C   UNL     1       1.819   7.443  18.852  0.00  0.00    +0.000 C 
ATOM      6  C   UNL     1       1.965   7.954  20.287  0.00  0.00    +0.000 C 
ATOM      7  C   UNL     1       0.922   9.043  20.549  0.00  0.00    +0.000 C 
ATOM      8  N   UNL     1       1.003  10.109  19.549  0.00  0.00    +0.000 N 
ATOM      9  C   UNL     1       0.990  11.431  19.988  0.00  0.00    +0.000 C 
ATOM     10  O   UNL     1       0.977  11.731  21.179  0.00  0.00    +0.000 OA
ATOM     11  C   UNL     1       0.942   9.668  18.153  0.00  0.00    +0.000 C 
ATOM     12  C   UNL     1       2.004   8.607  17.874  0.00  0.00    +0.000 C 
BRANCH   9  13
ATOM     13  C   UNL     1       1.052  12.527  18.971  0.00  0.00    +0.000 C 
ATOM     14  C   UNL     1       1.532  13.912  19.348  0.00  0.00    +0.000 C 
ATOM     15  C   UNL     1       2.412  13.021  18.524  0.00  0.00    +0.000 C 
ENDBRANCH   9  13
ENDBRANCH   3   5
BRANCH   1  16
ATOM     16  C   UNL     1       3.490   4.012  18.832  0.00  0.00    +0.000 C 
BRANCH  16  20
ATOM     17  C   UNL     1       8.104   5.924  19.207  0.00  0.00    +0.000 C 
ATOM     18  C   UNL     1       6.853   5.365  18.632  0.00  0.00    +0.000 A 
ATOM     19  C   UNL     1       5.706   5.033  19.325  0.00  0.00    +0.000 A 
ATOM     20  N   UNL     1       4.785   4.543  18.434  0.00  0.00    +0.000 N 
ATOM     21  C   UNL     1       5.326   4.507  17.164  0.00  0.00    +0.000 A 
ATOM     22  C   UNL     1       4.806   4.050  15.941  0.00  0.00    +0.000 A 
ATOM     23  C   UNL     1       5.603   4.163  14.799  0.00  0.00    +0.000 A 
ATOM     24  C   UNL     1       6.881   4.706  14.867  0.00  0.00    +0.000 A 
ATOM     25  C   UNL     1       7.399   5.143  16.090  0.00  0.00    +0.000 A 
ATOM     26  C   UNL     1       6.615   5.043  17.260  0.00  0.00    +0.000 A 
ENDBRANCH  16  20
ENDBRANCH   1  16
TORSDOF 4
ENDMDL
MODEL 2
REMARK VINA RESULT:      -7.5      5.725      7.191
REMARK  Name = 
REMARK  5 active torsions:
REMARK  status: ('A' for Active; 'I' for Inactive)
REMARK    1  A    between atoms: C_1  and  C_2
REMARK    2  A    between atoms: N_4  and  C_5
REMARK    3  A    between atoms: C_5  and  C_6
REMARK    4  A    between atoms: N_8  and  C_9
REMARK    5  A    between atoms: C_13  and  C_15
REMARK                            x       y       z     vdW  Elec       q    Type
REMARK                         _______ _______ _______ _____ _____    ______ ____
ROOT
ATOM      1  C   UNL     1       7.980   8.036  18.152  0.00  0.00    +0.000 C 
ATOM      2  O   UNL     1       7.219   8.633  17.391  0.00  0.00    +0.000 OA
ATOM      3  N   UNL     1       8.893   8.701  18.954  0.00  0.00    +0.000 N 
ATOM      4  H   UNL     1       9.657   8.177  19.367  0.00  0.00    +0.000 HD
ENDROOT
BRANCH   3   5
ATOM      5  C   UNL     1       8.963  10.156  18.924  0.00  0.00    +0.000 C 
ATOM      6  C   UNL     1       9.384  10.749  20.271  0.00  0.00    +0.000 C 
ATOM      7  C   UNL     1       9.326  12.276  20.197  0.00  0.00    +0.000 C 
ATOM      8  N   UNL     1      10.117  12.784  19.074  0.00  0.00    +0.000 N 
ATOM      9  C   UNL     1      10.979  13.855  19.303  0.00  0.00    +0.000 C 
ATOM     10  O   UNL     1      11.146  14.342  20.417  0.00  0.00    +0.000 OA
ATOM     11  C   UNL     1       9.804  12.198  17.768  0.00  0.00    +0.000 C 
ATOM     12  C   UNL     1       9.896  10.674  17.825  0.00  0.00    +0.000 C 
BRANCH   9  13
ATOM     13  C   UNL     1      11.775  14.394  18.156  0.00  0.00    +0.000 C 
ATOM     14  C   UNL     1      11.216  15.481  17.263  0.00  0.00    +0.000 C 
ATOM     15  C   UNL     1      12.299  15.812  18.245  0.00  0.00    +0.000 C 
ENDBRANCH   9  13
ENDBRANCH   3   5
BRANCH   1  16
ATOM     16  C   UNL     1       7.897   6.537  18.347  0.00  0.00    +0.000 C 
BRANCH  16  20
ATOM     17  C   UNL     1       5.738   4.274  14.437  0.00  0.00    +0.000 C 
ATOM     18  C   UNL     1       5.950   4.853  15.789  0.00  0.00    +0.000 A 
ATOM     19  C   UNL     1       7.074   5.523  16.229  0.00  0.00    +0.000 A 
ATOM     20  N   UNL     1       6.878   5.889  17.537  0.00  0.00    +0.000 N 
ATOM     21  C   UNL     1       5.654   5.431  17.979  0.00  0.00    +0.000 A 
ATOM     22  C   UNL     1       5.028   5.507  19.236  0.00  0.00    +0.000 A 
ATOM     23  C   UNL     1       3.752   4.952  19.374  0.00  0.00    +0.000 A 
ATOM     24  C   UNL     1       3.119   4.332  18.303  0.00  0.00    +0.000 A 
ATOM     25  C   UNL     1       3.755   4.245  17.060  0.00  0.00    +0.000 A 
ATOM     26  C   UNL     1       5.042   4.799  16.891  0.00  0.00    +0.000 A 
ENDBRANCH  16  20
ENDBRANCH   1  16
TORSDOF 4
ENDMDL
MODEL 3
REMARK VINA RESULT:      -7.3      0.564      2.118
REMARK  Name = 
REMARK  5 active torsions:
REMARK  status: ('A' for Active; 'I' for Inactive)
REMARK    1  A    between atoms: C_1  and  C_2
REMARK    2  A    between atoms: N_4  and  C_5
REMARK    3  A    between atoms: C_5  and  C_6
REMARK    4  A    between atoms: N_8  and  C_9
REMARK    5  A    between atoms: C_13  and  C_15
REMARK                            x       y       z     vdW  Elec       q    Type
REMARK                         _______ _______ _______ _____ _____    ______ ____
ROOT
ATOM      1  C   UNL     1       2.186   4.856  19.141  0.00  0.00    +0.000 C 
ATOM      2  O   UNL     1       1.082   4.660  19.647  0.00  0.00    +0.000 OA
ATOM      3  N   UNL     1       2.620   6.121  18.780  0.00  0.00    +0.000 N 
ATOM      4  H   UNL     1       3.409   6.209  18.149  0.00  0.00    +0.000 HD
ENDROOT
BRANCH   3   5
ATOM      5  C   UNL     1       1.763   7.278  19.013  0.00  0.00    +0.000 C 
ATOM      6  C   UNL     1       1.927   7.851  20.422  0.00  0.00    +0.000 C 
ATOM      7  C   UNL     1       0.921   8.985  20.632  0.00  0.00    +0.000 C 
ATOM      8  N   UNL     1       1.037   9.999  19.582  0.00  0.00    +0.000 N 
ATOM      9  C   UNL     1       1.068  11.340  19.959  0.00  0.00    +0.000 C 
ATOM     10  O   UNL     1       1.065  11.697  21.134  0.00  0.00    +0.000 OA
ATOM     11  C   UNL     1       0.960   9.495  18.209  0.00  0.00    +0.000 C 
ATOM     12  C   UNL     1       1.986   8.387  17.982  0.00  0.00    +0.000 C 
BRANCH   9  13
ATOM     13  C   UNL     1       1.165  12.385  18.891  0.00  0.00    +0.000 C 
ATOM     14  C   UNL     1       1.465  13.827  19.239  0.00  0.00    +0.000 C 
ATOM     15  C   UNL     1       2.523  12.984  18.590  0.00  0.00    +0.000 C 
ENDBRANCH   9  13
ENDBRANCH   3   5
BRANCH   1  16
ATOM     16  C   UNL     1       3.195   3.740  18.975  0.00  0.00    +0.000 C 
BRANCH  16  20
ATOM     17  C   UNL     1       5.510   4.226  14.561  0.00  0.00    +0.000 C 
ATOM     18  C   UNL     1       5.239   4.264  16.022  0.00  0.00    +0.000 A 
ATOM     19  C   UNL     1       4.107   3.797  16.660  0.00  0.00    +0.000 A 
ATOM     20  N   UNL     1       4.242   4.026  18.007  0.00  0.00    +0.000 N 
ATOM     21  C   UNL     1       5.432   4.678  18.260  0.00  0.00    +0.000 A 
ATOM     22  C   UNL     1       5.993   5.165  19.453  0.00  0.00    +0.000 A 
ATOM     23  C   UNL     1       7.247   5.778  19.393  0.00  0.00    +0.000 A 
ATOM     24  C   UNL     1       7.923   5.912  18.186  0.00  0.00    +0.000 A 
ATOM     25  C   UNL     1       7.352   5.440  17.000  0.00  0.00    +0.000 A 
ATOM     26  C   UNL     1       6.087   4.815  17.031  0.00  0.00    +0.000 A 
ENDBRANCH  16  20
ENDBRANCH   1  16
TORSDOF 4
ENDMDL
MODEL 4
REMARK VINA RESULT:      -7.2      3.668      4.920
REMARK  Name = 
REMARK  5 active torsions:
REMARK  status: ('A' for Active; 'I' for Inactive)
REMARK    1  A    between atoms: C_1  and  C_2
REMARK    2  A    between atoms: N_4  and  C_5
REMARK    3  A    between atoms: C_5  and  C_6
REMARK    4  A    between atoms: N_8  and  C_9
REMARK    5  A    between atoms: C_13  and  C_15
REMARK                            x       y       z     vdW  Elec       q    Type
REMARK                         _______ _______ _______ _____ _____    ______ ____
ROOT
ATOM      1  C   UNL     1       1.623   8.827  18.518  0.00  0.00    +0.000 C 
ATOM      2  O   UNL     1       1.772   9.098  17.327  0.00  0.00    +0.000 OA
ATOM      3  N   UNL     1       0.607   9.379  19.281  0.00  0.00    +0.000 N 
ATOM      4  H   UNL     1       0.669   9.331  20.292  0.00  0.00    +0.000 HD
ENDROOT
BRANCH   3   5
ATOM      5  C   UNL     1      -0.341  10.303  18.670  0.00  0.00    +0.000 C 
ATOM      6  C   UNL     1      -1.216   9.627  17.612  0.00  0.00    +0.000 C 
ATOM      7  C   UNL     1      -2.102  10.676  16.937  0.00  0.00    +0.000 C 
ATOM      8  N   UNL     1      -2.876  11.432  17.924  0.00  0.00    +0.000 N 
ATOM      9  C   UNL     1      -4.236  11.628  17.690  0.00  0.00    +0.000 C 
ATOM     10  O   UNL     1      -4.817  11.138  16.726  0.00  0.00    +0.000 OA
ATOM     11  C   UNL     1      -2.094  12.042  19.003  0.00  0.00    +0.000 C 
ATOM     12  C   UNL     1      -1.233  10.994  19.705  0.00  0.00    +0.000 C 
BRANCH   9  13
ATOM     13  C   UNL     1      -5.029  12.418  18.683  0.00  0.00    +0.000 C 
ATOM     14  C   UNL     1      -6.503  12.686  18.465  0.00  0.00    +0.000 C 
ATOM     15  C   UNL     1      -6.075  11.697  19.508  0.00  0.00    +0.000 C 
ENDBRANCH   9  13
ENDBRANCH   3   5
BRANCH   1  16
ATOM     16  C   UNL     1       2.476   7.785  19.210  0.00  0.00    +0.000 C 
BRANCH  16  20
ATOM     17  C   UNL     1       5.669   5.759  15.927  0.00  0.00    +0.000 C 
ATOM     18  C   UNL     1       4.531   5.922  16.869  0.00  0.00    +0.000 A 
ATOM     19  C   UNL     1       4.169   7.080  17.527  0.00  0.00    +0.000 A 
ATOM     20  N   UNL     1       3.073   6.812  18.308  0.00  0.00    +0.000 N 
ATOM     21  C   UNL     1       2.732   5.479  18.204  0.00  0.00    +0.000 A 
ATOM     22  C   UNL     1       1.730   4.721  18.836  0.00  0.00    +0.000 A 
ATOM     23  C   UNL     1       1.619   3.367  18.507  0.00  0.00    +0.000 A 
ATOM     24  C   UNL     1       2.478   2.779  17.586  0.00  0.00    +0.000 A 
ATOM     25  C   UNL     1       3.483   3.536  16.974  0.00  0.00    +0.000 A 
ATOM     26  C   UNL     1       3.618   4.906  17.286  0.00  0.00    +0.000 A 
ENDBRANCH  16  20
ENDBRANCH   1  16
TORSDOF 4
ENDMDL
MODEL 5
REMARK VINA RESULT:      -7.1      5.758      7.027
REMARK  Name = 
REMARK  5 active torsions:
REMARK  status: ('A' for Active; 'I' for Inactive)
REMARK    1  A    between atoms: C_1  and  C_2
REMARK    2  A    between atoms: N_4  and  C_5
REMARK    3  A    between atoms: C_5  and  C_6
REMARK    4  A    between atoms: N_8  and  C_9
REMARK    5  A    between atoms: C_13  and  C_15
REMARK                            x       y       z     vdW  Elec       q    Type
REMARK                         _______ _______ _______ _____ _____    ______ ____
ROOT
ATOM      1  C   UNL     1       8.124   8.090  18.133  0.00  0.00    +0.000 C 
ATOM      2  O   UNL     1       7.506   8.665  17.237  0.00  0.00    +0.000 OA
ATOM      3  N   UNL     1       8.900   8.775  19.052  0.00  0.00    +0.000 N 
ATOM      4  H   UNL     1       9.579   8.261  19.603  0.00  0.00    +0.000 HD
ENDROOT
BRANCH   3   5
ATOM      5  C   UNL     1       8.991  10.229  18.988  0.00  0.00    +0.000 C 
ATOM      6  C   UNL     1       9.377  10.850  20.332  0.00  0.00    +0.000 C 
ATOM      7  C   UNL     1       9.342  12.376  20.218  0.00  0.00    +0.000 C 
ATOM      8  N   UNL     1      10.175  12.845  19.108  0.00  0.00    +0.000 N 
ATOM      9  C   UNL     1      11.044  13.910  19.337  0.00  0.00    +0.000 C 
ATOM     10  O   UNL     1      11.182  14.423  20.444  0.00  0.00    +0.000 OA
ATOM     11  C   UNL     1       9.897  12.228  17.808  0.00  0.00    +0.000 C 
ATOM     12  C   UNL     1       9.965  10.706  17.906  0.00  0.00    +0.000 C 
BRANCH   9  13
ATOM     13  C   UNL     1      11.884  14.409  18.203  0.00  0.00    +0.000 C 
ATOM     14  C   UNL     1      11.259  15.143  17.037  0.00  0.00    +0.000 C 
ATOM     15  C   UNL     1      12.068  15.903  18.045  0.00  0.00    +0.000 C 
ENDBRANCH   9  13
ENDBRANCH   3   5
BRANCH   1  16
ATOM     16  C   UNL     1       7.993   6.599  18.359  0.00  0.00    +0.000 C 
BRANCH  16  20
ATOM     17  C   UNL     1       3.128   5.482  17.957  0.00  0.00    +0.000 C 
ATOM     18  C   UNL     1       4.582   5.570  17.664  0.00  0.00    +0.000 A 
ATOM     19  C   UNL     1       5.549   6.140  18.468  0.00  0.00    +0.000 A 
ATOM     20  N   UNL     1       6.763   6.025  17.837  0.00  0.00    +0.000 N 
ATOM     21  C   UNL     1       6.601   5.423  16.606  0.00  0.00    +0.000 A 
ATOM     22  C   UNL     1       7.520   5.132  15.582  0.00  0.00    +0.000 A 
ATOM     23  C   UNL     1       7.050   4.488  14.434  0.00  0.00    +0.000 A 
ATOM     24  C   UNL     1       5.709   4.149  14.300  0.00  0.00    +0.000 A 
ATOM     25  C   UNL     1       4.797   4.456  15.315  0.00  0.00    +0.000 A 
ATOM     26  C   UNL     1       5.244   5.105  16.486  0.00  0.00    +0.000 A 
ENDBRANCH  16  20
ENDBRANCH   1  16
TORSDOF 4
ENDMDL
MODEL 6
REMARK VINA RESULT:      -7.1      3.202      9.228
REMARK  Name = 
REMARK  5 active torsions:
REMARK  status: ('A' for Active; 'I' for Inactive)
REMARK    1  A    between atoms: C_1  and  C_2
REMARK    2  A    between atoms: N_4  and  C_5
REMARK    3  A    between atoms: C_5  and  C_6
REMARK    4  A    between atoms: N_8  and  C_9
REMARK    5  A    between atoms: C_13  and  C_15
REMARK                            x       y       z     vdW  Elec       q    Type
REMARK                         _______ _______ _______ _____ _____    ______ ____
ROOT
ATOM      1  C   UNL     1       0.726  11.858  19.108  0.00  0.00    +0.000 C 
ATOM      2  O   UNL     1       1.515  12.067  20.030  0.00  0.00    +0.000 OA
ATOM      3  N   UNL     1       0.635  10.628  18.478  0.00  0.00    +0.000 N 
ATOM      4  H   UNL     1       0.169  10.569  17.580  0.00  0.00    +0.000 HD
ENDROOT
BRANCH   3   5
ATOM      5  C   UNL     1       1.480   9.523  18.915  0.00  0.00    +0.000 C 
ATOM      6  C   UNL     1       0.903   8.792  20.130  0.00  0.00    +0.000 C 
ATOM      7  C   UNL     1       1.893   7.724  20.599  0.00  0.00    +0.000 C 
ATOM      8  N   UNL     1       2.258   6.820  19.506  0.00  0.00    +0.000 N 
ATOM      9  C   UNL     1       2.246   5.448  19.749  0.00  0.00    +0.000 C 
ATOM     10  O   UNL     1       1.882   4.971  20.820  0.00  0.00    +0.000 OA
ATOM     11  C   UNL     1       2.749   7.472  18.289  0.00  0.00    +0.000 C 
ATOM     12  C   UNL     1       1.750   8.515  17.794  0.00  0.00    +0.000 C 
BRANCH   9  13
ATOM     13  C   UNL     1       2.638   4.519  18.643  0.00  0.00    +0.000 C 
ATOM     14  C   UNL     1       2.190   3.074  18.646  0.00  0.00    +0.000 C 
ATOM     15  C   UNL     1       1.566   4.043  17.686  0.00  0.00    +0.000 C 
ENDBRANCH   9  13
ENDBRANCH   3   5
BRANCH   1  16
ATOM     16  C   UNL     1      -0.278  12.902  18.667  0.00  0.00    +0.000 C 
BRANCH  16  20
ATOM     17  C   UNL     1      -4.407  13.106  21.493  0.00  0.00    +0.000 C 
ATOM     18  C   UNL     1      -3.474  12.782  20.383  0.00  0.00    +0.000 A 
ATOM     19  C   UNL     1      -2.139  13.123  20.305  0.00  0.00    +0.000 A 
ATOM     20  N   UNL     1      -1.636  12.646  19.120  0.00  0.00    +0.000 N 
ATOM     21  C   UNL     1      -2.636  12.030  18.395  0.00  0.00    +0.000 A 
ATOM     22  C   UNL     1      -2.633  11.438  17.120  0.00  0.00    +0.000 A 
ATOM     23  C   UNL     1      -3.821  10.869  16.652  0.00  0.00    +0.000 A 
ATOM     24  C   UNL     1      -4.980  10.894  17.420  0.00  0.00    +0.000 A 
ATOM     25  C   UNL     1      -4.980  11.500  18.680  0.00  0.00    +0.000 A 
ATOM     26  C   UNL     1      -3.794  12.080  19.179  0.00  0.00    +0.000 A 
ENDBRANCH  16  20
ENDBRANCH   1  16
TORSDOF 4
ENDMDL
MODEL 7
REMARK VINA RESULT:      -7.0      3.692      5.351
REMARK  Name = 
REMARK  5 active torsions:
REMARK  status: ('A' for Active; 'I' for Inactive)
REMARK    1  A    between atoms: C_1  and  C_2
REMARK    2  A    between atoms: N_4  and  C_5
REMARK    3  A    between atoms: C_5  and  C_6
REMARK    4  A    between atoms: N_8  and  C_9
REMARK    5  A    between atoms: C_13  and  C_15
REMARK                            x       y       z     vdW  Elec       q    Type
REMARK                         _______ _______ _______ _____ _____    ______ ____
ROOT
ATOM      1  C   UNL     1       1.528   8.798  18.839  0.00  0.00    +0.000 C 
ATOM      2  O   UNL     1       1.699   8.916  17.625  0.00  0.00    +0.000 OA
ATOM      3  N   UNL     1       0.524   9.473  19.513  0.00  0.00    +0.000 N 
ATOM      4  H   UNL     1       0.574   9.548  20.523  0.00  0.00    +0.000 HD
ENDROOT
BRANCH   3   5
ATOM      5  C   UNL     1      -0.385  10.346  18.780  0.00  0.00    +0.000 C 
ATOM      6  C   UNL     1      -1.112   9.615  17.649  0.00  0.00    +0.000 C 
ATOM      7  C   UNL     1      -1.958  10.614  16.856  0.00  0.00    +0.000 C 
ATOM      8  N   UNL     1      -2.863  11.358  17.734  0.00  0.00    +0.000 N 
ATOM      9  C   UNL     1      -4.195  11.495  17.349  0.00  0.00    +0.000 C 
ATOM     10  O   UNL     1      -4.648  10.963  16.339  0.00  0.00    +0.000 OA
ATOM     11  C   UNL     1      -2.228  12.020  18.877  0.00  0.00    +0.000 C 
ATOM     12  C   UNL     1      -1.411  11.022  19.694  0.00  0.00    +0.000 C 
BRANCH   9  13
ATOM     13  C   UNL     1      -5.122  12.272  18.230  0.00  0.00    +0.000 C 
ATOM     14  C   UNL     1      -6.609  12.313  17.951  0.00  0.00    +0.000 C 
ATOM     15  C   UNL     1      -6.092  11.510  19.108  0.00  0.00    +0.000 C 
ENDBRANCH   9  13
ENDBRANCH   3   5
BRANCH   1  16
ATOM     16  C   UNL     1       2.337   7.822  19.665  0.00  0.00    +0.000 C 
BRANCH  16  20
ATOM     17  C   UNL     1       4.510   4.557  16.551  0.00  0.00    +0.000 C 
ATOM     18  C   UNL     1       3.637   5.127  17.610  0.00  0.00    +0.000 A 
ATOM     19  C   UNL     1       3.533   6.458  17.960  0.00  0.00    +0.000 A 
ATOM     20  N   UNL     1       2.628   6.569  18.986  0.00  0.00    +0.000 N 
ATOM     21  C   UNL     1       2.164   5.319  19.345  0.00  0.00    +0.000 A 
ATOM     22  C   UNL     1       1.276   4.909  20.355  0.00  0.00    +0.000 A 
ATOM     23  C   UNL     1       0.981   3.547  20.464  0.00  0.00    +0.000 A 
ATOM     24  C   UNL     1       1.554   2.618  19.603  0.00  0.00    +0.000 A 
ATOM     25  C   UNL     1       2.449   3.031  18.611  0.00  0.00    +0.000 A 
ATOM     26  C   UNL     1       2.764   4.400  18.477  0.00  0.00    +0.000 A 
ENDBRANCH  16  20
ENDBRANCH   1  16
TORSDOF 4
ENDMDL
MODEL 8
REMARK VINA RESULT:      -7.0      2.624      4.065
REMARK  Name = 
REMARK  5 active torsions:
REMARK  status: ('A' for Active; 'I' for Inactive)
REMARK    1  A    between atoms: C_1  and  C_2
REMARK    2  A    between atoms: N_4  and  C_5
REMARK    3  A    between atoms: C_5  and  C_6
REMARK    4  A    between atoms: N_8  and  C_9
REMARK    5  A    between atoms: C_13  and  C_15
REMARK                            x       y       z     vdW  Elec       q    Type
REMARK                         _______ _______ _______ _____ _____    ______ ____
ROOT
ATOM      1  C   UNL     1       1.955   8.091  18.970  0.00  0.00    +0.000 C 
ATOM      2  O   UNL     1       2.283   7.581  20.042  0.00  0.00    +0.000 OA
ATOM      3  N   UNL     1       1.314   9.317  18.901  0.00  0.00    +0.000 N 
ATOM      4  H   UNL     1       0.844   9.578  18.041  0.00  0.00    +0.000 HD
ENDROOT
BRANCH   3   5
ATOM      5  C   UNL     1       1.024  10.056  20.123  0.00  0.00    +0.000 C 
ATOM      6  C   UNL     1       1.017  11.570  19.903  0.00  0.00    +0.000 C 
ATOM      7  C   UNL     1       0.819  12.281  21.244  0.00  0.00    +0.000 C 
ATOM      8  N   UNL     1      -0.380  11.795  21.930  0.00  0.00    +0.000 N 
ATOM      9  C   UNL     1      -1.257  12.732  22.474  0.00  0.00    +0.000 C 
ATOM     10  O   UNL     1      -1.093  13.942  22.344  0.00  0.00    +0.000 OA
ATOM     11  C   UNL     1      -0.461  10.342  22.104  0.00  0.00    +0.000 C 
ATOM     12  C   UNL     1      -0.300   9.628  20.764  0.00  0.00    +0.000 C 
BRANCH   9  13
ATOM     13  C   UNL     1      -2.474  12.244  23.195  0.00  0.00    +0.000 C 
ATOM     14  C   UNL     1      -3.403  13.211  23.896  0.00  0.00    +0.000 C 
ATOM     15  C   UNL     1      -3.834  12.565  22.614  0.00  0.00    +0.000 C 
ENDBRANCH   9  13
ENDBRANCH   3   5
BRANCH   1  16
ATOM     16  C   UNL     1       2.324   7.463  17.644  0.00  0.00    +0.000 C 
BRANCH  16  20
ATOM     17  C   UNL     1       6.552   4.831  18.172  0.00  0.00    +0.000 C 
ATOM     18  C   UNL     1       5.112   5.171  18.027  0.00  0.00    +0.000 A 
ATOM     19  C   UNL     1       4.581   6.430  17.832  0.00  0.00    +0.000 A 
ATOM     20  N   UNL     1       3.215   6.318  17.757  0.00  0.00    +0.000 N 
ATOM     21  C   UNL     1       2.836   5.004  17.943  0.00  0.00    +0.000 A 
ATOM     22  C   UNL     1       1.568   4.399  18.003  0.00  0.00    +0.000 A 
ATOM     23  C   UNL     1       1.504   3.015  18.190  0.00  0.00    +0.000 A 
ATOM     24  C   UNL     1       2.660   2.254  18.322  0.00  0.00    +0.000 A 
ATOM     25  C   UNL     1       3.917   2.865  18.278  0.00  0.00    +0.000 A 
ATOM     26  C   UNL     1       4.012   4.261  18.089  0.00  0.00    +0.000 A 
ENDBRANCH  16  20
ENDBRANCH   1  16
TORSDOF 4
ENDMDL
MODEL 9
REMARK VINA RESULT:      -6.9      3.208      4.823
REMARK  Name = 
REMARK  5 active torsions:
REMARK  status: ('A' for Active; 'I' for Inactive)
REMARK    1  A    between atoms: C_1  and  C_2
REMARK    2  A    between atoms: N_4  and  C_5
REMARK    3  A    between atoms: C_5  and  C_6
REMARK    4  A    between atoms: N_8  and  C_9
REMARK    5  A    between atoms: C_13  and  C_15
REMARK                            x       y       z     vdW  Elec       q    Type
REMARK                         _______ _______ _______ _____ _____    ______ ____
ROOT
ATOM      1  C   UNL     1       1.678   8.397  19.249  0.00  0.00    +0.000 C 
ATOM      2  O   UNL     1       1.620   8.559  18.030  0.00  0.00    +0.000 OA
ATOM      3  N   UNL     1       0.959   9.183  20.134  0.00  0.00    +0.000 N 
ATOM      4  H   UNL     1       1.222   9.188  21.113  0.00  0.00    +0.000 HD
ENDROOT
BRANCH   3   5
ATOM      5  C   UNL     1       0.084  10.234  19.627  0.00  0.00    +0.000 C 
ATOM      6  C   UNL     1      -1.118   9.676  18.862  0.00  0.00    +0.000 C 
ATOM      7  C   UNL     1      -1.925  10.830  18.266  0.00  0.00    +0.000 C 
ATOM      8  N   UNL     1      -2.302  11.802  19.295  0.00  0.00    +0.000 N 
ATOM      9  C   UNL     1      -3.619  12.255  19.327  0.00  0.00    +0.000 C 
ATOM     10  O   UNL     1      -4.484  11.824  18.569  0.00  0.00    +0.000 OA
ATOM     11  C   UNL     1      -1.197  12.317  20.108  0.00  0.00    +0.000 C 
ATOM     12  C   UNL     1      -0.407  11.170  20.735  0.00  0.00    +0.000 C 
BRANCH   9  13
ATOM     13  C   UNL     1      -4.007  13.264  20.362  0.00  0.00    +0.000 C 
ATOM     14  C   UNL     1      -5.459  13.486  20.725  0.00  0.00    +0.000 C 
ATOM     15  C   UNL     1      -4.557  12.767  21.683  0.00  0.00    +0.000 C 
ENDBRANCH   9  13
ENDBRANCH   3   5
BRANCH   1  16
ATOM     16  C   UNL     1       2.458   7.255  19.864  0.00  0.00    +0.000 C 
BRANCH  16  20
ATOM     17  C   UNL     1       4.669   4.578  16.255  0.00  0.00    +0.000 C 
ATOM     18  C   UNL     1       3.751   4.973  17.356  0.00  0.00    +0.000 A 
ATOM     19  C   UNL     1       3.700   6.202  17.982  0.00  0.00    +0.000 A 
ATOM     20  N   UNL     1       2.725   6.158  18.947  0.00  0.00    +0.000 N 
ATOM     21  C   UNL     1       2.161   4.899  18.994  0.00  0.00    +0.000 A 
ATOM     22  C   UNL     1       1.175   4.349  19.832  0.00  0.00    +0.000 A 
ATOM     23  C   UNL     1       0.792   3.022  19.622  0.00  0.00    +0.000 A 
ATOM     24  C   UNL     1       1.375   2.258  18.616  0.00  0.00    +0.000 A 
ATOM     25  C   UNL     1       2.367   2.806  17.798  0.00  0.00    +0.000 A 
ATOM     26  C   UNL     1       2.772   4.145  17.986  0.00  0.00    +0.000 A 
ENDBRANCH  16  20
ENDBRANCH   1  16
TORSDOF 4
ENDMDL
