MODEL 1
REMARK VINA RESULT:      -8.0      0.000      0.000
REMARK  Name = 
REMARK  5 active torsions:
REMARK  status: ('A' for Active; 'I' for Inactive)
REMARK    1  A    between atoms: C_1  and  C_2
REMARK    2  A    between atoms: C_7  and  C_8
REMARK    3  A    between atoms: C_8  and  S_9
REMARK    4  A    between atoms: S_9  and  C_10
REMARK    5  A    between atoms: N_16  and  C_17
REMARK                            x       y       z     vdW  Elec       q    Type
REMARK                         _______ _______ _______ _____ _____    ______ ____
ROOT
ATOM      1  C   UNL     1       2.488   7.257  18.590  0.00  0.00    +0.000 A 
ATOM      2  N   UNL     1       2.681   7.859  17.435  0.00  0.00    +0.000 NA
ATOM      3  N   UNL     1       2.136   9.137  17.534  0.00  0.00    +0.000 NA
ATOM      4  C   UNL     1       1.639   9.268  18.750  0.00  0.00    +0.000 A 
ATOM      5  C   UNL     1       0.952  10.410  19.344  0.00  0.00    +0.000 A 
ATOM      6  O   UNL     1       0.689  11.437  18.721  0.00  0.00    +0.000 OA
ATOM      7  N   UNL     1       0.644  10.237  20.739  0.00  0.00    +0.000 N 
ATOM      8  C   UNL     1       0.933   9.045  21.411  0.00  0.00    +0.000 A 
ATOM      9  C   UNL     1       1.508   8.006  20.794  0.00  0.00    +0.000 A 
ATOM     10  N   UNL     1       1.872   8.120  19.465  0.00  0.00    +0.000 N 
ENDROOT
BRANCH   7  11
ATOM     11  C   UNL     1       0.008  11.296  21.458  0.00  0.00    +0.000 A 
ATOM     12  C   UNL     1      -1.017  11.025  22.372  0.00  0.00    +0.000 A 
ATOM     13  C   UNL     1      -1.561  12.058  23.145  0.00  0.00    +0.000 A 
ATOM     14  C   UNL     1      -1.109  13.366  22.976  0.00  0.00    +0.000 A 
ATOM     15 BR   UNL     1      -1.861  14.762  24.005  0.00  0.00    +0.000 Br
ATOM     16  C   UNL     1      -0.104  13.651  22.056  0.00  0.00    +0.000 A 
ATOM     17  C   UNL     1       0.470  12.615  21.315  0.00  0.00    +0.000 A 
ENDBRANCH   7  11
BRANCH   1  18
ATOM     18  S   UNL     1       2.805   5.611  19.018  0.00  0.00    +0.000 S 
BRANCH  18  19
ATOM     19  C   UNL     1       4.593   5.568  19.332  0.00  0.00    +0.000 C 
BRANCH  19  26
ATOM     20  C   UNL     1       7.649   5.687  19.031  0.00  0.00    +0.000 C 
ATOM     21  C   UNL     1       6.745   5.155  17.952  0.00  0.00    +0.000 A 
ATOM     22  C   UNL     1       7.341   4.680  16.768  0.00  0.00    +0.000 A 
ATOM     23  C   UNL     1       6.570   4.165  15.727  0.00  0.00    +0.000 A 
ATOM     24  C   UNL     1       5.189   4.115  15.855  0.00  0.00    +0.000 A 
ATOM     25  C   UNL     1       4.579   4.583  17.020  0.00  0.00    +0.000 A 
ATOM     26  C   UNL     1       5.337   5.116  18.083  0.00  0.00    +0.000 A 
ENDBRANCH  19  26
ENDBRANCH  18  19
ENDBRANCH   1  18
TORSDOF 4
ENDMDL
MODEL 2
REMARK VINA RESULT:      -7.9      1.984      2.972
REMARK  Name = 
REMARK  5 active torsions:
REMARK  status: ('A' for Active; 'I' for Inactive)
REMARK    1  A    between atoms: C_1  and  C_2
REMARK    2  A    between atoms: C_7  and  C_8
REMARK    3  A    between atoms: C_8  and  S_9
REMARK    4  A    between atoms: S_9  and  C_10
REMARK    5  A    between atoms: N_16  and  C_17
REMARK                            x       y       z     vdW  Elec       q    Type
REMARK                         _______ _______ _______ _____ _____    ______ ____
ROOT
ATOM      1  C   UNL     1       1.744   8.388  19.241  0.00  0.00    +0.000 A 
ATOM      2  N   UNL     1       1.651   8.959  18.059  0.00  0.00    +0.000 NA
ATOM      3  N   UNL     1       0.903  10.124  18.215  0.00  0.00    +0.000 NA
ATOM      4  C   UNL     1       0.577  10.224  19.490  0.00  0.00    +0.000 A 
ATOM      5  C   UNL     1      -0.211  11.253  20.161  0.00  0.00    +0.000 A 
ATOM      6  O   UNL     1      -0.745  12.186  19.565  0.00  0.00    +0.000 OA
ATOM      7  N   UNL     1      -0.271  11.095  21.589  0.00  0.00    +0.000 N 
ATOM      8  C   UNL     1       0.327  10.007  22.233  0.00  0.00    +0.000 A 
ATOM      9  C   UNL     1       0.983   9.057  21.555  0.00  0.00    +0.000 A 
ATOM     10  N   UNL     1       1.119   9.170  20.183  0.00  0.00    +0.000 N 
ENDROOT
BRANCH   7  11
ATOM     11  C   UNL     1      -0.975  12.058  22.376  0.00  0.00    +0.000 A 
ATOM     12  C   UNL     1      -0.480  13.358  22.527  0.00  0.00    +0.000 A 
ATOM     13  C   UNL     1      -1.229  14.322  23.213  0.00  0.00    +0.000 A 
ATOM     14  C   UNL     1      -2.453  13.975  23.782  0.00  0.00    +0.000 A 
ATOM     15 BR   UNL     1      -3.453  15.272  24.727  0.00  0.00    +0.000 Br
ATOM     16  C   UNL     1      -2.949  12.680  23.655  0.00  0.00    +0.000 A 
ATOM     17  C   UNL     1      -2.222  11.730  22.934  0.00  0.00    +0.000 A 
ENDBRANCH   7  11
BRANCH   1  18
ATOM     18  S   UNL     1       2.416   6.846  19.649  0.00  0.00    +0.000 S 
BRANCH  18  19
ATOM     19  C   UNL     1       2.535   5.978  18.059  0.00  0.00    +0.000 C 
BRANCH  19  26
ATOM     20  C   UNL     1       4.338   3.848  16.772  0.00  0.00    +0.000 C 
ATOM     21  C   UNL     1       3.189   3.501  17.681  0.00  0.00    +0.000 A 
ATOM     22  C   UNL     1       2.955   2.140  17.956  0.00  0.00    +0.000 A 
ATOM     23  C   UNL     1       1.915   1.743  18.795  0.00  0.00    +0.000 A 
ATOM     24  C   UNL     1       1.094   2.700  19.374  0.00  0.00    +0.000 A 
ATOM     25  C   UNL     1       1.309   4.053  19.111  0.00  0.00    +0.000 A 
ATOM     26  C   UNL     1       2.349   4.481  18.259  0.00  0.00    +0.000 A 
ENDBRANCH  19  26
ENDBRANCH  18  19
ENDBRANCH   1  18
TORSDOF 4
ENDMDL
MODEL 3
REMARK VINA RESULT:      -7.8      2.259      3.480
REMARK  Name = 
REMARK  5 active torsions:
REMARK  status: ('A' for Active; 'I' for Inactive)
REMARK    1  A    between atoms: C_1  and  C_2
REMARK    2  A    between atoms: C_7  and  C_8
REMARK    3  A    between atoms: C_8  and  S_9
REMARK    4  A    between atoms: S_9  and  C_10
REMARK    5  A    between atoms: N_16  and  C_17
REMARK                            x       y       z     vdW  Elec       q    Type
REMARK                         _______ _______ _______ _____ _____    ______ ____
ROOT
ATOM      1  C   UNL     1       1.240   8.586  20.284  0.00  0.00    +0.000 A 
ATOM      2  N   UNL     1       1.423   9.143  19.105  0.00  0.00    +0.000 NA
ATOM      3  N   UNL     1       0.760  10.368  19.114  0.00  0.00    +0.000 NA
ATOM      4  C   UNL     1       0.205  10.516  20.302  0.00  0.00    +0.000 A 
ATOM      5  C   UNL     1      -0.607  11.618  20.807  0.00  0.00    +0.000 A 
ATOM      6  O   UNL     1      -0.937  12.582  20.119  0.00  0.00    +0.000 OA
ATOM      7  N   UNL     1      -0.953  11.490  22.198  0.00  0.00    +0.000 N 
ATOM      8  C   UNL     1      -0.584  10.367  22.945  0.00  0.00    +0.000 A 
ATOM      9  C   UNL     1       0.108   9.355  22.407  0.00  0.00    +0.000 A 
ATOM     10  N   UNL     1       0.513   9.433  21.087  0.00  0.00    +0.000 N 
ENDROOT
BRANCH   7  11
ATOM     11  C   UNL     1      -1.712  12.521  22.833  0.00  0.00    +0.000 A 
ATOM     12  C   UNL     1      -1.081  13.660  23.346  0.00  0.00    +0.000 A 
ATOM     13  C   UNL     1      -1.843  14.710  23.873  0.00  0.00    +0.000 A 
ATOM     14  C   UNL     1      -3.232  14.603  23.924  0.00  0.00    +0.000 A 
ATOM     15 BR   UNL     1      -4.257  16.012  24.656  0.00  0.00    +0.000 Br
ATOM     16  C   UNL     1      -3.870  13.467  23.434  0.00  0.00    +0.000 A 
ATOM     17  C   UNL     1      -3.114  12.438  22.869  0.00  0.00    +0.000 A 
ENDBRANCH   7  11
BRANCH   1  18
ATOM     18  S   UNL     1       1.688   7.002  20.814  0.00  0.00    +0.000 S 
BRANCH  18  19
ATOM     19  C   UNL     1       2.633   6.317  19.423  0.00  0.00    +0.000 C 
BRANCH  19  26
ATOM     20  C   UNL     1       3.823   4.578  17.187  0.00  0.00    +0.000 C 
ATOM     21  C   UNL     1       2.765   4.076  18.132  0.00  0.00    +0.000 A 
ATOM     22  C   UNL     1       2.326   2.746  17.982  0.00  0.00    +0.000 A 
ATOM     23  C   UNL     1       1.355   2.208  18.826  0.00  0.00    +0.000 A 
ATOM     24  C   UNL     1       0.809   2.991  19.834  0.00  0.00    +0.000 A 
ATOM     25  C   UNL     1       1.231   4.311  19.996  0.00  0.00    +0.000 A 
ATOM     26  C   UNL     1       2.205   4.881  19.150  0.00  0.00    +0.000 A 
ENDBRANCH  19  26
ENDBRANCH  18  19
ENDBRANCH   1  18
TORSDOF 4
ENDMDL
MODEL 4
REMARK VINA RESULT:      -7.8      1.115      1.302
REMARK  Name = 
REMARK  5 active torsions:
REMARK  status: ('A' for Active; 'I' for Inactive)
REMARK    1  A    between atoms: C_1  and  C_2
REMARK    2  A    between atoms: C_7  and  C_8
REMARK    3  A    between atoms: C_8  and  S_9
REMARK    4  A    between atoms: S_9  and  C_10
REMARK    5  A    between atoms: N_16  and  C_17
REMARK                            x       y       z     vdW  Elec       q    Type
REMARK                         _______ _______ _______ _____ _____    ______ ____
ROOT
ATOM      1  C   UNL     1       2.991   6.858  18.734  0.00  0.00    +0.000 A 
ATOM      2  N   UNL     1       3.251   7.462  17.594  0.00  0.00    +0.000 NA
ATOM      3  N   UNL     1       2.526   8.651  17.577  0.00  0.00    +0.000 NA
ATOM      4  C   UNL     1       1.859   8.731  18.713  0.00  0.00    +0.000 A 
ATOM      5  C   UNL     1       0.948   9.774  19.174  0.00  0.00    +0.000 A 
ATOM      6  O   UNL     1       0.631  10.743  18.486  0.00  0.00    +0.000 OA
ATOM      7  N   UNL     1       0.485   9.582  20.522  0.00  0.00    +0.000 N 
ATOM      8  C   UNL     1       0.844   8.454  21.267  0.00  0.00    +0.000 A 
ATOM      9  C   UNL     1       1.634   7.496  20.766  0.00  0.00    +0.000 A 
ATOM     10  N   UNL     1       2.152   7.639  19.492  0.00  0.00    +0.000 N 
ENDROOT
BRANCH   7  11
ATOM     11  C   UNL     1      -0.381  10.552  21.115  0.00  0.00    +0.000 A 
ATOM     12  C   UNL     1      -1.144  11.412  20.317  0.00  0.00    +0.000 A 
ATOM     13  C   UNL     1      -2.066  12.286  20.906  0.00  0.00    +0.000 A 
ATOM     14  C   UNL     1      -2.195  12.329  22.293  0.00  0.00    +0.000 A 
ATOM     15 BR   UNL     1      -3.423  13.526  23.088  0.00  0.00    +0.000 Br
ATOM     16  C   UNL     1      -1.428  11.492  23.099  0.00  0.00    +0.000 A 
ATOM     17  C   UNL     1      -0.540  10.589  22.511  0.00  0.00    +0.000 A 
ENDBRANCH   7  11
BRANCH   1  18
ATOM     18  S   UNL     1       3.473   5.280  19.257  0.00  0.00    +0.000 S 
BRANCH  18  19
ATOM     19  C   UNL     1       5.286   5.316  19.170  0.00  0.00    +0.000 C 
BRANCH  19  26
ATOM     20  C   UNL     1       7.615   6.820  17.843  0.00  0.00    +0.000 C 
ATOM     21  C   UNL     1       6.834   5.744  17.138  0.00  0.00    +0.000 A 
ATOM     22  C   UNL     1       7.210   5.413  15.822  0.00  0.00    +0.000 A 
ATOM     23  C   UNL     1       6.539   4.422  15.108  0.00  0.00    +0.000 A 
ATOM     24  C   UNL     1       5.482   3.744  15.699  0.00  0.00    +0.000 A 
ATOM     25  C   UNL     1       5.094   4.060  17.002  0.00  0.00    +0.000 A 
ATOM     26  C   UNL     1       5.752   5.064  17.742  0.00  0.00    +0.000 A 
ENDBRANCH  19  26
ENDBRANCH  18  19
ENDBRANCH   1  18
TORSDOF 4
ENDMDL
MODEL 5
REMARK VINA RESULT:      -7.7      2.678      4.177
REMARK  Name = 
REMARK  5 active torsions:
REMARK  status: ('A' for Active; 'I' for Inactive)
REMARK    1  A    between atoms: C_1  and  C_2
REMARK    2  A    between atoms: C_7  and  C_8
REMARK    3  A    between atoms: C_8  and  S_9
REMARK    4  A    between atoms: S_9  and  C_10
REMARK    5  A    between atoms: N_16  and  C_17
REMARK                            x       y       z     vdW  Elec       q    Type
REMARK                         _______ _______ _______ _____ _____    ______ ____
ROOT
ATOM      1  C   UNL     1       4.832   5.736  17.964  0.00  0.00    +0.000 A 
ATOM      2  N   UNL     1       5.195   6.271  16.817  0.00  0.00    +0.000 NA
ATOM      3  N   UNL     1       4.385   7.384  16.601  0.00  0.00    +0.000 NA
ATOM      4  C   UNL     1       3.565   7.490  17.630  0.00  0.00    +0.000 A 
ATOM      5  C   UNL     1       2.518   8.477  17.874  0.00  0.00    +0.000 A 
ATOM      6  O   UNL     1       2.221   9.356  17.068  0.00  0.00    +0.000 OA
ATOM      7  N   UNL     1       1.893   8.348  19.163  0.00  0.00    +0.000 N 
ATOM      8  C   UNL     1       2.237   7.319  20.046  0.00  0.00    +0.000 A 
ATOM      9  C   UNL     1       3.163   6.402  19.738  0.00  0.00    +0.000 A 
ATOM     10  N   UNL     1       3.836   6.493  18.534  0.00  0.00    +0.000 N 
ENDROOT
BRANCH   7  11
ATOM     11  C   UNL     1       0.878   9.277  19.551  0.00  0.00    +0.000 A 
ATOM     12  C   UNL     1       0.816   9.762  20.862  0.00  0.00    +0.000 A 
ATOM     13  C   UNL     1      -0.116  10.749  21.204  0.00  0.00    +0.000 A 
ATOM     14  C   UNL     1      -1.012  11.221  20.246  0.00  0.00    +0.000 A 
ATOM     15 BR   UNL     1      -2.285  12.538  20.715  0.00  0.00    +0.000 Br
ATOM     16  C   UNL     1      -0.973  10.733  18.942  0.00  0.00    +0.000 A 
ATOM     17  C   UNL     1      -0.015   9.780  18.590  0.00  0.00    +0.000 A 
ENDBRANCH   7  11
BRANCH   1  18
ATOM     18  S   UNL     1       5.364   4.255  18.683  0.00  0.00    +0.000 S 
BRANCH  18  19
ATOM     19  C   UNL     1       4.072   3.057  18.244  0.00  0.00    +0.000 C 
BRANCH  19  26
ATOM     20  C   UNL     1       1.176   3.955  17.745  0.00  0.00    +0.000 C 
ATOM     21  C   UNL     1       1.649   3.435  19.076  0.00  0.00    +0.000 A 
ATOM     22  C   UNL     1       0.709   3.348  20.121  0.00  0.00    +0.000 A 
ATOM     23  C   UNL     1       1.071   2.869  21.379  0.00  0.00    +0.000 A 
ATOM     24  C   UNL     1       2.379   2.468  21.612  0.00  0.00    +0.000 A 
ATOM     25  C   UNL     1       3.325   2.550  20.590  0.00  0.00    +0.000 A 
ATOM     26  C   UNL     1       2.986   3.038  19.311  0.00  0.00    +0.000 A 
ENDBRANCH  19  26
ENDBRANCH  18  19
ENDBRANCH   1  18
TORSDOF 4
ENDMDL
MODEL 6
REMARK VINA RESULT:      -7.7      2.054      3.127
REMARK  Name = 
REMARK  5 active torsions:
REMARK  status: ('A' for Active; 'I' for Inactive)
REMARK    1  A    between atoms: C_1  and  C_2
REMARK    2  A    between atoms: C_7  and  C_8
REMARK    3  A    between atoms: C_8  and  S_9
REMARK    4  A    between atoms: S_9  and  C_10
REMARK    5  A    between atoms: N_16  and  C_17
REMARK                            x       y       z     vdW  Elec       q    Type
REMARK                         _______ _______ _______ _____ _____    ______ ____
ROOT
ATOM      1  C   UNL     1       1.440   8.622  19.607  0.00  0.00    +0.000 A 
ATOM      2  N   UNL     1       1.783   7.848  20.615  0.00  0.00    +0.000 NA
ATOM      3  N   UNL     1       1.254   8.410  21.774  0.00  0.00    +0.000 NA
ATOM      4  C   UNL     1       0.599   9.503  21.427  0.00  0.00    +0.000 A 
ATOM      5  C   UNL     1      -0.118  10.453  22.272  0.00  0.00    +0.000 A 
ATOM      6  O   UNL     1      -0.154  10.369  23.498  0.00  0.00    +0.000 OA
ATOM      7  N   UNL     1      -0.810  11.474  21.533  0.00  0.00    +0.000 N 
ATOM      8  C   UNL     1      -0.726  11.555  20.139  0.00  0.00    +0.000 A 
ATOM      9  C   UNL     1       0.003  10.691  19.422  0.00  0.00    +0.000 A 
ATOM     10  N   UNL     1       0.657   9.656  20.064  0.00  0.00    +0.000 N 
ENDROOT
BRANCH   7  11
ATOM     11  C   UNL     1      -1.589  12.447  22.233  0.00  0.00    +0.000 A 
ATOM     12  C   UNL     1      -0.970  13.498  22.919  0.00  0.00    +0.000 A 
ATOM     13  C   UNL     1      -1.744  14.502  23.514  0.00  0.00    +0.000 A 
ATOM     14  C   UNL     1      -3.135  14.433  23.458  0.00  0.00    +0.000 A 
ATOM     15 BR   UNL     1      -4.178  15.777  24.282  0.00  0.00    +0.000 Br
ATOM     16  C   UNL     1      -3.763  13.382  22.795  0.00  0.00    +0.000 A 
ATOM     17  C   UNL     1      -2.991  12.403  22.164  0.00  0.00    +0.000 A 
ENDBRANCH   7  11
BRANCH   1  18
ATOM     18  S   UNL     1       1.932   8.526  17.951  0.00  0.00    +0.000 S 
BRANCH  18  19
ATOM     19  C   UNL     1       3.514   7.639  18.008  0.00  0.00    +0.000 C 
BRANCH  19  26
ATOM     20  C   UNL     1       5.659   5.858  16.713  0.00  0.00    +0.000 C 
ATOM     21  C   UNL     1       4.299   5.343  17.101  0.00  0.00    +0.000 A 
ATOM     22  C   UNL     1       4.020   3.982  16.870  0.00  0.00    +0.000 A 
ATOM     23  C   UNL     1       2.786   3.431  17.210  0.00  0.00    +0.000 A 
ATOM     24  C   UNL     1       1.811   4.231  17.789  0.00  0.00    +0.000 A 
ATOM     25  C   UNL     1       2.069   5.583  18.024  0.00  0.00    +0.000 A 
ATOM     26  C   UNL     1       3.306   6.166  17.681  0.00  0.00    +0.000 A 
ENDBRANCH  19  26
ENDBRANCH  18  19
ENDBRANCH   1  18
TORSDOF 4
ENDMDL
MODEL 7
REMARK VINA RESULT:      -7.7      1.428      1.979
REMARK  Name = 
REMARK  5 active torsions:
REMARK  status: ('A' for Active; 'I' for Inactive)
REMARK    1  A    between atoms: C_1  and  C_2
REMARK    2  A    between atoms: C_7  and  C_8
REMARK    3  A    between atoms: C_8  and  S_9
REMARK    4  A    between atoms: S_9  and  C_10
REMARK    5  A    between atoms: N_16  and  C_17
REMARK                            x       y       z     vdW  Elec       q    Type
REMARK                         _______ _______ _______ _____ _____    ______ ____
ROOT
ATOM      1  C   UNL     1       1.825   8.235  19.166  0.00  0.00    +0.000 A 
ATOM      2  N   UNL     1       1.697   8.739  17.956  0.00  0.00    +0.000 NA
ATOM      3  N   UNL     1       0.924   9.892  18.064  0.00  0.00    +0.000 NA
ATOM      4  C   UNL     1       0.618  10.053  19.337  0.00  0.00    +0.000 A 
ATOM      5  C   UNL     1      -0.184  11.098  19.966  0.00  0.00    +0.000 A 
ATOM      6  O   UNL     1      -0.752  11.985  19.331  0.00  0.00    +0.000 OA
ATOM      7  N   UNL     1      -0.216  11.016  21.402  0.00  0.00    +0.000 N 
ATOM      8  C   UNL     1       0.419   9.979  22.091  0.00  0.00    +0.000 A 
ATOM      9  C   UNL     1       1.087   9.009  21.454  0.00  0.00    +0.000 A 
ATOM     10  N   UNL     1       1.197   9.051  20.076  0.00  0.00    +0.000 N 
ENDROOT
BRANCH   7  11
ATOM     11  C   UNL     1      -0.931  12.003  22.148  0.00  0.00    +0.000 A 
ATOM     12  C   UNL     1      -2.145  11.690  22.770  0.00  0.00    +0.000 A 
ATOM     13  C   UNL     1      -2.783  12.633  23.584  0.00  0.00    +0.000 A 
ATOM     14  C   UNL     1      -2.229  13.903  23.743  0.00  0.00    +0.000 A 
ATOM     15 BR   UNL     1      -3.104  15.182  24.824  0.00  0.00    +0.000 Br
ATOM     16  C   UNL     1      -1.031  14.233  23.115  0.00  0.00    +0.000 A 
ATOM     17  C   UNL     1      -0.372  13.278  22.338  0.00  0.00    +0.000 A 
ENDBRANCH   7  11
BRANCH   1  18
ATOM     18  S   UNL     1       2.542   6.734  19.643  0.00  0.00    +0.000 S 
BRANCH  18  19
ATOM     19  C   UNL     1       2.244   5.630  18.233  0.00  0.00    +0.000 C 
BRANCH  19  26
ATOM     20  C   UNL     1       3.190   2.806  17.475  0.00  0.00    +0.000 C 
ATOM     21  C   UNL     1       3.975   4.045  17.139  0.00  0.00    +0.000 A 
ATOM     22  C   UNL     1       5.183   3.888  16.432  0.00  0.00    +0.000 A 
ATOM     23  C   UNL     1       5.961   4.989  16.078  0.00  0.00    +0.000 A 
ATOM     24  C   UNL     1       5.542   6.266  16.423  0.00  0.00    +0.000 A 
ATOM     25  C   UNL     1       4.349   6.442  17.125  0.00  0.00    +0.000 A 
ATOM     26  C   UNL     1       3.549   5.343  17.502  0.00  0.00    +0.000 A 
ENDBRANCH  19  26
ENDBRANCH  18  19
ENDBRANCH   1  18
TORSDOF 4
ENDMDL
MODEL 8
REMARK VINA RESULT:      -7.6      2.322      2.898
REMARK  Name = 
REMARK  5 active torsions:
REMARK  status: ('A' for Active; 'I' for Inactive)
REMARK    1  A    between atoms: C_1  and  C_2
REMARK    2  A    between atoms: C_7  and  C_8
REMARK    3  A    between atoms: C_8  and  S_9
REMARK    4  A    between atoms: S_9  and  C_10
REMARK    5  A    between atoms: N_16  and  C_17
REMARK                            x       y       z     vdW  Elec       q    Type
REMARK                         _______ _______ _______ _____ _____    ______ ____
ROOT
ATOM      1  C   UNL     1       2.146   6.509  19.327  0.00  0.00    +0.000 A 
ATOM      2  N   UNL     1       1.778   6.244  20.563  0.00  0.00    +0.000 NA
ATOM      3  N   UNL     1       1.360   7.441  21.140  0.00  0.00    +0.000 NA
ATOM      4  C   UNL     1       1.481   8.389  20.230  0.00  0.00    +0.000 A 
ATOM      5  C   UNL     1       1.189   9.815  20.342  0.00  0.00    +0.000 A 
ATOM      6  O   UNL     1       0.819  10.346  21.387  0.00  0.00    +0.000 OA
ATOM      7  N   UNL     1       1.337  10.534  19.104  0.00  0.00    +0.000 N 
ATOM      8  C   UNL     1       1.785   9.903  17.939  0.00  0.00    +0.000 A 
ATOM      9  C   UNL     1       2.101   8.602  17.915  0.00  0.00    +0.000 A 
ATOM     10  N   UNL     1       1.938   7.841  19.058  0.00  0.00    +0.000 N 
ENDROOT
BRANCH   7  11
ATOM     11  C   UNL     1       1.041  11.931  19.061  0.00  0.00    +0.000 A 
ATOM     12  C   UNL     1       2.069  12.881  19.102  0.00  0.00    +0.000 A 
ATOM     13  C   UNL     1       1.775  14.242  18.954  0.00  0.00    +0.000 A 
ATOM     14  C   UNL     1       0.452  14.656  18.807  0.00  0.00    +0.000 A 
ATOM     15 BR   UNL     1       0.056  16.496  18.630  0.00  0.00    +0.000 Br
ATOM     16  C   UNL     1      -0.580  13.722  18.783  0.00  0.00    +0.000 A 
ATOM     17  C   UNL     1      -0.285  12.361  18.887  0.00  0.00    +0.000 A 
ENDBRANCH   7  11
BRANCH   1  18
ATOM     18  S   UNL     1       2.898   5.461  18.174  0.00  0.00    +0.000 S 
BRANCH  18  19
ATOM     19  C   UNL     1       4.676   5.669  18.475  0.00  0.00    +0.000 C 
BRANCH  19  26
ATOM     20  C   UNL     1       7.485   6.758  17.870  0.00  0.00    +0.000 C 
ATOM     21  C   UNL     1       6.767   5.804  16.954  0.00  0.00    +0.000 A 
ATOM     22  C   UNL     1       7.432   5.390  15.783  0.00  0.00    +0.000 A 
ATOM     23  C   UNL     1       6.834   4.502  14.890  0.00  0.00    +0.000 A 
ATOM     24  C   UNL     1       5.563   4.012  15.155  0.00  0.00    +0.000 A 
ATOM     25  C   UNL     1       4.888   4.412  16.309  0.00  0.00    +0.000 A 
ATOM     26  C   UNL     1       5.468   5.316  17.223  0.00  0.00    +0.000 A 
ENDBRANCH  19  26
ENDBRANCH  18  19
ENDBRANCH   1  18
TORSDOF 4
ENDMDL
MODEL 9
REMARK VINA RESULT:      -7.6      3.277      4.384
REMARK  Name = 
REMARK  5 active torsions:
REMARK  status: ('A' for Active; 'I' for Inactive)
REMARK    1  A    between atoms: C_1  and  C_2
REMARK    2  A    between atoms: C_7  and  C_8
REMARK    3  A    between atoms: C_8  and  S_9
REMARK    4  A    between atoms: S_9  and  C_10
REMARK    5  A    between atoms: N_16  and  C_17
REMARK                            x       y       z     vdW  Elec       q    Type
REMARK                         _______ _______ _______ _____ _____    ______ ____
ROOT
ATOM      1  C   UNL     1       1.502   8.502  20.521  0.00  0.00    +0.000 A 
ATOM      2  N   UNL     1       1.114   8.531  21.778  0.00  0.00    +0.000 NA
ATOM      3  N   UNL     1       0.817   9.854  22.094  0.00  0.00    +0.000 NA
ATOM      4  C   UNL     1       1.027  10.582  21.013  0.00  0.00    +0.000 A 
ATOM      5  C   UNL     1       0.876  12.022  20.830  0.00  0.00    +0.000 A 
ATOM      6  O   UNL     1       0.563  12.787  21.740  0.00  0.00    +0.000 OA
ATOM      7  N   UNL     1       1.089  12.457  19.475  0.00  0.00    +0.000 N 
ATOM      8  C   UNL     1       1.469  11.562  18.469  0.00  0.00    +0.000 A 
ATOM      9  C   UNL     1       1.656  10.260  18.714  0.00  0.00    +0.000 A 
ATOM     10  N   UNL     1       1.424   9.765  19.984  0.00  0.00    +0.000 N 
ENDROOT
BRANCH   7  11
ATOM     11  C   UNL     1       0.931  13.838  19.145  0.00  0.00    +0.000 A 
ATOM     12  C   UNL     1      -0.344  14.404  19.027  0.00  0.00    +0.000 A 
ATOM     13  C   UNL     1      -0.486  15.779  18.806  0.00  0.00    +0.000 A 
ATOM     14  C   UNL     1       0.645  16.581  18.662  0.00  0.00    +0.000 A 
ATOM     15 BR   UNL     1       0.451  18.433  18.341  0.00  0.00    +0.000 Br
ATOM     16  C   UNL     1       1.919  16.027  18.758  0.00  0.00    +0.000 A 
ATOM     17  C   UNL     1       2.061  14.662  19.022  0.00  0.00    +0.000 A 
ENDBRANCH   7  11
BRANCH   1  18
ATOM     18  S   UNL     1       2.144   7.174  19.616  0.00  0.00    +0.000 S 
BRANCH  18  19
ATOM     19  C   UNL     1       1.592   5.705  20.529  0.00  0.00    +0.000 C 
BRANCH  19  26
ATOM     20  C   UNL     1       1.557   2.860  21.688  0.00  0.00    +0.000 C 
ATOM     21  C   UNL     1       1.785   3.141  20.228  0.00  0.00    +0.000 A 
ATOM     22  C   UNL     1       1.972   2.041  19.367  0.00  0.00    +0.000 A 
ATOM     23  C   UNL     1       2.180   2.222  18.001  0.00  0.00    +0.000 A 
ATOM     24  C   UNL     1       2.204   3.505  17.472  0.00  0.00    +0.000 A 
ATOM     25  C   UNL     1       2.023   4.607  18.310  0.00  0.00    +0.000 A 
ATOM     26  C   UNL     1       1.818   4.451  19.697  0.00  0.00    +0.000 A 
ENDBRANCH  19  26
ENDBRANCH  18  19
ENDBRANCH   1  18
TORSDOF 4
ENDMDL
