MODEL 1
REMARK VINA RESULT:      -8.2      0.000      0.000
REMARK  Name = 
REMARK  11 active torsions:
REMARK  status: ('A' for Active; 'I' for Inactive)
REMARK    1  A    between atoms: C_6  and  C_7
REMARK    2  A    between atoms: C_7  and  C_8
REMARK    3  A    between atoms: N_10  and  C_11
REMARK    4  A    between atoms: C_14  and  C_15
REMARK    5  A    between atoms: N_17  and  CA_18
REMARK    6  A    between atoms: CA_18  and  CB_19
REMARK    7  A    between atoms: CA_18  and  C_24
REMARK    8  A    between atoms: CB_19  and  CG_20
REMARK    9  A    between atoms: CG_20  and  CD_21
REMARK   10  A    between atoms: CD_21  and  OE2_23
REMARK   11  A    between atoms: C_24  and  OXT_26
REMARK                            x       y       z     vdW  Elec       q    Type
REMARK                         _______ _______ _______ _____ _____    ______ ____
ROOT
ATOM      1  C   UNK A   0       1.299   9.794  19.499  0.00  0.00    +0.000 A 
ATOM      2  C   UNK A   0       1.277   8.773  20.455  0.00  0.00    +0.000 A 
ATOM      3  C   UNK A   0       1.709   7.484  20.148  0.00  0.00    +0.000 A 
ATOM      4  C   UNK A   0       2.158   7.178  18.866  0.00  0.00    +0.000 A 
ATOM      5  C   UNK A   0       2.135   8.174  17.881  0.00  0.00    +0.000 A 
ATOM      6  C   UNK A   0       1.704   9.475  18.197  0.00  0.00    +0.000 A 
ENDROOT
BRANCH   1   9
ATOM      7  C   UNK A   0      -0.311  11.685  19.545  0.00  0.00    +0.000 C 
ATOM      8  O   UNK A   0      -1.256  11.071  19.041  0.00  0.00    +0.000 OA
ATOM      9  N   UNK A   0       0.934  11.130  19.797  0.00  0.00    +0.000 N 
ATOM     10  H   UNK A   0       1.599  11.678  20.328  0.00  0.00    +0.000 HD
BRANCH   7  11
ATOM     11  C   UNK A   0      -0.460  13.158  19.928  0.00  0.00    +0.000 C 
BRANCH  11  17
ATOM     12  N   UNK A   0      -5.323  12.097  25.066  0.00  0.00    +0.000 N 
ATOM     13  C   UNK A   0      -4.311  12.677  24.373  0.00  0.00    +0.000 A 
ATOM     14  N   UNK A   0      -3.924  12.162  23.239  0.00  0.00    +0.000 NA
ATOM     15  C   UNK A   0      -2.904  12.836  22.662  0.00  0.00    +0.000 A 
ATOM     16  N   UNK A   0      -2.340  12.481  21.477  0.00  0.00    +0.000 N 
ATOM     17  C   UNK A   0      -1.291  13.334  21.174  0.00  0.00    +0.000 A 
ATOM     18  C   UNK A   0      -1.241  14.284  22.185  0.00  0.00    +0.000 A 
ATOM     19  C   UNK A   0      -2.254  13.955  23.120  0.00  0.00    +0.000 A 
ATOM     20  C   UNK A   0      -2.703  14.517  24.368  0.00  0.00    +0.000 A 
ATOM     21  O   UNK A   0      -2.227  15.521  24.890  0.00  0.00    +0.000 OA
ATOM     22  N   UNK A   0      -3.740  13.798  24.938  0.00  0.00    +0.000 N 
ATOM     23  H   UNK A   0      -5.532  11.168  24.711  0.00  0.00    +0.000 HD
ATOM     24  H   UNK A   0      -5.257  12.122  26.074  0.00  0.00    +0.000 HD
ATOM     25  H   UNK A   0      -2.609  11.674  20.921  0.00  0.00    +0.000 HD
ATOM     26  H   UNK A   0      -4.111  14.172  25.794  0.00  0.00    +0.000 HD
ENDBRANCH  11  17
ENDBRANCH   7  11
ENDBRANCH   1   9
BRANCH   4  27
ATOM     27  C   UNK A   0       2.615   5.784  18.626  0.00  0.00    +0.000 C 
ATOM     28  O   UNK A   0       1.962   4.835  19.046  0.00  0.00    +0.000 OA
ATOM     29  N   GLU A   1       3.795   5.623  17.943  0.00  0.00    +0.000 N 
ATOM     30  H   GLU A   1       4.380   6.425  17.732  0.00  0.00    +0.000 HD
BRANCH  29  31
ATOM     31  CA  GLU A   1       4.347   4.298  17.662  0.00  0.00    +0.000 C 
BRANCH  31  32
ATOM     32  C   GLU A   1       5.398   4.030  18.744  0.00  0.00    +0.000 C 
ATOM     33  O   GLU A   1       6.310   4.809  18.997  0.00  0.00    +0.000 OA
BRANCH  32  34
ATOM     34  OXT GLU A   1       5.221   2.881  19.430  0.00  0.00    +0.000 OA
ATOM     35  HXT GLU A   1       5.976   2.617  20.003  0.00  0.00    +0.000 HD
ENDBRANCH  32  34
ENDBRANCH  31  32
BRANCH  31  36
ATOM     36  CB  GLU A   1       4.983   4.253  16.260  0.00  0.00    +0.000 C 
BRANCH  36  37
ATOM     37  CG  GLU A   1       5.431   5.604  15.719  0.00  0.00    +0.000 C 
BRANCH  37  38
ATOM     38  CD  GLU A   1       6.930   5.671  15.635  0.00  0.00    +0.000 C 
ATOM     39  OE1 GLU A   1       7.554   5.221  14.682  0.00  0.00    +0.000 OA
BRANCH  38  40
ATOM     40  OE2 GLU A   1       7.510   6.347  16.645  0.00  0.00    +0.000 OA
ATOM     41  HE2 GLU A   1       7.144   6.152  17.532  0.00  0.00    +0.000 HD
ENDBRANCH  38  40
ENDBRANCH  37  38
ENDBRANCH  36  37
ENDBRANCH  31  36
ENDBRANCH  29  31
ENDBRANCH   4  27
TORSDOF 11
ENDMDL
MODEL 2
REMARK VINA RESULT:      -8.1      1.319      2.499
REMARK  Name = 
REMARK  11 active torsions:
REMARK  status: ('A' for Active; 'I' for Inactive)
REMARK    1  A    between atoms: C_6  and  C_7
REMARK    2  A    between atoms: C_7  and  C_8
REMARK    3  A    between atoms: N_10  and  C_11
REMARK    4  A    between atoms: C_14  and  C_15
REMARK    5  A    between atoms: N_17  and  CA_18
REMARK    6  A    between atoms: CA_18  and  CB_19
REMARK    7  A    between atoms: CA_18  and  C_24
REMARK    8  A    between atoms: CB_19  and  CG_20
REMARK    9  A    between atoms: CG_20  and  CD_21
REMARK   10  A    between atoms: CD_21  and  OE2_23
REMARK   11  A    between atoms: C_24  and  OXT_26
REMARK                            x       y       z     vdW  Elec       q    Type
REMARK                         _______ _______ _______ _____ _____    ______ ____
ROOT
ATOM      1  C   UNK A   0       1.111   9.613  19.197  0.00  0.00    +0.000 A 
ATOM      2  C   UNK A   0       1.139   8.732  20.284  0.00  0.00    +0.000 A 
ATOM      3  C   UNK A   0       1.879   7.552  20.240  0.00  0.00    +0.000 A 
ATOM      4  C   UNK A   0       2.598   7.214  19.097  0.00  0.00    +0.000 A 
ATOM      5  C   UNK A   0       2.538   8.057  17.979  0.00  0.00    +0.000 A 
ATOM      6  C   UNK A   0       1.794   9.250  18.030  0.00  0.00    +0.000 A 
ENDROOT
BRANCH   1   9
ATOM      7  C   UNK A   0      -0.739  11.135  18.540  0.00  0.00    +0.000 C 
ATOM      8  O   UNK A   0      -1.327  10.328  17.814  0.00  0.00    +0.000 OA
ATOM      9  N   UNK A   0       0.427  10.854  19.234  0.00  0.00    +0.000 N 
ATOM     10  H   UNK A   0       0.759  11.539  19.900  0.00  0.00    +0.000 HD
BRANCH   7  11
ATOM     11  C   UNK A   0      -1.278  12.556  18.714  0.00  0.00    +0.000 C 
BRANCH  11  17
ATOM     12  N   UNK A   0      -5.247  12.555  24.665  0.00  0.00    +0.000 N 
ATOM     13  C   UNK A   0      -4.209  12.809  23.829  0.00  0.00    +0.000 A 
ATOM     14  N   UNK A   0      -4.262  12.404  22.591  0.00  0.00    +0.000 NA
ATOM     15  C   UNK A   0      -3.160  12.718  21.874  0.00  0.00    +0.000 A 
ATOM     16  N   UNK A   0      -2.995  12.396  20.563  0.00  0.00    +0.000 N 
ATOM     17  C   UNK A   0      -1.747  12.809  20.124  0.00  0.00    +0.000 A 
ATOM     18  C   UNK A   0      -1.141  13.458  21.191  0.00  0.00    +0.000 A 
ATOM     19  C   UNK A   0      -2.034  13.386  22.289  0.00  0.00    +0.000 A 
ATOM     20  C   UNK A   0      -1.999  13.837  23.657  0.00  0.00    +0.000 A 
ATOM     21  O   UNK A   0      -1.068  14.457  24.161  0.00  0.00    +0.000 OA
ATOM     22  N   UNK A   0      -3.137  13.490  24.365  0.00  0.00    +0.000 N 
ATOM     23  H   UNK A   0      -5.882  11.867  24.272  0.00  0.00    +0.000 HD
ATOM     24  H   UNK A   0      -5.017  12.365  25.631  0.00  0.00    +0.000 HD
ATOM     25  H   UNK A   0      -3.664  11.878  20.001  0.00  0.00    +0.000 HD
ATOM     26  H   UNK A   0      -3.174  13.814  25.316  0.00  0.00    +0.000 HD
ENDBRANCH  11  17
ENDBRANCH   7  11
ENDBRANCH   1   9
BRANCH   4  27
ATOM     27  C   UNK A   0       3.373   5.945  19.138  0.00  0.00    +0.000 C 
ATOM     28  O   UNK A   0       3.254   5.176  20.085  0.00  0.00    +0.000 OA
ATOM     29  N   GLU A   1       4.226   5.700  18.091  0.00  0.00    +0.000 N 
ATOM     30  H   GLU A   1       4.405   6.418  17.396  0.00  0.00    +0.000 HD
BRANCH  29  31
ATOM     31  CA  GLU A   1       5.047   4.492  18.034  0.00  0.00    +0.000 C 
BRANCH  31  32
ATOM     32  C   GLU A   1       6.414   4.924  17.495  0.00  0.00    +0.000 C 
ATOM     33  O   GLU A   1       6.575   5.924  16.805  0.00  0.00    +0.000 OA
BRANCH  32  34
ATOM     34  OXT GLU A   1       7.444   4.136  17.872  0.00  0.00    +0.000 OA
ATOM     35  HXT GLU A   1       8.183   4.078  17.226  0.00  0.00    +0.000 HD
ENDBRANCH  32  34
ENDBRANCH  31  32
BRANCH  31  36
ATOM     36  CB  GLU A   1       4.407   3.436  17.113  0.00  0.00    +0.000 C 
BRANCH  36  37
ATOM     37  CG  GLU A   1       3.650   2.331  17.838  0.00  0.00    +0.000 C 
BRANCH  37  38
ATOM     38  CD  GLU A   1       2.179   2.638  17.883  0.00  0.00    +0.000 C 
ATOM     39  OE1 GLU A   1       1.696   3.614  17.324  0.00  0.00    +0.000 OA
BRANCH  38  40
ATOM     40  OE2 GLU A   1       1.440   1.701  18.508  0.00  0.00    +0.000 OA
ATOM     41  HE2 GLU A   1       1.958   1.013  18.972  0.00  0.00    +0.000 HD
ENDBRANCH  38  40
ENDBRANCH  37  38
ENDBRANCH  36  37
ENDBRANCH  31  36
ENDBRANCH  29  31
ENDBRANCH   4  27
TORSDOF 11
ENDMDL
MODEL 3
REMARK VINA RESULT:      -8.1      0.923      1.013
REMARK  Name = 
REMARK  11 active torsions:
REMARK  status: ('A' for Active; 'I' for Inactive)
REMARK    1  A    between atoms: C_6  and  C_7
REMARK    2  A    between atoms: C_7  and  C_8
REMARK    3  A    between atoms: N_10  and  C_11
REMARK    4  A    between atoms: C_14  and  C_15
REMARK    5  A    between atoms: N_17  and  CA_18
REMARK    6  A    between atoms: CA_18  and  CB_19
REMARK    7  A    between atoms: CA_18  and  C_24
REMARK    8  A    between atoms: CB_19  and  CG_20
REMARK    9  A    between atoms: CG_20  and  CD_21
REMARK   10  A    between atoms: CD_21  and  OE2_23
REMARK   11  A    between atoms: C_24  and  OXT_26
REMARK                            x       y       z     vdW  Elec       q    Type
REMARK                         _______ _______ _______ _____ _____    ______ ____
ROOT
ATOM      1  C   UNK A   0       1.289   9.737  19.280  0.00  0.00    +0.000 A 
ATOM      2  C   UNK A   0       1.246   8.824  20.339  0.00  0.00    +0.000 A 
ATOM      3  C   UNK A   0       1.737   7.527  20.197  0.00  0.00    +0.000 A 
ATOM      4  C   UNK A   0       2.270   7.104  18.983  0.00  0.00    +0.000 A 
ATOM      5  C   UNK A   0       2.271   7.987  17.895  0.00  0.00    +0.000 A 
ATOM      6  C   UNK A   0       1.779   9.296  18.044  0.00  0.00    +0.000 A 
ENDROOT
BRANCH   1   9
ATOM      7  C   UNK A   0      -0.438  11.522  19.224  0.00  0.00    +0.000 C 
ATOM      8  O   UNK A   0      -1.385  10.785  18.935  0.00  0.00    +0.000 OA
ATOM      9  N   UNK A   0       0.863  11.082  19.410  0.00  0.00    +0.000 N 
ATOM     10  H   UNK A   0       1.540  11.743  19.770  0.00  0.00    +0.000 HD
BRANCH   7  11
ATOM     11  C   UNK A   0      -0.650  13.027  19.391  0.00  0.00    +0.000 C 
BRANCH  11  17
ATOM     12  N   UNK A   0      -5.112  12.302  24.936  0.00  0.00    +0.000 N 
ATOM     13  C   UNK A   0      -4.422  12.892  23.927  0.00  0.00    +0.000 A 
ATOM     14  N   UNK A   0      -3.653  12.170  23.161  0.00  0.00    +0.000 NA
ATOM     15  C   UNK A   0      -3.022  12.886  22.204  0.00  0.00    +0.000 A 
ATOM     16  N   UNK A   0      -2.172  12.344  21.292  0.00  0.00    +0.000 N 
ATOM     17  C   UNK A   0      -1.649  13.336  20.478  0.00  0.00    +0.000 A 
ATOM     18  C   UNK A   0      -2.242  14.529  20.868  0.00  0.00    +0.000 A 
ATOM     19  C   UNK A   0      -3.095  14.236  21.961  0.00  0.00    +0.000 A 
ATOM     20  C   UNK A   0      -3.959  15.015  22.810  0.00  0.00    +0.000 A 
ATOM     21  O   UNK A   0      -4.135  16.225  22.701  0.00  0.00    +0.000 OA
ATOM     22  N   UNK A   0      -4.582  14.254  23.785  0.00  0.00    +0.000 N 
ATOM     23  H   UNK A   0      -4.773  11.362  25.118  0.00  0.00    +0.000 HD
ATOM     24  H   UNK A   0      -5.232  12.843  25.782  0.00  0.00    +0.000 HD
ATOM     25  H   UNK A   0      -1.912  11.362  21.249  0.00  0.00    +0.000 HD
ATOM     26  H   UNK A   0      -5.222  14.749  24.381  0.00  0.00    +0.000 HD
ENDBRANCH  11  17
ENDBRANCH   7  11
ENDBRANCH   1   9
BRANCH   4  27
ATOM     27  C   UNK A   0       2.786   5.711  18.921  0.00  0.00    +0.000 C 
ATOM     28  O   UNK A   0       2.372   4.860  19.701  0.00  0.00    +0.000 OA
ATOM     29  N   GLU A   1       3.746   5.442  17.977  0.00  0.00    +0.000 N 
ATOM     30  H   GLU A   1       4.166   6.197  17.443  0.00  0.00    +0.000 HD
BRANCH  29  31
ATOM     31  CA  GLU A   1       4.334   4.111  17.836  0.00  0.00    +0.000 C 
BRANCH  31  32
ATOM     32  C   GLU A   1       5.348   3.965  18.974  0.00  0.00    +0.000 C 
ATOM     33  O   GLU A   1       6.121   4.858  19.301  0.00  0.00    +0.000 OA
BRANCH  32  34
ATOM     34  OXT GLU A   1       5.300   2.782  19.624  0.00  0.00    +0.000 OA
ATOM     35  HXT GLU A   1       6.070   2.190  19.470  0.00  0.00    +0.000 HD
ENDBRANCH  32  34
ENDBRANCH  31  32
BRANCH  31  36
ATOM     36  CB  GLU A   1       5.025   3.959  16.468  0.00  0.00    +0.000 C 
BRANCH  36  37
ATOM     37  CG  GLU A   1       5.644   5.237  15.919  0.00  0.00    +0.000 C 
BRANCH  37  38
ATOM     38  CD  GLU A   1       7.121   5.060  15.702  0.00  0.00    +0.000 C 
ATOM     39  OE1 GLU A   1       7.842   4.507  16.522  0.00  0.00    +0.000 OA
BRANCH  38  40
ATOM     40  OE2 GLU A   1       7.555   5.475  14.496  0.00  0.00    +0.000 OA
ATOM     41  HE2 GLU A   1       8.302   6.107  14.525  0.00  0.00    +0.000 HD
ENDBRANCH  38  40
ENDBRANCH  37  38
ENDBRANCH  36  37
ENDBRANCH  31  36
ENDBRANCH  29  31
ENDBRANCH   4  27
TORSDOF 11
ENDMDL
MODEL 4
REMARK VINA RESULT:      -8.0      1.353      2.582
REMARK  Name = 
REMARK  11 active torsions:
REMARK  status: ('A' for Active; 'I' for Inactive)
REMARK    1  A    between atoms: C_6  and  C_7
REMARK    2  A    between atoms: C_7  and  C_8
REMARK    3  A    between atoms: N_10  and  C_11
REMARK    4  A    between atoms: C_14  and  C_15
REMARK    5  A    between atoms: N_17  and  CA_18
REMARK    6  A    between atoms: CA_18  and  CB_19
REMARK    7  A    between atoms: CA_18  and  C_24
REMARK    8  A    between atoms: CB_19  and  CG_20
REMARK    9  A    between atoms: CG_20  and  CD_21
REMARK   10  A    between atoms: CD_21  and  OE2_23
REMARK   11  A    between atoms: C_24  and  OXT_26
REMARK                            x       y       z     vdW  Elec       q    Type
REMARK                         _______ _______ _______ _____ _____    ______ ____
ROOT
ATOM      1  C   UNK A   0       0.841   9.724  19.486  0.00  0.00    +0.000 A 
ATOM      2  C   UNK A   0       1.551   9.262  18.372  0.00  0.00    +0.000 A 
ATOM      3  C   UNK A   0       2.249   8.056  18.407  0.00  0.00    +0.000 A 
ATOM      4  C   UNK A   0       2.269   7.287  19.568  0.00  0.00    +0.000 A 
ATOM      5  C   UNK A   0       1.610   7.761  20.710  0.00  0.00    +0.000 A 
ATOM      6  C   UNK A   0       0.902   8.975  20.669  0.00  0.00    +0.000 A 
ENDROOT
BRANCH   1   9
ATOM      7  C   UNK A   0       0.494  12.146  19.915  0.00  0.00    +0.000 C 
ATOM      8  O   UNK A   0       1.616  12.362  20.382  0.00  0.00    +0.000 OA
ATOM      9  N   UNK A   0       0.064  10.908  19.462  0.00  0.00    +0.000 N 
ATOM     10  H   UNK A   0      -0.824  10.862  18.980  0.00  0.00    +0.000 HD
BRANCH   7  11
ATOM     11  C   UNK A   0      -0.534  13.273  19.814  0.00  0.00    +0.000 C 
BRANCH  11  17
ATOM     12  N   UNK A   0      -5.337  12.098  24.984  0.00  0.00    +0.000 N 
ATOM     13  C   UNK A   0      -4.323  12.685  24.299  0.00  0.00    +0.000 A 
ATOM     14  N   UNK A   0      -3.967  12.212  23.138  0.00  0.00    +0.000 NA
ATOM     15  C   UNK A   0      -2.941  12.886  22.573  0.00  0.00    +0.000 A 
ATOM     16  N   UNK A   0      -2.405  12.571  21.364  0.00  0.00    +0.000 N 
ATOM     17  C   UNK A   0      -1.341  13.412  21.080  0.00  0.00    +0.000 A 
ATOM     18  C   UNK A   0      -1.252  14.315  22.131  0.00  0.00    +0.000 A 
ATOM     19  C   UNK A   0      -2.256  13.969  23.068  0.00  0.00    +0.000 A 
ATOM     20  C   UNK A   0      -2.671  14.485  24.348  0.00  0.00    +0.000 A 
ATOM     21  O   UNK A   0      -2.163  15.454  24.905  0.00  0.00    +0.000 OA
ATOM     22  N   UNK A   0      -3.716  13.766  24.903  0.00  0.00    +0.000 N 
ATOM     23  H   UNK A   0      -5.574  11.191  24.592  0.00  0.00    +0.000 HD
ATOM     24  H   UNK A   0      -5.254  12.077  25.991  0.00  0.00    +0.000 HD
ATOM     25  H   UNK A   0      -2.702  11.796  20.778  0.00  0.00    +0.000 HD
ATOM     26  H   UNK A   0      -4.063  14.111  25.781  0.00  0.00    +0.000 HD
ENDBRANCH  11  17
ENDBRANCH   7  11
ENDBRANCH   1   9
BRANCH   4  27
ATOM     27  C   UNK A   0       3.025   6.008  19.516  0.00  0.00    +0.000 C 
ATOM     28  O   UNK A   0       2.763   5.100  20.298  0.00  0.00    +0.000 OA
ATOM     29  N   GLU A   1       4.024   5.911  18.580  0.00  0.00    +0.000 N 
ATOM     30  H   GLU A   1       4.307   6.725  18.044  0.00  0.00    +0.000 HD
BRANCH  29  31
ATOM     31  CA  GLU A   1       4.841   4.704  18.449  0.00  0.00    +0.000 C 
BRANCH  31  32
ATOM     32  C   GLU A   1       6.258   5.178  18.114  0.00  0.00    +0.000 C 
ATOM     33  O   GLU A   1       6.540   6.352  17.904  0.00  0.00    +0.000 OA
BRANCH  32  34
ATOM     34  OXT GLU A   1       7.191   4.201  18.106  0.00  0.00    +0.000 OA
ATOM     35  HXT GLU A   1       8.008   4.401  18.617  0.00  0.00    +0.000 HD
ENDBRANCH  32  34
ENDBRANCH  31  32
BRANCH  31  36
ATOM     36  CB  GLU A   1       4.294   3.790  17.336  0.00  0.00    +0.000 C 
BRANCH  36  37
ATOM     37  CG  GLU A   1       3.640   2.506  17.827  0.00  0.00    +0.000 C 
BRANCH  37  38
ATOM     38  CD  GLU A   1       2.147   2.665  17.895  0.00  0.00    +0.000 C 
ATOM     39  OE1 GLU A   1       1.562   3.600  17.364  0.00  0.00    +0.000 OA
BRANCH  38  40
ATOM     40  OE2 GLU A   1       1.511   1.645  18.503  0.00  0.00    +0.000 OA
ATOM     41  HE2 GLU A   1       0.609   1.855  18.819  0.00  0.00    +0.000 HD
ENDBRANCH  38  40
ENDBRANCH  37  38
ENDBRANCH  36  37
ENDBRANCH  31  36
ENDBRANCH  29  31
ENDBRANCH   4  27
TORSDOF 11
ENDMDL
MODEL 5
REMARK VINA RESULT:      -8.0      0.952      1.466
REMARK  Name = 
REMARK  11 active torsions:
REMARK  status: ('A' for Active; 'I' for Inactive)
REMARK    1  A    between atoms: C_6  and  C_7
REMARK    2  A    between atoms: C_7  and  C_8
REMARK    3  A    between atoms: N_10  and  C_11
REMARK    4  A    between atoms: C_14  and  C_15
REMARK    5  A    between atoms: N_17  and  CA_18
REMARK    6  A    between atoms: CA_18  and  CB_19
REMARK    7  A    between atoms: CA_18  and  C_24
REMARK    8  A    between atoms: CB_19  and  CG_20
REMARK    9  A    between atoms: CG_20  and  CD_21
REMARK   10  A    between atoms: CD_21  and  OE2_23
REMARK   11  A    between atoms: C_24  and  OXT_26
REMARK                            x       y       z     vdW  Elec       q    Type
REMARK                         _______ _______ _______ _____ _____    ______ ____
ROOT
ATOM      1  C   UNK A   0       1.164   9.760  19.072  0.00  0.00    +0.000 A 
ATOM      2  C   UNK A   0       1.831   9.347  17.913  0.00  0.00    +0.000 A 
ATOM      3  C   UNK A   0       2.448   8.100  17.839  0.00  0.00    +0.000 A 
ATOM      4  C   UNK A   0       2.429   7.238  18.932  0.00  0.00    +0.000 A 
ATOM      5  C   UNK A   0       1.812   7.656  20.119  0.00  0.00    +0.000 A 
ATOM      6  C   UNK A   0       1.185   8.913  20.187  0.00  0.00    +0.000 A 
ENDROOT
BRANCH   1   9
ATOM      7  C   UNK A   0      -0.787  11.228  18.615  0.00  0.00    +0.000 C 
ATOM      8  O   UNK A   0      -1.450  10.386  18.003  0.00  0.00    +0.000 OA
ATOM      9  N   UNK A   0       0.466  10.990  19.157  0.00  0.00    +0.000 N 
ATOM     10  H   UNK A   0       0.870  11.705  19.748  0.00  0.00    +0.000 HD
BRANCH   7  11
ATOM     11  C   UNK A   0      -1.326  12.646  18.810  0.00  0.00    +0.000 C 
BRANCH  11  17
ATOM     12  N   UNK A   0      -5.041  12.550  24.923  0.00  0.00    +0.000 N 
ATOM     13  C   UNK A   0      -4.050  12.837  24.041  0.00  0.00    +0.000 A 
ATOM     14  N   UNK A   0      -4.137  12.415  22.810  0.00  0.00    +0.000 NA
ATOM     15  C   UNK A   0      -3.080  12.766  22.044  0.00  0.00    +0.000 A 
ATOM     16  N   UNK A   0      -2.956  12.437  20.731  0.00  0.00    +0.000 N 
ATOM     17  C   UNK A   0      -1.746  12.896  20.236  0.00  0.00    +0.000 A 
ATOM     18  C   UNK A   0      -1.123  13.581  21.271  0.00  0.00    +0.000 A 
ATOM     19  C   UNK A   0      -1.966  13.484  22.405  0.00  0.00    +0.000 A 
ATOM     20  C   UNK A   0      -1.893  13.951  23.766  0.00  0.00    +0.000 A 
ATOM     21  O   UNK A   0      -0.968  14.615  24.225  0.00  0.00    +0.000 OA
ATOM     22  N   UNK A   0      -2.985  13.567  24.525  0.00  0.00    +0.000 N 
ATOM     23  H   UNK A   0      -5.662  11.831  24.563  0.00  0.00    +0.000 HD
ATOM     24  H   UNK A   0      -4.763  12.380  25.880  0.00  0.00    +0.000 HD
ATOM     25  H   UNK A   0      -3.626  11.885  20.202  0.00  0.00    +0.000 HD
ATOM     26  H   UNK A   0      -2.995  13.899  25.473  0.00  0.00    +0.000 HD
ENDBRANCH  11  17
ENDBRANCH   7  11
ENDBRANCH   1   9
BRANCH   4  27
ATOM     27  C   UNK A   0       3.097   5.920  18.764  0.00  0.00    +0.000 C 
ATOM     28  O   UNK A   0       2.664   4.926  19.336  0.00  0.00    +0.000 OA
ATOM     29  N   GLU A   1       4.215   5.885  17.968  0.00  0.00    +0.000 N 
ATOM     30  H   GLU A   1       4.628   6.747  17.624  0.00  0.00    +0.000 HD
BRANCH  29  31
ATOM     31  CA  GLU A   1       4.961   4.648  17.744  0.00  0.00    +0.000 C 
BRANCH  31  32
ATOM     32  C   GLU A   1       5.658   4.317  19.067  0.00  0.00    +0.000 C 
ATOM     33  O   GLU A   1       6.435   5.084  19.624  0.00  0.00    +0.000 OA
BRANCH  32  34
ATOM     34  OXT GLU A   1       5.318   3.124  19.601  0.00  0.00    +0.000 OA
ATOM     35  HXT GLU A   1       4.874   3.170  20.477  0.00  0.00    +0.000 HD
ENDBRANCH  32  34
ENDBRANCH  31  32
BRANCH  31  36
ATOM     36  CB  GLU A   1       5.994   4.826  16.614  0.00  0.00    +0.000 C 
BRANCH  36  37
ATOM     37  CG  GLU A   1       5.732   3.987  15.371  0.00  0.00    +0.000 C 
BRANCH  37  38
ATOM     38  CD  GLU A   1       6.681   4.363  14.268  0.00  0.00    +0.000 C 
ATOM     39  OE1 GLU A   1       7.515   5.249  14.395  0.00  0.00    +0.000 OA
BRANCH  38  40
ATOM     40  OE2 GLU A   1       6.594   3.580  13.175  0.00  0.00    +0.000 OA
ATOM     41  HE2 GLU A   1       6.507   4.066  12.330  0.00  0.00    +0.000 HD
ENDBRANCH  38  40
ENDBRANCH  37  38
ENDBRANCH  36  37
ENDBRANCH  31  36
ENDBRANCH  29  31
ENDBRANCH   4  27
TORSDOF 11
ENDMDL
MODEL 6
REMARK VINA RESULT:      -8.0      1.204      1.462
REMARK  Name = 
REMARK  11 active torsions:
REMARK  status: ('A' for Active; 'I' for Inactive)
REMARK    1  A    between atoms: C_6  and  C_7
REMARK    2  A    between atoms: C_7  and  C_8
REMARK    3  A    between atoms: N_10  and  C_11
REMARK    4  A    between atoms: C_14  and  C_15
REMARK    5  A    between atoms: N_17  and  CA_18
REMARK    6  A    between atoms: CA_18  and  CB_19
REMARK    7  A    between atoms: CA_18  and  C_24
REMARK    8  A    between atoms: CB_19  and  CG_20
REMARK    9  A    between atoms: CG_20  and  CD_21
REMARK   10  A    between atoms: CD_21  and  OE2_23
REMARK   11  A    between atoms: C_24  and  OXT_26
REMARK                            x       y       z     vdW  Elec       q    Type
REMARK                         _______ _______ _______ _____ _____    ______ ____
ROOT
ATOM      1  C   UNK A   0       1.224   9.852  19.128  0.00  0.00    +0.000 A 
ATOM      2  C   UNK A   0       1.856   9.325  17.996  0.00  0.00    +0.000 A 
ATOM      3  C   UNK A   0       2.328   8.014  17.976  0.00  0.00    +0.000 A 
ATOM      4  C   UNK A   0       2.196   7.199  19.097  0.00  0.00    +0.000 A 
ATOM      5  C   UNK A   0       1.615   7.727  20.257  0.00  0.00    +0.000 A 
ATOM      6  C   UNK A   0       1.135   9.049  20.272  0.00  0.00    +0.000 A 
ENDROOT
BRANCH   1   9
ATOM      7  C   UNK A   0       0.778  12.036  20.223  0.00  0.00    +0.000 C 
ATOM      8  O   UNK A   0       1.386  11.790  21.269  0.00  0.00    +0.000 OA
ATOM      9  N   UNK A   0       0.670  11.155  19.158  0.00  0.00    +0.000 N 
ATOM     10  H   UNK A   0       0.262  11.499  18.298  0.00  0.00    +0.000 HD
BRANCH   7  11
ATOM     11  C   UNK A   0       0.071  13.379  20.035  0.00  0.00    +0.000 C 
BRANCH  11  17
ATOM     12  N   UNK A   0      -4.943  11.975  24.941  0.00  0.00    +0.000 N 
ATOM     13  C   UNK A   0      -4.272  12.629  23.960  0.00  0.00    +0.000 A 
ATOM     14  N   UNK A   0      -3.210  12.088  23.431  0.00  0.00    +0.000 NA
ATOM     15  C   UNK A   0      -2.637  12.851  22.473  0.00  0.00    +0.000 A 
ATOM     16  N   UNK A   0      -1.522  12.487  21.785  0.00  0.00    +0.000 N 
ATOM     17  C   UNK A   0      -1.153  13.495  20.909  0.00  0.00    +0.000 A 
ATOM     18  C   UNK A   0      -2.108  14.496  21.023  0.00  0.00    +0.000 A 
ATOM     19  C   UNK A   0      -3.031  14.084  22.016  0.00  0.00    +0.000 A 
ATOM     20  C   UNK A   0      -4.213  14.662  22.604  0.00  0.00    +0.000 A 
ATOM     21  O   UNK A   0      -4.689  15.747  22.286  0.00  0.00    +0.000 OA
ATOM     22  N   UNK A   0      -4.768  13.860  23.588  0.00  0.00    +0.000 N 
ATOM     23  H   UNK A   0      -4.399  11.202  25.312  0.00  0.00    +0.000 HD
ATOM     24  H   UNK A   0      -5.356  12.544  25.668  0.00  0.00    +0.000 HD
ATOM     25  H   UNK A   0      -1.001  11.627  21.931  0.00  0.00    +0.000 HD
ATOM     26  H   UNK A   0      -5.616  14.206  24.003  0.00  0.00    +0.000 HD
ENDBRANCH  11  17
ENDBRANCH   7  11
ENDBRANCH   1   9
BRANCH   4  27
ATOM     27  C   UNK A   0       2.713   5.810  18.986  0.00  0.00    +0.000 C 
ATOM     28  O   UNK A   0       2.274   4.924  19.711  0.00  0.00    +0.000 OA
ATOM     29  N   GLU A   1       3.703   5.584  18.062  0.00  0.00    +0.000 N 
ATOM     30  H   GLU A   1       4.140   6.362  17.577  0.00  0.00    +0.000 HD
BRANCH  29  31
ATOM     31  CA  GLU A   1       4.295   4.260  17.877  0.00  0.00    +0.000 C 
BRANCH  31  32
ATOM     32  C   GLU A   1       5.347   4.100  18.978  0.00  0.00    +0.000 C 
ATOM     33  O   GLU A   1       6.145   4.981  19.275  0.00  0.00    +0.000 OA
BRANCH  32  34
ATOM     34  OXT GLU A   1       5.303   2.919  19.632  0.00  0.00    +0.000 OA
ATOM     35  HXT GLU A   1       5.922   2.232  19.294  0.00  0.00    +0.000 HD
ENDBRANCH  32  34
ENDBRANCH  31  32
BRANCH  31  36
ATOM     36  CB  GLU A   1       4.942   4.138  16.484  0.00  0.00    +0.000 C 
BRANCH  36  37
ATOM     37  CG  GLU A   1       5.687   5.380  16.014  0.00  0.00    +0.000 C 
BRANCH  37  38
ATOM     38  CD  GLU A   1       7.107   5.042  15.655  0.00  0.00    +0.000 C 
ATOM     39  OE1 GLU A   1       7.592   5.323  14.567  0.00  0.00    +0.000 OA
BRANCH  38  40
ATOM     40  OE2 GLU A   1       7.816   4.495  16.662  0.00  0.00    +0.000 OA
ATOM     41  HE2 GLU A   1       7.309   3.884  17.234  0.00  0.00    +0.000 HD
ENDBRANCH  38  40
ENDBRANCH  37  38
ENDBRANCH  36  37
ENDBRANCH  31  36
ENDBRANCH  29  31
ENDBRANCH   4  27
TORSDOF 11
ENDMDL
MODEL 7
REMARK VINA RESULT:      -8.0      3.079      3.920
REMARK  Name = 
REMARK  11 active torsions:
REMARK  status: ('A' for Active; 'I' for Inactive)
REMARK    1  A    between atoms: C_6  and  C_7
REMARK    2  A    between atoms: C_7  and  C_8
REMARK    3  A    between atoms: N_10  and  C_11
REMARK    4  A    between atoms: C_14  and  C_15
REMARK    5  A    between atoms: N_17  and  CA_18
REMARK    6  A    between atoms: CA_18  and  CB_19
REMARK    7  A    between atoms: CA_18  and  C_24
REMARK    8  A    between atoms: CB_19  and  CG_20
REMARK    9  A    between atoms: CG_20  and  CD_21
REMARK   10  A    between atoms: CD_21  and  OE2_23
REMARK   11  A    between atoms: C_24  and  OXT_26
REMARK                            x       y       z     vdW  Elec       q    Type
REMARK                         _______ _______ _______ _____ _____    ______ ____
ROOT
ATOM      1  C   UNK A   0       1.075   9.205  19.163  0.00  0.00    +0.000 A 
ATOM      2  C   UNK A   0       1.294   8.412  20.295  0.00  0.00    +0.000 A 
ATOM      3  C   UNK A   0       2.125   7.294  20.246  0.00  0.00    +0.000 A 
ATOM      4  C   UNK A   0       2.745   6.929  19.054  0.00  0.00    +0.000 A 
ATOM      5  C   UNK A   0       2.494   7.679  17.898  0.00  0.00    +0.000 A 
ATOM      6  C   UNK A   0       1.659   8.810  17.953  0.00  0.00    +0.000 A 
ENDROOT
BRANCH   1   9
ATOM      7  C   UNK A   0       0.802  11.673  19.108  0.00  0.00    +0.000 C 
ATOM      8  O   UNK A   0       2.001  11.939  18.978  0.00  0.00    +0.000 OA
ATOM      9  N   UNK A   0       0.294  10.387  19.196  0.00  0.00    +0.000 N 
ATOM     10  H   UNK A   0      -0.711  10.272  19.173  0.00  0.00    +0.000 HD
BRANCH   7  11
ATOM     11  C   UNK A   0      -0.235  12.794  19.196  0.00  0.00    +0.000 C 
BRANCH  11  17
ATOM     12  N   UNK A   0      -7.255  11.465  18.833  0.00  0.00    +0.000 N 
ATOM     13  C   UNK A   0      -5.950  11.523  18.462  0.00  0.00    +0.000 A 
ATOM     14  N   UNK A   0      -5.060  11.977  19.300  0.00  0.00    +0.000 NA
ATOM     15  C   UNK A   0      -3.805  11.987  18.798  0.00  0.00    +0.000 A 
ATOM     16  N   UNK A   0      -2.717  12.416  19.492  0.00  0.00    +0.000 N 
ATOM     17  C   UNK A   0      -1.586  12.349  18.695  0.00  0.00    +0.000 A 
ATOM     18  C   UNK A   0      -1.982  11.806  17.480  0.00  0.00    +0.000 A 
ATOM     19  C   UNK A   0      -3.381  11.591  17.553  0.00  0.00    +0.000 A 
ATOM     20  C   UNK A   0      -4.377  11.082  16.646  0.00  0.00    +0.000 A 
ATOM     21  O   UNK A   0      -4.143  10.680  15.510  0.00  0.00    +0.000 OA
ATOM     22  N   UNK A   0      -5.652  11.095  17.186  0.00  0.00    +0.000 N 
ATOM     23  H   UNK A   0      -7.425  11.999  19.680  0.00  0.00    +0.000 HD
ATOM     24  H   UNK A   0      -7.941  11.648  18.113  0.00  0.00    +0.000 HD
ATOM     25  H   UNK A   0      -2.738  12.788  20.438  0.00  0.00    +0.000 HD
ATOM     26  H   UNK A   0      -6.376  10.716  16.602  0.00  0.00    +0.000 HD
ENDBRANCH  11  17
ENDBRANCH   7  11
ENDBRANCH   1   9
BRANCH   4  27
ATOM     27  C   UNK A   0       3.626   5.732  19.091  0.00  0.00    +0.000 C 
ATOM     28  O   UNK A   0       3.483   4.882  19.963  0.00  0.00    +0.000 OA
ATOM     29  N   GLU A   1       4.602   5.646  18.130  0.00  0.00    +0.000 N 
ATOM     30  H   GLU A   1       4.784   6.430  17.511  0.00  0.00    +0.000 HD
BRANCH  29  31
ATOM     31  CA  GLU A   1       5.535   4.520  18.079  0.00  0.00    +0.000 C 
BRANCH  31  32
ATOM     32  C   GLU A   1       6.904   5.076  18.480  0.00  0.00    +0.000 C 
ATOM     33  O   GLU A   1       7.823   5.232  17.683  0.00  0.00    +0.000 OA
BRANCH  32  34
ATOM     34  OXT GLU A   1       7.014   5.422  19.781  0.00  0.00    +0.000 OA
ATOM     35  HXT GLU A   1       7.899   5.267  20.180  0.00  0.00    +0.000 HD
ENDBRANCH  32  34
ENDBRANCH  31  32
BRANCH  31  36
ATOM     36  CB  GLU A   1       5.586   3.914  16.664  0.00  0.00    +0.000 C 
BRANCH  36  37
ATOM     37  CG  GLU A   1       5.446   4.921  15.531  0.00  0.00    +0.000 C 
BRANCH  37  38
ATOM     38  CD  GLU A   1       6.520   4.712  14.500  0.00  0.00    +0.000 C 
ATOM     39  OE1 GLU A   1       6.330   4.066  13.478  0.00  0.00    +0.000 OA
BRANCH  38  40
ATOM     40  OE2 GLU A   1       7.666   5.373  14.755  0.00  0.00    +0.000 OA
ATOM     41  HE2 GLU A   1       7.687   6.295  14.428  0.00  0.00    +0.000 HD
ENDBRANCH  38  40
ENDBRANCH  37  38
ENDBRANCH  36  37
ENDBRANCH  31  36
ENDBRANCH  29  31
ENDBRANCH   4  27
TORSDOF 11
ENDMDL
MODEL 8
REMARK VINA RESULT:      -7.9      1.482      2.694
REMARK  Name = 
REMARK  11 active torsions:
REMARK  status: ('A' for Active; 'I' for Inactive)
REMARK    1  A    between atoms: C_6  and  C_7
REMARK    2  A    between atoms: C_7  and  C_8
REMARK    3  A    between atoms: N_10  and  C_11
REMARK    4  A    between atoms: C_14  and  C_15
REMARK    5  A    between atoms: N_17  and  CA_18
REMARK    6  A    between atoms: CA_18  and  CB_19
REMARK    7  A    between atoms: CA_18  and  C_24
REMARK    8  A    between atoms: CB_19  and  CG_20
REMARK    9  A    between atoms: CG_20  and  CD_21
REMARK   10  A    between atoms: CD_21  and  OE2_23
REMARK   11  A    between atoms: C_24  and  OXT_26
REMARK                            x       y       z     vdW  Elec       q    Type
REMARK                         _______ _______ _______ _____ _____    ______ ____
ROOT
ATOM      1  C   UNK A   0       0.992   9.527  19.576  0.00  0.00    +0.000 A 
ATOM      2  C   UNK A   0       1.723   9.009  18.501  0.00  0.00    +0.000 A 
ATOM      3  C   UNK A   0       2.343   7.763  18.581  0.00  0.00    +0.000 A 
ATOM      4  C   UNK A   0       2.263   7.010  19.749  0.00  0.00    +0.000 A 
ATOM      5  C   UNK A   0       1.582   7.537  20.854  0.00  0.00    +0.000 A 
ATOM      6  C   UNK A   0       0.952   8.792  20.767  0.00  0.00    +0.000 A 
ENDROOT
BRANCH   1   9
ATOM      7  C   UNK A   0      -0.919  10.940  18.852  0.00  0.00    +0.000 C 
ATOM      8  O   UNK A   0      -1.536  10.044  18.268  0.00  0.00    +0.000 OA
ATOM      9  N   UNK A   0       0.291  10.756  19.503  0.00  0.00    +0.000 N 
ATOM     10  H   UNK A   0       0.651  11.522  20.059  0.00  0.00    +0.000 HD
BRANCH   7  11
ATOM     11  C   UNK A   0      -1.469  12.366  18.885  0.00  0.00    +0.000 C 
BRANCH  11  17
ATOM     12  N   UNK A   0      -5.900  12.945  24.472  0.00  0.00    +0.000 N 
ATOM     13  C   UNK A   0      -4.780  13.081  23.717  0.00  0.00    +0.000 A 
ATOM     14  N   UNK A   0      -4.763  12.622  22.497  0.00  0.00    +0.000 NA
ATOM     15  C   UNK A   0      -3.585  12.818  21.864  0.00  0.00    +0.000 A 
ATOM     16  N   UNK A   0      -3.339  12.423  20.586  0.00  0.00    +0.000 N 
ATOM     17  C   UNK A   0      -2.031  12.720  20.238  0.00  0.00    +0.000 A 
ATOM     18  C   UNK A   0      -1.465  13.372  21.326  0.00  0.00    +0.000 A 
ATOM     19  C   UNK A   0      -2.448  13.419  22.346  0.00  0.00    +0.000 A 
ATOM     20  C   UNK A   0      -2.489  13.930  23.692  0.00  0.00    +0.000 A 
ATOM     21  O   UNK A   0      -1.556  14.502  24.247  0.00  0.00    +0.000 OA
ATOM     22  N   UNK A   0      -3.705  13.704  24.314  0.00  0.00    +0.000 N 
ATOM     23  H   UNK A   0      -6.552  12.288  24.054  0.00  0.00    +0.000 HD
ATOM     24  H   UNK A   0      -5.765  12.784  25.461  0.00  0.00    +0.000 HD
ATOM     25  H   UNK A   0      -3.999  11.930  19.991  0.00  0.00    +0.000 HD
ATOM     26  H   UNK A   0      -3.793  14.074  25.244  0.00  0.00    +0.000 HD
ENDBRANCH  11  17
ENDBRANCH   7  11
ENDBRANCH   1   9
BRANCH   4  27
ATOM     27  C   UNK A   0       2.940   5.686  19.746  0.00  0.00    +0.000 C 
ATOM     28  O   UNK A   0       2.702   4.865  20.625  0.00  0.00    +0.000 OA
ATOM     29  N   GLU A   1       3.843   5.450  18.739  0.00  0.00    +0.000 N 
ATOM     30  H   GLU A   1       4.119   6.198  18.111  0.00  0.00    +0.000 HD
BRANCH  29  31
ATOM     31  CA  GLU A   1       4.577   4.188  18.646  0.00  0.00    +0.000 C 
BRANCH  31  32
ATOM     32  C   GLU A   1       6.058   4.560  18.526  0.00  0.00    +0.000 C 
ATOM     33  O   GLU A   1       6.675   5.145  19.409  0.00  0.00    +0.000 OA
BRANCH  32  34
ATOM     34  OXT GLU A   1       6.650   4.156  17.381  0.00  0.00    +0.000 OA
ATOM     35  HXT GLU A   1       6.227   4.482  16.555  0.00  0.00    +0.000 HD
ENDBRANCH  32  34
ENDBRANCH  31  32
BRANCH  31  36
ATOM     36  CB  GLU A   1       4.118   3.375  17.420  0.00  0.00    +0.000 C 
BRANCH  36  37
ATOM     37  CG  GLU A   1       3.250   2.167  17.744  0.00  0.00    +0.000 C 
BRANCH  37  38
ATOM     38  CD  GLU A   1       1.853   2.597  18.095  0.00  0.00    +0.000 C 
ATOM     39  OE1 GLU A   1       1.213   2.072  18.997  0.00  0.00    +0.000 OA
BRANCH  38  40
ATOM     40  OE2 GLU A   1       1.412   3.661  17.397  0.00  0.00    +0.000 OA
ATOM     41  HE2 GLU A   1       1.318   3.509  16.435  0.00  0.00    +0.000 HD
ENDBRANCH  38  40
ENDBRANCH  37  38
ENDBRANCH  36  37
ENDBRANCH  31  36
ENDBRANCH  29  31
ENDBRANCH   4  27
TORSDOF 11
ENDMDL
MODEL 9
REMARK VINA RESULT:      -7.9      1.938      3.218
REMARK  Name = 
REMARK  11 active torsions:
REMARK  status: ('A' for Active; 'I' for Inactive)
REMARK    1  A    between atoms: C_6  and  C_7
REMARK    2  A    between atoms: C_7  and  C_8
REMARK    3  A    between atoms: N_10  and  C_11
REMARK    4  A    between atoms: C_14  and  C_15
REMARK    5  A    between atoms: N_17  and  CA_18
REMARK    6  A    between atoms: CA_18  and  CB_19
REMARK    7  A    between atoms: CA_18  and  C_24
REMARK    8  A    between atoms: CB_19  and  CG_20
REMARK    9  A    between atoms: CG_20  and  CD_21
REMARK   10  A    between atoms: CD_21  and  OE2_23
REMARK   11  A    between atoms: C_24  and  OXT_26
REMARK                            x       y       z     vdW  Elec       q    Type
REMARK                         _______ _______ _______ _____ _____    ______ ____
ROOT
ATOM      1  C   UNK A   0       1.056   9.638  19.173  0.00  0.00    +0.000 A 
ATOM      2  C   UNK A   0       1.173   8.729  20.230  0.00  0.00    +0.000 A 
ATOM      3  C   UNK A   0       1.915   7.557  20.097  0.00  0.00    +0.000 A 
ATOM      4  C   UNK A   0       2.545   7.254  18.893  0.00  0.00    +0.000 A 
ATOM      5  C   UNK A   0       2.394   8.126  17.807  0.00  0.00    +0.000 A 
ATOM      6  C   UNK A   0       1.649   9.311  17.947  0.00  0.00    +0.000 A 
ENDROOT
BRANCH   1   9
ATOM      7  C   UNK A   0      -0.906  11.119  18.812  0.00  0.00    +0.000 C 
ATOM      8  O   UNK A   0      -1.600  10.284  18.225  0.00  0.00    +0.000 OA
ATOM      9  N   UNK A   0       0.369  10.872  19.296  0.00  0.00    +0.000 N 
ATOM     10  H   UNK A   0       0.804  11.581  19.873  0.00  0.00    +0.000 HD
BRANCH   7  11
ATOM     11  C   UNK A   0      -1.427  12.539  19.040  0.00  0.00    +0.000 C 
BRANCH  11  17
ATOM     12  N   UNK A   0      -4.556  12.587  25.473  0.00  0.00    +0.000 N 
ATOM     13  C   UNK A   0      -4.424  12.619  24.122  0.00  0.00    +0.000 A 
ATOM     14  N   UNK A   0      -3.243  12.490  23.585  0.00  0.00    +0.000 NA
ATOM     15  C   UNK A   0      -3.257  12.549  22.235  0.00  0.00    +0.000 A 
ATOM     16  N   UNK A   0      -2.143  12.438  21.463  0.00  0.00    +0.000 N 
ATOM     17  C   UNK A   0      -2.473  12.585  20.125  0.00  0.00    +0.000 A 
ATOM     18  C   UNK A   0      -3.851  12.740  20.067  0.00  0.00    +0.000 A 
ATOM     19  C   UNK A   0      -4.332  12.725  21.400  0.00  0.00    +0.000 A 
ATOM     20  C   UNK A   0      -5.631  12.854  22.010  0.00  0.00    +0.000 A 
ATOM     21  O   UNK A   0      -6.680  13.001  21.391  0.00  0.00    +0.000 OA
ATOM     22  N   UNK A   0      -5.580  12.800  23.394  0.00  0.00    +0.000 N 
ATOM     23  H   UNK A   0      -3.658  12.680  25.937  0.00  0.00    +0.000 HD
ATOM     24  H   UNK A   0      -5.266  13.184  25.875  0.00  0.00    +0.000 HD
ATOM     25  H   UNK A   0      -1.197  12.321  21.816  0.00  0.00    +0.000 HD
ATOM     26  H   UNK A   0      -6.467  12.851  23.864  0.00  0.00    +0.000 HD
ENDBRANCH  11  17
ENDBRANCH   7  11
ENDBRANCH   1   9
BRANCH   4  27
ATOM     27  C   UNK A   0       3.328   5.991  18.841  0.00  0.00    +0.000 C 
ATOM     28  O   UNK A   0       3.755   5.482  19.871  0.00  0.00    +0.000 OA
ATOM     29  N   GLU A   1       3.560   5.452  17.599  0.00  0.00    +0.000 N 
ATOM     30  H   GLU A   1       3.315   5.970  16.761  0.00  0.00    +0.000 HD
BRANCH  29  31
ATOM     31  CA  GLU A   1       4.331   4.221  17.427  0.00  0.00    +0.000 C 
BRANCH  31  32
ATOM     32  C   GLU A   1       5.265   4.460  16.238  0.00  0.00    +0.000 C 
ATOM     33  O   GLU A   1       5.916   3.566  15.709  0.00  0.00    +0.000 OA
BRANCH  32  34
ATOM     34  OXT GLU A   1       5.290   5.732  15.786  0.00  0.00    +0.000 OA
ATOM     35  HXT GLU A   1       4.409   6.116  15.573  0.00  0.00    +0.000 HD
ENDBRANCH  32  34
ENDBRANCH  31  32
BRANCH  31  36
ATOM     36  CB  GLU A   1       3.399   3.024  17.157  0.00  0.00    +0.000 C 
BRANCH  36  37
ATOM     37  CG  GLU A   1       3.214   2.080  18.337  0.00  0.00    +0.000 C 
BRANCH  37  38
ATOM     38  CD  GLU A   1       1.953   2.408  19.087  0.00  0.00    +0.000 C 
ATOM     39  OE1 GLU A   1       0.843   2.117  18.661  0.00  0.00    +0.000 OA
BRANCH  38  40
ATOM     40  OE2 GLU A   1       2.160   2.959  20.298  0.00  0.00    +0.000 OA
ATOM     41  HE2 GLU A   1       2.096   2.334  21.048  0.00  0.00    +0.000 HD
ENDBRANCH  38  40
ENDBRANCH  37  38
ENDBRANCH  36  37
ENDBRANCH  31  36
ENDBRANCH  29  31
ENDBRANCH   4  27
TORSDOF 11
ENDMDL
