MODEL 1
REMARK VINA RESULT:      -8.4      0.000      0.000
REMARK  Name = 
REMARK  6 active torsions:
REMARK  status: ('A' for Active; 'I' for Inactive)
REMARK    1  A    between atoms: C_1  and  C_2
REMARK    2  A    between atoms: C_2  and  C_3
REMARK    3  A    between atoms: C_3  and  N_4
REMARK    4  A    between atoms: C_8  and  C_9
REMARK    5  A    between atoms: N_11  and  C_12
REMARK    6  A    between atoms: N_19  and  C_20
REMARK                            x       y       z     vdW  Elec       q    Type
REMARK                         _______ _______ _______ _____ _____    ______ ____
ROOT
ATOM      1  N   UNL     1       4.920   5.061  16.736  0.00  0.00    +0.000 N 
ATOM      2  C   UNL     1       5.139   6.430  16.800  0.00  0.00    +0.000 A 
ATOM      3  O   UNL     1       6.086   7.013  16.275  0.00  0.00    +0.000 OA
ATOM      4  C   UNL     1       4.184   7.244  17.574  0.00  0.00    +0.000 A 
ATOM      5  C   UNL     1       3.109   6.724  18.175  0.00  0.00    +0.000 A 
ATOM      6  C   UNL     1       2.817   5.281  17.988  0.00  0.00    +0.000 A 
ATOM      7  C   UNL     1       1.626   4.691  18.452  0.00  0.00    +0.000 A 
ATOM      8  C   UNL     1       1.396   3.320  18.339  0.00  0.00    +0.000 A 
ATOM      9  C   UNL     1       2.370   2.504  17.785  0.00  0.00    +0.000 A 
ATOM     10  C   UNL     1       3.541   3.072  17.281  0.00  0.00    +0.000 A 
ATOM     11  C   UNL     1       3.766   4.460  17.337  0.00  0.00    +0.000 A 
ENDROOT
BRANCH   5  12
ATOM     12  C   UNL     1       2.221   7.671  18.937  0.00  0.00    +0.000 C 
ATOM     13  O   UNL     1       2.001   7.506  20.130  0.00  0.00    +0.000 OA
ATOM     14  N   UNL     1       1.701   8.742  18.228  0.00  0.00    +0.000 N 
ATOM     15  H   UNL     1       2.006   8.921  17.281  0.00  0.00    +0.000 HD
BRANCH  14  16
ATOM     16  C   UNL     1       0.949   9.790  18.920  0.00  0.00    +0.000 C 
ATOM     17  C   UNL     1       1.668  11.151  18.852  0.00  0.00    +0.000 C 
ATOM     18  C   UNL     1       0.740  12.316  19.282  0.00  0.00    +0.000 C 
ATOM     19  C   UNL     1      -0.061  12.917  18.110  0.00  0.00    +0.000 C 
ATOM     20  C   UNL     1      -1.437  12.256  18.183  0.00  0.00    +0.000 C 
ATOM     21  C   UNL     1      -1.214  11.110  19.168  0.00  0.00    +0.000 C 
ATOM     22  C   UNL     1      -0.504   9.926  18.440  0.00  0.00    +0.000 C 
ATOM     23  N   UNL     1      -0.280  11.707  20.148  0.00  0.00    +0.000 NA
ATOM     24  C   UNL     1      -0.884  12.649  21.083  0.00  0.00    +0.000 C 
ENDBRANCH  14  16
ENDBRANCH   5  12
BRANCH   1  25
ATOM     25  C   UNL     1       5.871   4.272  15.947  0.00  0.00    +0.000 C 
BRANCH  25  27
ATOM     26  C   UNL     1       6.776   4.505  13.557  0.00  0.00    +0.000 C 
ATOM     27  C   UNL     1       5.569   4.229  14.441  0.00  0.00    +0.000 C 
ENDBRANCH  25  27
ENDBRANCH   1  25
TORSDOF 4
ENDMDL
MODEL 2
REMARK VINA RESULT:      -7.8      1.004      1.221
REMARK  Name = 
REMARK  6 active torsions:
REMARK  status: ('A' for Active; 'I' for Inactive)
REMARK    1  A    between atoms: C_1  and  C_2
REMARK    2  A    between atoms: C_2  and  C_3
REMARK    3  A    between atoms: C_3  and  N_4
REMARK    4  A    between atoms: C_8  and  C_9
REMARK    5  A    between atoms: N_11  and  C_12
REMARK    6  A    between atoms: N_19  and  C_20
REMARK                            x       y       z     vdW  Elec       q    Type
REMARK                         _______ _______ _______ _____ _____    ______ ____
ROOT
ATOM      1  N   UNL     1       4.569   5.119  17.017  0.00  0.00    +0.000 N 
ATOM      2  C   UNL     1       4.550   6.468  16.692  0.00  0.00    +0.000 A 
ATOM      3  O   UNL     1       5.206   6.978  15.786  0.00  0.00    +0.000 OA
ATOM      4  C   UNL     1       3.702   7.359  17.504  0.00  0.00    +0.000 A 
ATOM      5  C   UNL     1       2.933   6.916  18.504  0.00  0.00    +0.000 A 
ATOM      6  C   UNL     1       2.864   5.455  18.755  0.00  0.00    +0.000 A 
ATOM      7  C   UNL     1       1.962   4.895  19.679  0.00  0.00    +0.000 A 
ATOM      8  C   UNL     1       1.958   3.529  19.964  0.00  0.00    +0.000 A 
ATOM      9  C   UNL     1       2.881   2.699  19.349  0.00  0.00    +0.000 A 
ATOM     10  C   UNL     1       3.759   3.224  18.399  0.00  0.00    +0.000 A 
ATOM     11  C   UNL     1       3.740   4.590  18.060  0.00  0.00    +0.000 A 
ENDROOT
BRANCH   5  12
ATOM     12  C   UNL     1       2.122   7.939  19.254  0.00  0.00    +0.000 C 
ATOM     13  O   UNL     1       1.896   7.808  20.450  0.00  0.00    +0.000 OA
ATOM     14  N   UNL     1       1.682   9.036  18.530  0.00  0.00    +0.000 N 
ATOM     15  H   UNL     1       1.996   9.176  17.580  0.00  0.00    +0.000 HD
BRANCH  14  16
ATOM     16  C   UNL     1       1.014  10.147  19.209  0.00  0.00    +0.000 C 
ATOM     17  C   UNL     1       1.548  11.512  18.734  0.00  0.00    +0.000 C 
ATOM     18  C   UNL     1       0.635  12.679  19.189  0.00  0.00    +0.000 C 
ATOM     19  C   UNL     1      -0.485  13.001  18.179  0.00  0.00    +0.000 C 
ATOM     20  C   UNL     1      -1.724  12.284  18.713  0.00  0.00    +0.000 C 
ATOM     21  C   UNL     1      -1.151  11.359  19.782  0.00  0.00    +0.000 C 
ATOM     22  C   UNL     1      -0.518  10.103  19.103  0.00  0.00    +0.000 C 
ATOM     23  N   UNL     1      -0.075  12.183  20.377  0.00  0.00    +0.000 NA
ATOM     24  C   UNL     1      -0.530  13.245  21.266  0.00  0.00    +0.000 C 
ENDBRANCH  14  16
ENDBRANCH   5  12
BRANCH   1  25
ATOM     25  C   UNL     1       5.404   4.246  16.186  0.00  0.00    +0.000 C 
BRANCH  25  27
ATOM     26  C   UNL     1       7.424   4.583  17.733  0.00  0.00    +0.000 C 
ATOM     27  C   UNL     1       6.913   4.510  16.301  0.00  0.00    +0.000 C 
ENDBRANCH  25  27
ENDBRANCH   1  25
TORSDOF 4
ENDMDL
MODEL 3
REMARK VINA RESULT:      -7.8      0.749      1.467
REMARK  Name = 
REMARK  6 active torsions:
REMARK  status: ('A' for Active; 'I' for Inactive)
REMARK    1  A    between atoms: C_1  and  C_2
REMARK    2  A    between atoms: C_2  and  C_3
REMARK    3  A    between atoms: C_3  and  N_4
REMARK    4  A    between atoms: C_8  and  C_9
REMARK    5  A    between atoms: N_11  and  C_12
REMARK    6  A    between atoms: N_19  and  C_20
REMARK                            x       y       z     vdW  Elec       q    Type
REMARK                         _______ _______ _______ _____ _____    ______ ____
ROOT
ATOM      1  N   UNL     1       5.173   5.006  16.808  0.00  0.00    +0.000 N 
ATOM      2  C   UNL     1       5.423   6.372  16.800  0.00  0.00    +0.000 A 
ATOM      3  O   UNL     1       6.433   6.895  16.332  0.00  0.00    +0.000 OA
ATOM      4  C   UNL     1       4.422   7.259  17.419  0.00  0.00    +0.000 A 
ATOM      5  C   UNL     1       3.279   6.807  17.944  0.00  0.00    +0.000 A 
ATOM      6  C   UNL     1       2.965   5.360  17.829  0.00  0.00    +0.000 A 
ATOM      7  C   UNL     1       1.718   4.832  18.213  0.00  0.00    +0.000 A 
ATOM      8  C   UNL     1       1.461   3.461  18.172  0.00  0.00    +0.000 A 
ATOM      9  C   UNL     1       2.460   2.587  17.774  0.00  0.00    +0.000 A 
ATOM     10  C   UNL     1       3.691   3.092  17.350  0.00  0.00    +0.000 A 
ATOM     11  C   UNL     1       3.949   4.475  17.333  0.00  0.00    +0.000 A 
ENDROOT
BRANCH   5  12
ATOM     12  C   UNL     1       2.349   7.825  18.548  0.00  0.00    +0.000 C 
ATOM     13  O   UNL     1       2.148   7.856  19.756  0.00  0.00    +0.000 OA
ATOM     14  N   UNL     1       1.768   8.731  17.675  0.00  0.00    +0.000 N 
ATOM     15  H   UNL     1       2.056   8.760  16.707  0.00  0.00    +0.000 HD
BRANCH  14  16
ATOM     16  C   UNL     1       0.968   9.843  18.192  0.00  0.00    +0.000 C 
ATOM     17  C   UNL     1       0.104   9.417  19.395  0.00  0.00    +0.000 C 
ATOM     18  C   UNL     1      -0.481  10.640  20.146  0.00  0.00    +0.000 C 
ATOM     19  C   UNL     1       0.444  11.165  21.262  0.00  0.00    +0.000 C 
ATOM     20  C   UNL     1       1.192  12.344  20.642  0.00  0.00    +0.000 C 
ATOM     21  C   UNL     1       0.887  12.199  19.154  0.00  0.00    +0.000 C 
ATOM     22  C   UNL     1       1.797  11.089  18.539  0.00  0.00    +0.000 C 
ATOM     23  N   UNL     1      -0.517  11.729  19.158  0.00  0.00    +0.000 NA
ATOM     24  C   UNL     1      -1.510  12.752  19.459  0.00  0.00    +0.000 C 
ENDBRANCH  14  16
ENDBRANCH   5  12
BRANCH   1  25
ATOM     25  C   UNL     1       6.172   4.143  16.173  0.00  0.00    +0.000 C 
BRANCH  25  27
ATOM     26  C   UNL     1       7.004   4.670  13.803  0.00  0.00    +0.000 C 
ATOM     27  C   UNL     1       5.977   3.947  14.662  0.00  0.00    +0.000 C 
ENDBRANCH  25  27
ENDBRANCH   1  25
TORSDOF 4
ENDMDL
MODEL 4
REMARK VINA RESULT:      -7.7      1.855      8.741
REMARK  Name = 
REMARK  6 active torsions:
REMARK  status: ('A' for Active; 'I' for Inactive)
REMARK    1  A    between atoms: C_1  and  C_2
REMARK    2  A    between atoms: C_2  and  C_3
REMARK    3  A    between atoms: C_3  and  N_4
REMARK    4  A    between atoms: C_8  and  C_9
REMARK    5  A    between atoms: N_11  and  C_12
REMARK    6  A    between atoms: N_19  and  C_20
REMARK                            x       y       z     vdW  Elec       q    Type
REMARK                         _______ _______ _______ _____ _____    ______ ____
ROOT
ATOM      1  N   UNL     1      -0.492  10.690  21.726  0.00  0.00    +0.000 N 
ATOM      2  C   UNL     1       0.490   9.825  22.189  0.00  0.00    +0.000 A 
ATOM      3  O   UNL     1       0.779   9.664  23.373  0.00  0.00    +0.000 OA
ATOM      4  C   UNL     1       1.262   9.063  21.191  0.00  0.00    +0.000 A 
ATOM      5  C   UNL     1       1.027   9.143  19.877  0.00  0.00    +0.000 A 
ATOM      6  C   UNL     1      -0.112   9.972  19.407  0.00  0.00    +0.000 A 
ATOM      7  C   UNL     1      -0.523   9.984  18.061  0.00  0.00    +0.000 A 
ATOM      8  C   UNL     1      -1.545  10.824  17.616  0.00  0.00    +0.000 A 
ATOM      9  C   UNL     1      -2.156  11.692  18.506  0.00  0.00    +0.000 A 
ATOM     10  C   UNL     1      -1.792  11.669  19.854  0.00  0.00    +0.000 A 
ATOM     11  C   UNL     1      -0.802  10.790  20.331  0.00  0.00    +0.000 A 
ENDROOT
BRANCH   5  12
ATOM     12  C   UNL     1       1.894   8.312  18.970  0.00  0.00    +0.000 C 
ATOM     13  O   UNL     1       2.601   8.837  18.119  0.00  0.00    +0.000 OA
ATOM     14  N   UNL     1       1.873   6.941  19.174  0.00  0.00    +0.000 N 
ATOM     15  H   UNL     1       1.381   6.553  19.967  0.00  0.00    +0.000 HD
BRANCH  14  16
ATOM     16  C   UNL     1       2.792   6.072  18.438  0.00  0.00    +0.000 C 
ATOM     17  C   UNL     1       4.050   5.739  19.265  0.00  0.00    +0.000 C 
ATOM     18  C   UNL     1       4.857   4.571  18.641  0.00  0.00    +0.000 C 
ATOM     19  C   UNL     1       4.411   3.186  19.149  0.00  0.00    +0.000 C 
ATOM     20  C   UNL     1       3.469   2.648  18.073  0.00  0.00    +0.000 C 
ATOM     21  C   UNL     1       3.196   3.877  17.211  0.00  0.00    +0.000 C 
ATOM     22  C   UNL     1       2.137   4.785  17.914  0.00  0.00    +0.000 C 
ATOM     23  N   UNL     1       4.505   4.568  17.213  0.00  0.00    +0.000 NA
ATOM     24  C   UNL     1       5.525   3.962  16.366  0.00  0.00    +0.000 C 
ENDBRANCH  14  16
ENDBRANCH   5  12
BRANCH   1  25
ATOM     25  C   UNL     1      -1.259  11.426  22.735  0.00  0.00    +0.000 C 
BRANCH  25  27
ATOM     26  C   UNL     1      -1.935  13.786  23.482  0.00  0.00    +0.000 C 
ATOM     27  C   UNL     1      -0.844  12.895  22.906  0.00  0.00    +0.000 C 
ENDBRANCH  25  27
ENDBRANCH   1  25
TORSDOF 4
ENDMDL
MODEL 5
REMARK VINA RESULT:      -7.7      1.688      3.549
REMARK  Name = 
REMARK  6 active torsions:
REMARK  status: ('A' for Active; 'I' for Inactive)
REMARK    1  A    between atoms: C_1  and  C_2
REMARK    2  A    between atoms: C_2  and  C_3
REMARK    3  A    between atoms: C_3  and  N_4
REMARK    4  A    between atoms: C_8  and  C_9
REMARK    5  A    between atoms: N_11  and  C_12
REMARK    6  A    between atoms: N_19  and  C_20
REMARK                            x       y       z     vdW  Elec       q    Type
REMARK                         _______ _______ _______ _____ _____    ______ ____
ROOT
ATOM      1  N   UNL     1       3.302   4.216  19.237  0.00  0.00    +0.000 N 
ATOM      2  C   UNL     1       2.495   4.932  20.110  0.00  0.00    +0.000 A 
ATOM      3  O   UNL     1       1.998   4.475  21.138  0.00  0.00    +0.000 OA
ATOM      4  C   UNL     1       2.189   6.334  19.772  0.00  0.00    +0.000 A 
ATOM      5  C   UNL     1       2.685   6.944  18.690  0.00  0.00    +0.000 A 
ATOM      6  C   UNL     1       3.650   6.206  17.837  0.00  0.00    +0.000 A 
ATOM      7  C   UNL     1       4.336   6.825  16.775  0.00  0.00    +0.000 A 
ATOM      8  C   UNL     1       5.183   6.104  15.932  0.00  0.00    +0.000 A 
ATOM      9  C   UNL     1       5.335   4.739  16.117  0.00  0.00    +0.000 A 
ATOM     10  C   UNL     1       4.696   4.112  17.187  0.00  0.00    +0.000 A 
ATOM     11  C   UNL     1       3.882   4.833  18.080  0.00  0.00    +0.000 A 
ENDROOT
BRANCH   5  12
ATOM     12  C   UNL     1       2.286   8.377  18.464  0.00  0.00    +0.000 C 
ATOM     13  O   UNL     1       2.554   8.948  17.414  0.00  0.00    +0.000 OA
ATOM     14  N   UNL     1       1.578   8.994  19.483  0.00  0.00    +0.000 N 
ATOM     15  H   UNL     1       1.260   8.457  20.278  0.00  0.00    +0.000 HD
BRANCH  14  16
ATOM     16  C   UNL     1       1.023  10.335  19.290  0.00  0.00    +0.000 C 
ATOM     17  C   UNL     1      -0.290  10.301  18.485  0.00  0.00    +0.000 C 
ATOM     18  C   UNL     1      -1.048  11.651  18.561  0.00  0.00    +0.000 C 
ATOM     19  C   UNL     1      -2.024  11.733  19.751  0.00  0.00    +0.000 C 
ATOM     20  C   UNL     1      -1.268  12.494  20.838  0.00  0.00    +0.000 C 
ATOM     21  C   UNL     1       0.167  12.501  20.318  0.00  0.00    +0.000 C 
ATOM     22  C   UNL     1       0.831  11.117  20.599  0.00  0.00    +0.000 C 
ATOM     23  N   UNL     1      -0.022  12.662  18.859  0.00  0.00    +0.000 NA
ATOM     24  C   UNL     1      -0.389  14.005  18.427  0.00  0.00    +0.000 C 
ENDBRANCH  14  16
ENDBRANCH   5  12
BRANCH   1  25
ATOM     25  C   UNL     1       3.608   2.830  19.600  0.00  0.00    +0.000 C 
BRANCH  25  27
ATOM     26  C   UNL     1       1.309   2.146  18.686  0.00  0.00    +0.000 C 
ATOM     27  C   UNL     1       2.776   1.776  18.853  0.00  0.00    +0.000 C 
ENDBRANCH  25  27
ENDBRANCH   1  25
TORSDOF 4
ENDMDL
MODEL 6
REMARK VINA RESULT:      -7.6      1.055      1.071
REMARK  Name = 
REMARK  6 active torsions:
REMARK  status: ('A' for Active; 'I' for Inactive)
REMARK    1  A    between atoms: C_1  and  C_2
REMARK    2  A    between atoms: C_2  and  C_3
REMARK    3  A    between atoms: C_3  and  N_4
REMARK    4  A    between atoms: C_8  and  C_9
REMARK    5  A    between atoms: N_11  and  C_12
REMARK    6  A    between atoms: N_19  and  C_20
REMARK                            x       y       z     vdW  Elec       q    Type
REMARK                         _______ _______ _______ _____ _____    ______ ____
ROOT
ATOM      1  N   UNL     1       5.035   5.267  17.422  0.00  0.00    +0.000 N 
ATOM      2  C   UNL     1       4.779   6.550  16.961  0.00  0.00    +0.000 A 
ATOM      3  O   UNL     1       5.356   7.081  16.014  0.00  0.00    +0.000 OA
ATOM      4  C   UNL     1       3.761   7.346  17.671  0.00  0.00    +0.000 A 
ATOM      5  C   UNL     1       3.058   6.870  18.703  0.00  0.00    +0.000 A 
ATOM      6  C   UNL     1       3.249   5.453  19.101  0.00  0.00    +0.000 A 
ATOM      7  C   UNL     1       2.439   4.831  20.070  0.00  0.00    +0.000 A 
ATOM      8  C   UNL     1       2.676   3.523  20.492  0.00  0.00    +0.000 A 
ATOM      9  C   UNL     1       3.752   2.819  19.973  0.00  0.00    +0.000 A 
ATOM     10  C   UNL     1       4.545   3.401  18.983  0.00  0.00    +0.000 A 
ATOM     11  C   UNL     1       4.287   4.700  18.506  0.00  0.00    +0.000 A 
ENDROOT
BRANCH   5  12
ATOM     12  C   UNL     1       2.054   7.795  19.337  0.00  0.00    +0.000 C 
ATOM     13  O   UNL     1       1.682   7.624  20.491  0.00  0.00    +0.000 OA
ATOM     14  N   UNL     1       1.607   8.853  18.563  0.00  0.00    +0.000 N 
ATOM     15  H   UNL     1       2.031   9.040  17.664  0.00  0.00    +0.000 HD
BRANCH  14  16
ATOM     16  C   UNL     1       0.745   9.882  19.146  0.00  0.00    +0.000 C 
ATOM     17  C   UNL     1       1.418  11.268  19.135  0.00  0.00    +0.000 C 
ATOM     18  C   UNL     1       0.407  12.403  19.435  0.00  0.00    +0.000 C 
ATOM     19  C   UNL     1      -0.277  12.957  18.169  0.00  0.00    +0.000 C 
ATOM     20  C   UNL     1      -1.628  12.246  18.100  0.00  0.00    +0.000 C 
ATOM     21  C   UNL     1      -1.478  11.124  19.124  0.00  0.00    +0.000 C 
ATOM     22  C   UNL     1      -0.648   9.957  18.502  0.00  0.00    +0.000 C 
ATOM     23  N   UNL     1      -0.683  11.770  20.192  0.00  0.00    +0.000 NA
ATOM     24  C   UNL     1      -1.422  12.701  21.035  0.00  0.00    +0.000 C 
ENDBRANCH  14  16
ENDBRANCH   5  12
BRANCH   1  25
ATOM     25  C   UNL     1       6.037   4.485  16.692  0.00  0.00    +0.000 C 
BRANCH  25  27
ATOM     26  C   UNL     1       6.106   4.181  14.145  0.00  0.00    +0.000 C 
ATOM     27  C   UNL     1       5.493   3.738  15.466  0.00  0.00    +0.000 C 
ENDBRANCH  25  27
ENDBRANCH   1  25
TORSDOF 4
ENDMDL
MODEL 7
REMARK VINA RESULT:      -7.3      1.489      1.787
REMARK  Name = 
REMARK  6 active torsions:
REMARK  status: ('A' for Active; 'I' for Inactive)
REMARK    1  A    between atoms: C_1  and  C_2
REMARK    2  A    between atoms: C_2  and  C_3
REMARK    3  A    between atoms: C_3  and  N_4
REMARK    4  A    between atoms: C_8  and  C_9
REMARK    5  A    between atoms: N_11  and  C_12
REMARK    6  A    between atoms: N_19  and  C_20
REMARK                            x       y       z     vdW  Elec       q    Type
REMARK                         _______ _______ _______ _____ _____    ______ ____
ROOT
ATOM      1  N   UNL     1       3.838   5.210  17.791  0.00  0.00    +0.000 N 
ATOM      2  C   UNL     1       3.857   6.569  17.511  0.00  0.00    +0.000 A 
ATOM      3  O   UNL     1       4.489   7.085  16.591  0.00  0.00    +0.000 OA
ATOM      4  C   UNL     1       3.085   7.464  18.392  0.00  0.00    +0.000 A 
ATOM      5  C   UNL     1       2.346   7.017  19.412  0.00  0.00    +0.000 A 
ATOM      6  C   UNL     1       2.232   5.552  19.620  0.00  0.00    +0.000 A 
ATOM      7  C   UNL     1       1.352   4.997  20.568  0.00  0.00    +0.000 A 
ATOM      8  C   UNL     1       1.308   3.623  20.809  0.00  0.00    +0.000 A 
ATOM      9  C   UNL     1       2.167   2.779  20.124  0.00  0.00    +0.000 A 
ATOM     10  C   UNL     1       3.019   3.302  19.150  0.00  0.00    +0.000 A 
ATOM     11  C   UNL     1       3.039   4.678  18.856  0.00  0.00    +0.000 A 
ENDROOT
BRANCH   5  12
ATOM     12  C   UNL     1       1.613   8.044  20.233  0.00  0.00    +0.000 C 
ATOM     13  O   UNL     1       1.513   7.924  21.447  0.00  0.00    +0.000 OA
ATOM     14  N   UNL     1       1.095   9.133  19.549  0.00  0.00    +0.000 N 
ATOM     15  H   UNL     1       1.309   9.265  18.570  0.00  0.00    +0.000 HD
BRANCH  14  16
ATOM     16  C   UNL     1       0.497  10.248  20.283  0.00  0.00    +0.000 C 
ATOM     17  C   UNL     1       1.422  11.480  20.307  0.00  0.00    +0.000 C 
ATOM     18  C   UNL     1       0.675  12.753  20.782  0.00  0.00    +0.000 C 
ATOM     19  C   UNL     1       0.013  13.533  19.629  0.00  0.00    +0.000 C 
ATOM     20  C   UNL     1      -1.450  13.095  19.637  0.00  0.00    +0.000 C 
ATOM     21  C   UNL     1      -1.439  11.879  20.559  0.00  0.00    +0.000 C 
ATOM     22  C   UNL     1      -0.902  10.637  19.781  0.00  0.00    +0.000 C 
ATOM     23  N   UNL     1      -0.453  12.269  21.592  0.00  0.00    +0.000 NA
ATOM     24  C   UNL     1      -0.929  13.244  22.565  0.00  0.00    +0.000 C 
ENDBRANCH  14  16
ENDBRANCH   5  12
BRANCH   1  25
ATOM     25  C   UNL     1       4.598   4.335  16.894  0.00  0.00    +0.000 C 
BRANCH  25  27
ATOM     26  C   UNL     1       6.992   4.582  16.005  0.00  0.00    +0.000 C 
ATOM     27  C   UNL     1       6.102   4.262  17.197  0.00  0.00    +0.000 C 
ENDBRANCH  25  27
ENDBRANCH   1  25
TORSDOF 4
ENDMDL
MODEL 8
REMARK VINA RESULT:      -7.3      2.229      8.737
REMARK  Name = 
REMARK  6 active torsions:
REMARK  status: ('A' for Active; 'I' for Inactive)
REMARK    1  A    between atoms: C_1  and  C_2
REMARK    2  A    between atoms: C_2  and  C_3
REMARK    3  A    between atoms: C_3  and  N_4
REMARK    4  A    between atoms: C_8  and  C_9
REMARK    5  A    between atoms: N_11  and  C_12
REMARK    6  A    between atoms: N_19  and  C_20
REMARK                            x       y       z     vdW  Elec       q    Type
REMARK                         _______ _______ _______ _____ _____    ______ ____
ROOT
ATOM      1  N   UNL     1      -1.454  12.234  20.312  0.00  0.00    +0.000 N 
ATOM      2  C   UNL     1      -0.304  11.947  21.035  0.00  0.00    +0.000 A 
ATOM      3  O   UNL     1       0.011  12.490  22.092  0.00  0.00    +0.000 OA
ATOM      4  C   UNL     1       0.619  10.937  20.486  0.00  0.00    +0.000 A 
ATOM      5  C   UNL     1       0.374  10.269  19.355  0.00  0.00    +0.000 A 
ATOM      6  C   UNL     1      -0.920  10.493  18.662  0.00  0.00    +0.000 A 
ATOM      7  C   UNL     1      -1.322   9.718  17.558  0.00  0.00    +0.000 A 
ATOM      8  C   UNL     1      -2.504   9.986  16.867  0.00  0.00    +0.000 A 
ATOM      9  C   UNL     1      -3.295  11.057  17.251  0.00  0.00    +0.000 A 
ATOM     10  C   UNL     1      -2.937  11.815  18.368  0.00  0.00    +0.000 A 
ATOM     11  C   UNL     1      -1.776  11.525  19.109  0.00  0.00    +0.000 A 
ENDROOT
BRANCH   5  12
ATOM     12  C   UNL     1       1.406   9.269  18.908  0.00  0.00    +0.000 C 
ATOM     13  O   UNL     1       2.189   9.533  18.004  0.00  0.00    +0.000 OA
ATOM     14  N   UNL     1       1.441   8.064  19.592  0.00  0.00    +0.000 N 
ATOM     15  H   UNL     1       0.871   7.931  20.415  0.00  0.00    +0.000 HD
BRANCH  14  16
ATOM     16  C   UNL     1       2.504   7.094  19.323  0.00  0.00    +0.000 C 
ATOM     17  C   UNL     1       2.462   5.911  20.309  0.00  0.00    +0.000 C 
ATOM     18  C   UNL     1       3.354   4.735  19.837  0.00  0.00    +0.000 C 
ATOM     19  C   UNL     1       2.608   3.734  18.931  0.00  0.00    +0.000 C 
ATOM     20  C   UNL     1       2.979   4.132  17.503  0.00  0.00    +0.000 C 
ATOM     21  C   UNL     1       3.629   5.500  17.686  0.00  0.00    +0.000 C 
ATOM     22  C   UNL     1       2.522   6.585  17.874  0.00  0.00    +0.000 C 
ATOM     23  N   UNL     1       4.368   5.337  18.959  0.00  0.00    +0.000 NA
ATOM     24  C   UNL     1       5.594   4.553  18.865  0.00  0.00    +0.000 C 
ENDBRANCH  14  16
ENDBRANCH   5  12
BRANCH   1  25
ATOM     25  C   UNL     1      -2.368  13.228  20.883  0.00  0.00    +0.000 C 
BRANCH  25  27
ATOM     26  C   UNL     1      -4.829  12.870  21.517  0.00  0.00    +0.000 C 
ATOM     27  C   UNL     1      -3.370  12.662  21.900  0.00  0.00    +0.000 C 
ENDBRANCH  25  27
ENDBRANCH   1  25
TORSDOF 4
ENDMDL
MODEL 9
REMARK VINA RESULT:      -7.3      1.068      1.818
REMARK  Name = 
REMARK  6 active torsions:
REMARK  status: ('A' for Active; 'I' for Inactive)
REMARK    1  A    between atoms: C_1  and  C_2
REMARK    2  A    between atoms: C_2  and  C_3
REMARK    3  A    between atoms: C_3  and  N_4
REMARK    4  A    between atoms: C_8  and  C_9
REMARK    5  A    between atoms: N_11  and  C_12
REMARK    6  A    between atoms: N_19  and  C_20
REMARK                            x       y       z     vdW  Elec       q    Type
REMARK                         _______ _______ _______ _____ _____    ______ ____
ROOT
ATOM      1  N   UNL     1       4.820   5.065  16.775  0.00  0.00    +0.000 N 
ATOM      2  C   UNL     1       4.855   6.406  16.417  0.00  0.00    +0.000 A 
ATOM      3  O   UNL     1       5.613   6.885  15.576  0.00  0.00    +0.000 OA
ATOM      4  C   UNL     1       3.939   7.328  17.111  0.00  0.00    +0.000 A 
ATOM      5  C   UNL     1       3.059   6.921  18.032  0.00  0.00    +0.000 A 
ATOM      6  C   UNL     1       2.942   5.467  18.310  0.00  0.00    +0.000 A 
ATOM      7  C   UNL     1       1.937   4.943  19.145  0.00  0.00    +0.000 A 
ATOM      8  C   UNL     1       1.883   3.585  19.460  0.00  0.00    +0.000 A 
ATOM      9  C   UNL     1       2.854   2.727  18.969  0.00  0.00    +0.000 A 
ATOM     10  C   UNL     1       3.837   3.217  18.107  0.00  0.00    +0.000 A 
ATOM     11  C   UNL     1       3.875   4.574  17.735  0.00  0.00    +0.000 A 
ENDROOT
BRANCH   5  12
ATOM     12  C   UNL     1       2.188   7.972  18.665  0.00  0.00    +0.000 C 
ATOM     13  O   UNL     1       2.114   8.079  19.882  0.00  0.00    +0.000 OA
ATOM     14  N   UNL     1       1.510   8.820  17.803  0.00  0.00    +0.000 N 
ATOM     15  H   UNL     1       1.695   8.788  16.810  0.00  0.00    +0.000 HD
BRANCH  14  16
ATOM     16  C   UNL     1       0.758   9.960  18.329  0.00  0.00    +0.000 C 
ATOM     17  C   UNL     1      -0.088   9.570  19.557  0.00  0.00    +0.000 C 
ATOM     18  C   UNL     1      -0.616  10.816  20.312  0.00  0.00    +0.000 C 
ATOM     19  C   UNL     1       0.352  11.321  21.401  0.00  0.00    +0.000 C 
ATOM     20  C   UNL     1       1.120  12.472  20.752  0.00  0.00    +0.000 C 
ATOM     21  C   UNL     1       0.773  12.325  19.273  0.00  0.00    +0.000 C 
ATOM     22  C   UNL     1       1.633  11.182  18.645  0.00  0.00    +0.000 C 
ATOM     23  N   UNL     1      -0.643  11.898  19.316  0.00  0.00    +0.000 NA
ATOM     24  C   UNL     1      -1.597  12.954  19.633  0.00  0.00    +0.000 C 
ENDBRANCH  14  16
ENDBRANCH   5  12
BRANCH   1  25
ATOM     25  C   UNL     1       5.726   4.162  16.061  0.00  0.00    +0.000 C 
BRANCH  25  27
ATOM     26  C   UNL     1       7.525   4.646  17.827  0.00  0.00    +0.000 C 
ATOM     27  C   UNL     1       7.216   4.387  16.359  0.00  0.00    +0.000 C 
ENDBRANCH  25  27
ENDBRANCH   1  25
TORSDOF 4
ENDMDL
