MODEL 1
REMARK VINA RESULT:      -8.6      0.000      0.000
REMARK  Name = 
REMARK  6 active torsions:
REMARK  status: ('A' for Active; 'I' for Inactive)
REMARK    1  A    between atoms: C_2  and  O_3
REMARK    2  A    between atoms: C_2  and  C_4
REMARK    3  A    between atoms: C_7  and  O_8
REMARK    4  A    between atoms: O_8  and  C_9
REMARK    5  A    between atoms: C_12  and  C_13
REMARK    6  A    between atoms: C_16  and  C_17
REMARK                            x       y       z     vdW  Elec       q    Type
REMARK                         _______ _______ _______ _____ _____    ______ ____
ROOT
ATOM      1  C   UNL     1       3.078   6.739  18.301  0.00  0.00    +0.000 A 
ATOM      2  C   UNL     1       2.781   7.921  17.649  0.00  0.00    +0.000 A 
ATOM      3  C   UNL     1       2.038   8.880  18.325  0.00  0.00    +0.000 A 
ATOM      4  C   UNL     1       1.571   8.636  19.626  0.00  0.00    +0.000 A 
ATOM      5  C   UNL     1       1.938   7.406  20.181  0.00  0.00    +0.000 A 
ATOM      6  N   UNL     1       2.676   6.449  19.553  0.00  0.00    +0.000 NA
ENDROOT
BRANCH   4   7
ATOM      7  C   UNL     1       0.742   9.613  20.346  0.00  0.00    +0.000 A 
ATOM      8  C   UNL     1       0.609   9.580  21.736  0.00  0.00    +0.000 A 
ATOM      9  C   UNL     1      -0.229  10.496  22.369  0.00  0.00    +0.000 A 
ATOM     10  C   UNL     1      -0.924  11.436  21.616  0.00  0.00    +0.000 A 
ATOM     11  C   UNL     1      -0.709  11.422  20.242  0.00  0.00    +0.000 A 
ATOM     12  N   UNL     1       0.099  10.539  19.595  0.00  0.00    +0.000 NA
BRANCH  10  13
ATOM     13  C   UNL     1      -1.812  12.382  22.280  0.00  0.00    +0.000 A 
ATOM     14  N   UNL     1      -3.076  12.600  21.964  0.00  0.00    +0.000 NA
ATOM     15  C   UNL     1      -3.522  13.576  22.818  0.00  0.00    +0.000 A 
ATOM     16  C   UNL     1      -4.791  14.157  22.920  0.00  0.00    +0.000 A 
ATOM     17  C   UNL     1      -4.978  15.152  23.884  0.00  0.00    +0.000 A 
ATOM     18 CL   UNL     1      -6.530  15.883  24.049  0.00  0.00    +0.000 Cl
ATOM     19  C   UNL     1      -3.934  15.567  24.716  0.00  0.00    +0.000 A 
ATOM     20  C   UNL     1      -2.661  14.994  24.622  0.00  0.00    +0.000 A 
ATOM     21  C   UNL     1      -2.501  13.994  23.661  0.00  0.00    +0.000 A 
ATOM     22  N   UNL     1      -1.426  13.223  23.300  0.00  0.00    +0.000 N 
ATOM     23  H   UNL     1      -0.498  13.287  23.691  0.00  0.00    +0.000 HD
ENDBRANCH  10  13
ENDBRANCH   4   7
BRANCH   1  24
ATOM     24  O   UNL     1       3.816   5.829  17.577  0.00  0.00    +0.000 OA
BRANCH  24  28
ATOM     25  C   UNL     1       6.714   4.606  16.106  0.00  0.00    +0.000 C 
ATOM     26  C   UNL     1       6.657   5.936  16.869  0.00  0.00    +0.000 C 
ATOM     27  C   UNL     1       6.167   5.741  18.303  0.00  0.00    +0.000 C 
ATOM     28  C   UNL     1       4.779   5.085  18.333  0.00  0.00    +0.000 C 
ATOM     29  C   UNL     1       4.886   3.709  17.651  0.00  0.00    +0.000 C 
ATOM     30  C   UNL     1       5.404   3.815  16.211  0.00  0.00    +0.000 C 
BRANCH  25  32
ATOM     31  O   UNL     1       7.911   5.619  14.240  0.00  0.00    +0.000 OA
ATOM     32  C   UNL     1       7.039   4.862  14.642  0.00  0.00    +0.000 C 
BRANCH  32  33
ATOM     33  O   UNL     1       6.240   4.180  13.792  0.00  0.00    +0.000 OA
ATOM     34  H   UNL     1       5.310   4.473  13.793  0.00  0.00    +0.000 HD
ENDBRANCH  32  33
ENDBRANCH  25  32
ENDBRANCH  24  28
ENDBRANCH   1  24
TORSDOF 6
ENDMDL
MODEL 2
REMARK VINA RESULT:      -8.6      0.603      1.079
REMARK  Name = 
REMARK  6 active torsions:
REMARK  status: ('A' for Active; 'I' for Inactive)
REMARK    1  A    between atoms: C_2  and  O_3
REMARK    2  A    between atoms: C_2  and  C_4
REMARK    3  A    between atoms: C_7  and  O_8
REMARK    4  A    between atoms: O_8  and  C_9
REMARK    5  A    between atoms: C_12  and  C_13
REMARK    6  A    between atoms: C_16  and  C_17
REMARK                            x       y       z     vdW  Elec       q    Type
REMARK                         _______ _______ _______ _____ _____    ______ ____
ROOT
ATOM      1  C   UNL     1       2.992   7.016  18.262  0.00  0.00    +0.000 A 
ATOM      2  C   UNL     1       2.611   8.140  17.554  0.00  0.00    +0.000 A 
ATOM      3  C   UNL     1       1.818   9.085  18.193  0.00  0.00    +0.000 A 
ATOM      4  C   UNL     1       1.387   8.882  19.512  0.00  0.00    +0.000 A 
ATOM      5  C   UNL     1       1.840   7.710  20.125  0.00  0.00    +0.000 A 
ATOM      6  N   UNL     1       2.628   6.769  19.535  0.00  0.00    +0.000 NA
ENDROOT
BRANCH   4   7
ATOM      7  C   UNL     1       0.509   9.843  20.196  0.00  0.00    +0.000 A 
ATOM      8  C   UNL     1      -0.417  10.618  19.496  0.00  0.00    +0.000 A 
ATOM      9  C   UNL     1      -1.192  11.552  20.181  0.00  0.00    +0.000 A 
ATOM     10  C   UNL     1      -1.039  11.705  21.555  0.00  0.00    +0.000 A 
ATOM     11  C   UNL     1      -0.120  10.870  22.181  0.00  0.00    +0.000 A 
ATOM     12  N   UNL     1       0.652   9.953  21.539  0.00  0.00    +0.000 NA
BRANCH  10  13
ATOM     13  C   UNL     1      -1.839  12.694  22.266  0.00  0.00    +0.000 A 
ATOM     14  N   UNL     1      -3.015  13.154  21.878  0.00  0.00    +0.000 NA
ATOM     15  C   UNL     1      -3.396  14.076  22.818  0.00  0.00    +0.000 A 
ATOM     16  C   UNL     1      -4.567  14.840  22.892  0.00  0.00    +0.000 A 
ATOM     17  C   UNL     1      -4.702  15.726  23.965  0.00  0.00    +0.000 A 
ATOM     18 CL   UNL     1      -6.134  16.676  24.097  0.00  0.00    +0.000 Cl
ATOM     19  C   UNL     1      -3.700  15.858  24.932  0.00  0.00    +0.000 A 
ATOM     20  C   UNL     1      -2.526  15.100  24.867  0.00  0.00    +0.000 A 
ATOM     21  C   UNL     1      -2.419  14.215  23.794  0.00  0.00    +0.000 A 
ATOM     22  N   UNL     1      -1.441  13.329  23.422  0.00  0.00    +0.000 N 
ATOM     23  H   UNL     1      -0.560  13.190  23.895  0.00  0.00    +0.000 HD
ENDBRANCH  10  13
ENDBRANCH   4   7
BRANCH   1  24
ATOM     24  O   UNL     1       3.776   6.117  17.574  0.00  0.00    +0.000 OA
BRANCH  24  28
ATOM     25  C   UNL     1       6.509   4.478  16.193  0.00  0.00    +0.000 C 
ATOM     26  C   UNL     1       6.603   5.863  16.847  0.00  0.00    +0.000 C 
ATOM     27  C   UNL     1       6.114   5.836  18.294  0.00  0.00    +0.000 C 
ATOM     28  C   UNL     1       4.664   5.336  18.383  0.00  0.00    +0.000 C 
ATOM     29  C   UNL     1       4.616   3.907  17.814  0.00  0.00    +0.000 C 
ATOM     30  C   UNL     1       5.123   3.842  16.368  0.00  0.00    +0.000 C 
BRANCH  25  32
ATOM     31  O   UNL     1       6.311   3.920  13.829  0.00  0.00    +0.000 OA
ATOM     32  C   UNL     1       6.840   4.580  14.713  0.00  0.00    +0.000 C 
BRANCH  32  33
ATOM     33  O   UNL     1       7.818   5.474  14.446  0.00  0.00    +0.000 OA
ATOM     34  H   UNL     1       8.400   5.667  15.203  0.00  0.00    +0.000 HD
ENDBRANCH  32  33
ENDBRANCH  25  32
ENDBRANCH  24  28
ENDBRANCH   1  24
TORSDOF 6
ENDMDL
MODEL 3
REMARK VINA RESULT:      -8.6      1.419      2.129
REMARK  Name = 
REMARK  6 active torsions:
REMARK  status: ('A' for Active; 'I' for Inactive)
REMARK    1  A    between atoms: C_2  and  O_3
REMARK    2  A    between atoms: C_2  and  C_4
REMARK    3  A    between atoms: C_7  and  O_8
REMARK    4  A    between atoms: O_8  and  C_9
REMARK    5  A    between atoms: C_12  and  C_13
REMARK    6  A    between atoms: C_16  and  C_17
REMARK                            x       y       z     vdW  Elec       q    Type
REMARK                         _______ _______ _______ _____ _____    ______ ____
ROOT
ATOM      1  C   UNL     1       2.478   7.606  18.668  0.00  0.00    +0.000 A 
ATOM      2  C   UNL     1       2.001   8.625  17.864  0.00  0.00    +0.000 A 
ATOM      3  C   UNL     1       1.149   9.566  18.427  0.00  0.00    +0.000 A 
ATOM      4  C   UNL     1       0.756   9.462  19.770  0.00  0.00    +0.000 A 
ATOM      5  C   UNL     1       1.306   8.392  20.482  0.00  0.00    +0.000 A 
ATOM      6  N   UNL     1       2.154   7.458  19.966  0.00  0.00    +0.000 NA
ENDROOT
BRANCH   4   7
ATOM      7  C   UNL     1      -0.182  10.417  20.378  0.00  0.00    +0.000 A 
ATOM      8  C   UNL     1      -1.069  11.169  19.606  0.00  0.00    +0.000 A 
ATOM      9  C   UNL     1      -1.902  12.098  20.223  0.00  0.00    +0.000 A 
ATOM     10  C   UNL     1      -1.847  12.272  21.602  0.00  0.00    +0.000 A 
ATOM     11  C   UNL     1      -0.960  11.461  22.301  0.00  0.00    +0.000 A 
ATOM     12  N   UNL     1      -0.132  10.547  21.726  0.00  0.00    +0.000 NA
BRANCH  10  13
ATOM     13  C   UNL     1      -2.709  13.257  22.243  0.00  0.00    +0.000 A 
ATOM     14  N   UNL     1      -2.307  14.209  23.067  0.00  0.00    +0.000 NA
ATOM     15  C   UNL     1      -3.436  14.886  23.450  0.00  0.00    +0.000 A 
ATOM     16  C   UNL     1      -3.564  15.993  24.297  0.00  0.00    +0.000 A 
ATOM     17  C   UNL     1      -4.850  16.489  24.532  0.00  0.00    +0.000 A 
ATOM     18 CL   UNL     1      -5.049  17.858  25.560  0.00  0.00    +0.000 Cl
ATOM     19  C   UNL     1      -5.977  15.899  23.952  0.00  0.00    +0.000 A 
ATOM     20  C   UNL     1      -5.860  14.791  23.104  0.00  0.00    +0.000 A 
ATOM     21  C   UNL     1      -4.566  14.321  22.875  0.00  0.00    +0.000 A 
ATOM     22  N   UNL     1      -4.080  13.289  22.115  0.00  0.00    +0.000 N 
ATOM     23  H   UNL     1      -4.636  12.639  21.579  0.00  0.00    +0.000 HD
ENDBRANCH  10  13
ENDBRANCH   4   7
BRANCH   1  24
ATOM     24  O   UNL     1       3.316   6.704  18.051  0.00  0.00    +0.000 OA
BRANCH  24  28
ATOM     25  C   UNL     1       5.875   4.396  17.623  0.00  0.00    +0.000 C 
ATOM     26  C   UNL     1       5.656   5.175  18.927  0.00  0.00    +0.000 C 
ATOM     27  C   UNL     1       4.256   4.944  19.493  0.00  0.00    +0.000 C 
ATOM     28  C   UNL     1       3.173   5.345  18.480  0.00  0.00    +0.000 C 
ATOM     29  C   UNL     1       3.352   4.479  17.221  0.00  0.00    +0.000 C 
ATOM     30  C   UNL     1       4.750   4.630  16.607  0.00  0.00    +0.000 C 
BRANCH  25  32
ATOM     31  O   UNL     1       8.270   4.212  17.212  0.00  0.00    +0.000 OA
ATOM     32  C   UNL     1       7.209   4.784  17.005  0.00  0.00    +0.000 C 
BRANCH  32  33
ATOM     33  O   UNL     1       7.128   5.867  16.201  0.00  0.00    +0.000 OA
ATOM     34  H   UNL     1       6.438   6.506  16.458  0.00  0.00    +0.000 HD
ENDBRANCH  32  33
ENDBRANCH  25  32
ENDBRANCH  24  28
ENDBRANCH   1  24
TORSDOF 6
ENDMDL
MODEL 4
REMARK VINA RESULT:      -8.6      0.603      1.134
REMARK  Name = 
REMARK  6 active torsions:
REMARK  status: ('A' for Active; 'I' for Inactive)
REMARK    1  A    between atoms: C_2  and  O_3
REMARK    2  A    between atoms: C_2  and  C_4
REMARK    3  A    between atoms: C_7  and  O_8
REMARK    4  A    between atoms: O_8  and  C_9
REMARK    5  A    between atoms: C_12  and  C_13
REMARK    6  A    between atoms: C_16  and  C_17
REMARK                            x       y       z     vdW  Elec       q    Type
REMARK                         _______ _______ _______ _____ _____    ______ ____
ROOT
ATOM      1  C   UNL     1       2.985   6.892  18.348  0.00  0.00    +0.000 A 
ATOM      2  C   UNL     1       2.674   8.061  17.678  0.00  0.00    +0.000 A 
ATOM      3  C   UNL     1       1.913   9.017  18.337  0.00  0.00    +0.000 A 
ATOM      4  C   UNL     1       1.442   8.783  19.638  0.00  0.00    +0.000 A 
ATOM      5  C   UNL     1       1.825   7.567  20.213  0.00  0.00    +0.000 A 
ATOM      6  N   UNL     1       2.581   6.613  19.601  0.00  0.00    +0.000 NA
ENDROOT
BRANCH   4   7
ATOM      7  C   UNL     1       0.595   9.758  20.341  0.00  0.00    +0.000 A 
ATOM      8  C   UNL     1       0.309   9.635  21.702  0.00  0.00    +0.000 A 
ATOM      9  C   UNL     1      -0.541  10.555  22.312  0.00  0.00    +0.000 A 
ATOM     10  C   UNL     1      -1.097  11.588  21.565  0.00  0.00    +0.000 A 
ATOM     11  C   UNL     1      -0.734  11.658  20.224  0.00  0.00    +0.000 A 
ATOM     12  N   UNL     1       0.090  10.774  19.600  0.00  0.00    +0.000 NA
BRANCH  10  13
ATOM     13  C   UNL     1      -1.999  12.539  22.203  0.00  0.00    +0.000 A 
ATOM     14  N   UNL     1      -1.637  13.668  22.786  0.00  0.00    +0.000 NA
ATOM     15  C   UNL     1      -2.788  14.235  23.270  0.00  0.00    +0.000 A 
ATOM     16  C   UNL     1      -2.965  15.444  23.953  0.00  0.00    +0.000 A 
ATOM     17  C   UNL     1      -4.261  15.787  24.350  0.00  0.00    +0.000 A 
ATOM     18 CL   UNL     1      -4.521  17.273  25.182  0.00  0.00    +0.000 Cl
ATOM     19  C   UNL     1      -5.349  14.949  24.086  0.00  0.00    +0.000 A 
ATOM     20  C   UNL     1      -5.183  13.738  23.406  0.00  0.00    +0.000 A 
ATOM     21  C   UNL     1      -3.883  13.423  23.009  0.00  0.00    +0.000 A 
ATOM     22  N   UNL     1      -3.357  12.352  22.333  0.00  0.00    +0.000 N 
ATOM     23  H   UNL     1      -3.874  11.546  22.014  0.00  0.00    +0.000 HD
ENDBRANCH  10  13
ENDBRANCH   4   7
BRANCH   1  24
ATOM     24  O   UNL     1       3.741   5.984  17.640  0.00  0.00    +0.000 OA
BRANCH  24  28
ATOM     25  C   UNL     1       6.561   4.480  16.281  0.00  0.00    +0.000 C 
ATOM     26  C   UNL     1       6.604   5.813  17.039  0.00  0.00    +0.000 C 
ATOM     27  C   UNL     1       6.044   5.674  18.454  0.00  0.00    +0.000 C 
ATOM     28  C   UNL     1       4.599   5.154  18.433  0.00  0.00    +0.000 C 
ATOM     29  C   UNL     1       4.599   3.772  17.758  0.00  0.00    +0.000 C 
ATOM     30  C   UNL     1       5.177   3.820  16.338  0.00  0.00    +0.000 C 
BRANCH  25  32
ATOM     31  O   UNL     1       7.852   5.447  14.454  0.00  0.00    +0.000 OA
ATOM     32  C   UNL     1       6.963   4.696  14.830  0.00  0.00    +0.000 C 
BRANCH  32  33
ATOM     33  O   UNL     1       6.215   3.984  13.958  0.00  0.00    +0.000 OA
ATOM     34  H   UNL     1       5.258   4.004  14.143  0.00  0.00    +0.000 HD
ENDBRANCH  32  33
ENDBRANCH  25  32
ENDBRANCH  24  28
ENDBRANCH   1  24
TORSDOF 6
ENDMDL
MODEL 5
REMARK VINA RESULT:      -8.6      1.315      1.655
REMARK  Name = 
REMARK  6 active torsions:
REMARK  status: ('A' for Active; 'I' for Inactive)
REMARK    1  A    between atoms: C_2  and  O_3
REMARK    2  A    between atoms: C_2  and  C_4
REMARK    3  A    between atoms: C_7  and  O_8
REMARK    4  A    between atoms: O_8  and  C_9
REMARK    5  A    between atoms: C_12  and  C_13
REMARK    6  A    between atoms: C_16  and  C_17
REMARK                            x       y       z     vdW  Elec       q    Type
REMARK                         _______ _______ _______ _____ _____    ______ ____
ROOT
ATOM      1  C   UNL     1       2.479   7.580  18.717  0.00  0.00    +0.000 A 
ATOM      2  C   UNL     1       2.064   8.641  17.933  0.00  0.00    +0.000 A 
ATOM      3  C   UNL     1       1.232   9.596  18.502  0.00  0.00    +0.000 A 
ATOM      4  C   UNL     1       0.796   9.465  19.829  0.00  0.00    +0.000 A 
ATOM      5  C   UNL     1       1.284   8.353  20.522  0.00  0.00    +0.000 A 
ATOM      6  N   UNL     1       2.112   7.405  20.000  0.00  0.00    +0.000 NA
ENDROOT
BRANCH   4   7
ATOM      7  C   UNL     1      -0.123  10.436  20.441  0.00  0.00    +0.000 A 
ATOM      8  C   UNL     1      -0.166  10.638  21.822  0.00  0.00    +0.000 A 
ATOM      9  C   UNL     1      -1.090  11.532  22.359  0.00  0.00    +0.000 A 
ATOM     10  C   UNL     1      -1.960  12.218  21.519  0.00  0.00    +0.000 A 
ATOM     11  C   UNL     1      -1.829  11.985  20.154  0.00  0.00    +0.000 A 
ATOM     12  N   UNL     1      -0.940  11.117  19.600  0.00  0.00    +0.000 NA
BRANCH  10  13
ATOM     13  C   UNL     1      -2.937  13.140  22.085  0.00  0.00    +0.000 A 
ATOM     14  N   UNL     1      -4.176  13.304  21.658  0.00  0.00    +0.000 NA
ATOM     15  C   UNL     1      -4.729  14.276  22.451  0.00  0.00    +0.000 A 
ATOM     16  C   UNL     1      -6.023  14.809  22.433  0.00  0.00    +0.000 A 
ATOM     17  C   UNL     1      -6.329  15.813  23.357  0.00  0.00    +0.000 A 
ATOM     18 CL   UNL     1      -7.916  16.486  23.374  0.00  0.00    +0.000 Cl
ATOM     19  C   UNL     1      -5.376  16.282  24.267  0.00  0.00    +0.000 A 
ATOM     20  C   UNL     1      -4.079  15.757  24.293  0.00  0.00    +0.000 A 
ATOM     21  C   UNL     1      -3.801  14.748  23.370  0.00  0.00    +0.000 A 
ATOM     22  N   UNL     1      -2.671  14.013  23.117  0.00  0.00    +0.000 N 
ATOM     23  H   UNL     1      -1.783  14.119  23.585  0.00  0.00    +0.000 HD
ENDBRANCH  10  13
ENDBRANCH   4   7
BRANCH   1  24
ATOM     24  O   UNL     1       3.301   6.667  18.095  0.00  0.00    +0.000 OA
BRANCH  24  28
ATOM     25  C   UNL     1       5.926   4.436  17.658  0.00  0.00    +0.000 C 
ATOM     26  C   UNL     1       5.755   5.295  18.918  0.00  0.00    +0.000 C 
ATOM     27  C   UNL     1       4.404   5.049  19.588  0.00  0.00    +0.000 C 
ATOM     28  C   UNL     1       3.244   5.336  18.623  0.00  0.00    +0.000 C 
ATOM     29  C   UNL     1       3.382   4.392  17.416  0.00  0.00    +0.000 C 
ATOM     30  C   UNL     1       4.731   4.555  16.704  0.00  0.00    +0.000 C 
BRANCH  25  32
ATOM     31  O   UNL     1       7.280   5.710  16.082  0.00  0.00    +0.000 OA
ATOM     32  C   UNL     1       7.201   4.833  16.930  0.00  0.00    +0.000 C 
BRANCH  32  33
ATOM     33  O   UNL     1       8.273   4.093  17.291  0.00  0.00    +0.000 OA
ATOM     34  H   UNL     1       8.991   4.605  17.706  0.00  0.00    +0.000 HD
ENDBRANCH  32  33
ENDBRANCH  25  32
ENDBRANCH  24  28
ENDBRANCH   1  24
TORSDOF 6
ENDMDL
MODEL 6
REMARK VINA RESULT:      -8.5      0.843      1.591
REMARK  Name = 
REMARK  6 active torsions:
REMARK  status: ('A' for Active; 'I' for Inactive)
REMARK    1  A    between atoms: C_2  and  O_3
REMARK    2  A    between atoms: C_2  and  C_4
REMARK    3  A    between atoms: C_7  and  O_8
REMARK    4  A    between atoms: O_8  and  C_9
REMARK    5  A    between atoms: C_12  and  C_13
REMARK    6  A    between atoms: C_16  and  C_17
REMARK                            x       y       z     vdW  Elec       q    Type
REMARK                         _______ _______ _______ _____ _____    ______ ____
ROOT
ATOM      1  C   UNL     1       2.992   7.161  18.283  0.00  0.00    +0.000 A 
ATOM      2  C   UNL     1       2.595   8.261  17.546  0.00  0.00    +0.000 A 
ATOM      3  C   UNL     1       1.752   9.188  18.146  0.00  0.00    +0.000 A 
ATOM      4  C   UNL     1       1.288   8.990  19.455  0.00  0.00    +0.000 A 
ATOM      5  C   UNL     1       1.760   7.843  20.100  0.00  0.00    +0.000 A 
ATOM      6  N   UNL     1       2.597   6.920  19.548  0.00  0.00    +0.000 NA
ENDROOT
BRANCH   4   7
ATOM      7  C   UNL     1       0.358   9.930  20.096  0.00  0.00    +0.000 A 
ATOM      8  C   UNL     1      -0.603  10.629  19.363  0.00  0.00    +0.000 A 
ATOM      9  C   UNL     1      -1.428  11.547  20.008  0.00  0.00    +0.000 A 
ATOM     10  C   UNL     1      -1.292  11.763  21.375  0.00  0.00    +0.000 A 
ATOM     11  C   UNL     1      -0.333  11.003  22.037  0.00  0.00    +0.000 A 
ATOM     12  N   UNL     1       0.488  10.101  21.435  0.00  0.00    +0.000 NA
BRANCH  10  13
ATOM     13  C   UNL     1      -2.145  12.737  22.043  0.00  0.00    +0.000 A 
ATOM     14  N   UNL     1      -1.725  13.735  22.800  0.00  0.00    +0.000 NA
ATOM     15  C   UNL     1      -2.851  14.380  23.243  0.00  0.00    +0.000 A 
ATOM     16  C   UNL     1      -2.964  15.513  24.057  0.00  0.00    +0.000 A 
ATOM     17  C   UNL     1      -4.249  15.966  24.371  0.00  0.00    +0.000 A 
ATOM     18 CL   UNL     1      -4.430  17.365  25.361  0.00  0.00    +0.000 Cl
ATOM     19  C   UNL     1      -5.390  15.309  23.898  0.00  0.00    +0.000 A 
ATOM     20  C   UNL     1      -5.287  14.175  23.085  0.00  0.00    +0.000 A 
ATOM     21  C   UNL     1      -3.995  13.749  22.775  0.00  0.00    +0.000 A 
ATOM     22  N   UNL     1      -3.522  12.708  22.018  0.00  0.00    +0.000 N 
ATOM     23  H   UNL     1      -4.088  12.016  21.549  0.00  0.00    +0.000 HD
ENDBRANCH  10  13
ENDBRANCH   4   7
BRANCH   1  24
ATOM     24  O   UNL     1       3.826   6.279  17.633  0.00  0.00    +0.000 OA
BRANCH  24  28
ATOM     25  C   UNL     1       6.514   4.488  16.356  0.00  0.00    +0.000 C 
ATOM     26  C   UNL     1       6.650   5.895  16.955  0.00  0.00    +0.000 C 
ATOM     27  C   UNL     1       6.143   5.945  18.395  0.00  0.00    +0.000 C 
ATOM     28  C   UNL     1       4.675   5.501  18.485  0.00  0.00    +0.000 C 
ATOM     29  C   UNL     1       4.583   4.053  17.974  0.00  0.00    +0.000 C 
ATOM     30  C   UNL     1       5.104   3.910  16.538  0.00  0.00    +0.000 C 
BRANCH  25  32
ATOM     31  O   UNL     1       6.351   3.814  14.020  0.00  0.00    +0.000 OA
ATOM     32  C   UNL     1       6.866   4.518  14.877  0.00  0.00    +0.000 C 
BRANCH  32  33
ATOM     33  O   UNL     1       7.847   5.400  14.580  0.00  0.00    +0.000 OA
ATOM     34  H   UNL     1       8.698   4.987  14.346  0.00  0.00    +0.000 HD
ENDBRANCH  32  33
ENDBRANCH  25  32
ENDBRANCH  24  28
ENDBRANCH   1  24
TORSDOF 6
ENDMDL
MODEL 7
REMARK VINA RESULT:      -8.5      0.969      1.628
REMARK  Name = 
REMARK  6 active torsions:
REMARK  status: ('A' for Active; 'I' for Inactive)
REMARK    1  A    between atoms: C_2  and  O_3
REMARK    2  A    between atoms: C_2  and  C_4
REMARK    3  A    between atoms: C_7  and  O_8
REMARK    4  A    between atoms: O_8  and  C_9
REMARK    5  A    between atoms: C_12  and  C_13
REMARK    6  A    between atoms: C_16  and  C_17
REMARK                            x       y       z     vdW  Elec       q    Type
REMARK                         _______ _______ _______ _____ _____    ______ ____
ROOT
ATOM      1  C   UNL     1       2.970   7.489  17.970  0.00  0.00    +0.000 A 
ATOM      2  C   UNL     1       2.605   7.149  19.259  0.00  0.00    +0.000 A 
ATOM      3  C   UNL     1       1.740   7.993  19.944  0.00  0.00    +0.000 A 
ATOM      4  C   UNL     1       1.280   9.179  19.352  0.00  0.00    +0.000 A 
ATOM      5  C   UNL     1       1.716   9.414  18.044  0.00  0.00    +0.000 A 
ATOM      6  N   UNL     1       2.552   8.602  17.338  0.00  0.00    +0.000 NA
ENDROOT
BRANCH   4   7
ATOM      7  C   UNL     1       0.402  10.114  20.072  0.00  0.00    +0.000 A 
ATOM      8  C   UNL     1       0.213  10.029  21.452  0.00  0.00    +0.000 A 
ATOM      9  C   UNL     1      -0.668  10.905  22.082  0.00  0.00    +0.000 A 
ATOM     10  C   UNL     1      -1.352  11.858  21.334  0.00  0.00    +0.000 A 
ATOM     11  C   UNL     1      -1.081  11.897  19.971  0.00  0.00    +0.000 A 
ATOM     12  N   UNL     1      -0.229  11.054  19.327  0.00  0.00    +0.000 NA
BRANCH  10  13
ATOM     13  C   UNL     1      -2.286  12.762  21.994  0.00  0.00    +0.000 A 
ATOM     14  N   UNL     1      -1.955  13.837  22.686  0.00  0.00    +0.000 NA
ATOM     15  C   UNL     1      -3.129  14.373  23.147  0.00  0.00    +0.000 A 
ATOM     16  C   UNL     1      -3.341  15.525  23.913  0.00  0.00    +0.000 A 
ATOM     17  C   UNL     1      -4.657  15.846  24.261  0.00  0.00    +0.000 A 
ATOM     18 CL   UNL     1      -4.960  17.263  25.194  0.00  0.00    +0.000 Cl
ATOM     19  C   UNL     1      -5.732  15.041  23.868  0.00  0.00    +0.000 A 
ATOM     20  C   UNL     1      -5.531  13.887  23.102  0.00  0.00    +0.000 A 
ATOM     21  C   UNL     1      -4.211  13.594  22.758  0.00  0.00    +0.000 A 
ATOM     22  N   UNL     1      -3.650  12.577  22.028  0.00  0.00    +0.000 N 
ATOM     23  H   UNL     1      -4.150  11.803  21.616  0.00  0.00    +0.000 HD
ENDBRANCH  10  13
ENDBRANCH   4   7
BRANCH   1  24
ATOM     24  O   UNL     1       3.830   6.613  17.345  0.00  0.00    +0.000 OA
BRANCH  24  28
ATOM     25  C   UNL     1       6.328   4.526  16.137  0.00  0.00    +0.000 C 
ATOM     26  C   UNL     1       6.606   5.920  16.716  0.00  0.00    +0.000 C 
ATOM     27  C   UNL     1       6.088   6.048  18.147  0.00  0.00    +0.000 C 
ATOM     28  C   UNL     1       4.580   5.764  18.222  0.00  0.00    +0.000 C 
ATOM     29  C   UNL     1       4.340   4.326  17.731  0.00  0.00    +0.000 C 
ATOM     30  C   UNL     1       4.863   4.104  16.306  0.00  0.00    +0.000 C 
BRANCH  25  32
ATOM     31  O   UNL     1       6.210   3.742  13.833  0.00  0.00    +0.000 OA
ATOM     32  C   UNL     1       6.701   4.493  14.663  0.00  0.00    +0.000 C 
BRANCH  32  33
ATOM     33  O   UNL     1       7.671   5.377  14.339  0.00  0.00    +0.000 OA
ATOM     34  H   UNL     1       7.344   6.196  13.923  0.00  0.00    +0.000 HD
ENDBRANCH  32  33
ENDBRANCH  25  32
ENDBRANCH  24  28
ENDBRANCH   1  24
TORSDOF 6
ENDMDL
MODEL 8
REMARK VINA RESULT:      -8.4      1.105      1.773
REMARK  Name = 
REMARK  6 active torsions:
REMARK  status: ('A' for Active; 'I' for Inactive)
REMARK    1  A    between atoms: C_2  and  O_3
REMARK    2  A    between atoms: C_2  and  C_4
REMARK    3  A    between atoms: C_7  and  O_8
REMARK    4  A    between atoms: O_8  and  C_9
REMARK    5  A    between atoms: C_12  and  C_13
REMARK    6  A    between atoms: C_16  and  C_17
REMARK                            x       y       z     vdW  Elec       q    Type
REMARK                         _______ _______ _______ _____ _____    ______ ____
ROOT
ATOM      1  C   UNL     1       2.978   7.517  18.038  0.00  0.00    +0.000 A 
ATOM      2  C   UNL     1       2.515   7.151  19.288  0.00  0.00    +0.000 A 
ATOM      3  C   UNL     1       1.606   7.986  19.926  0.00  0.00    +0.000 A 
ATOM      4  C   UNL     1       1.200   9.189  19.329  0.00  0.00    +0.000 A 
ATOM      5  C   UNL     1       1.734   9.449  18.064  0.00  0.00    +0.000 A 
ATOM      6  N   UNL     1       2.615   8.647  17.403  0.00  0.00    +0.000 NA
ENDROOT
BRANCH   4   7
ATOM      7  C   UNL     1       0.278  10.114  20.004  0.00  0.00    +0.000 A 
ATOM      8  C   UNL     1      -0.817  10.673  19.341  0.00  0.00    +0.000 A 
ATOM      9  C   UNL     1      -1.633  11.584  20.007  0.00  0.00    +0.000 A 
ATOM     10  C   UNL     1      -1.354  11.931  21.325  0.00  0.00    +0.000 A 
ATOM     11  C   UNL     1      -0.266  11.304  21.922  0.00  0.00    +0.000 A 
ATOM     12  N   UNL     1       0.551  10.413  21.297  0.00  0.00    +0.000 NA
BRANCH  10  13
ATOM     13  C   UNL     1      -2.200  12.898  22.014  0.00  0.00    +0.000 A 
ATOM     14  N   UNL     1      -1.771  13.907  22.750  0.00  0.00    +0.000 NA
ATOM     15  C   UNL     1      -2.891  14.540  23.224  0.00  0.00    +0.000 A 
ATOM     16  C   UNL     1      -2.995  15.677  24.034  0.00  0.00    +0.000 A 
ATOM     17  C   UNL     1      -4.276  16.114  24.385  0.00  0.00    +0.000 A 
ATOM     18 CL   UNL     1      -4.446  17.517  25.371  0.00  0.00    +0.000 Cl
ATOM     19  C   UNL     1      -5.421  15.437  23.954  0.00  0.00    +0.000 A 
ATOM     20  C   UNL     1      -5.328  14.298  23.145  0.00  0.00    +0.000 A 
ATOM     21  C   UNL     1      -4.041  13.889  22.798  0.00  0.00    +0.000 A 
ATOM     22  N   UNL     1      -3.577  12.849  22.032  0.00  0.00    +0.000 N 
ATOM     23  H   UNL     1      -4.147  12.146  21.587  0.00  0.00    +0.000 HD
ENDBRANCH  10  13
ENDBRANCH   4   7
BRANCH   1  24
ATOM     24  O   UNL     1       3.875   6.648  17.458  0.00  0.00    +0.000 OA
BRANCH  24  28
ATOM     25  C   UNL     1       6.330   4.439  16.386  0.00  0.00    +0.000 C 
ATOM     26  C   UNL     1       6.643   5.746  17.126  0.00  0.00    +0.000 C 
ATOM     27  C   UNL     1       5.948   5.804  18.485  0.00  0.00    +0.000 C 
ATOM     28  C   UNL     1       4.425   5.661  18.338  0.00  0.00    +0.000 C 
ATOM     29  C   UNL     1       4.134   4.298  17.687  0.00  0.00    +0.000 C 
ATOM     30  C   UNL     1       4.825   4.147  16.325  0.00  0.00    +0.000 C 
BRANCH  25  32
ATOM     31  O   UNL     1       7.673   5.343  14.565  0.00  0.00    +0.000 OA
ATOM     32  C   UNL     1       6.896   4.493  14.976  0.00  0.00    +0.000 C 
BRANCH  32  33
ATOM     33  O   UNL     1       6.435   3.504  14.178  0.00  0.00    +0.000 OA
ATOM     34  H   UNL     1       5.764   3.792  13.532  0.00  0.00    +0.000 HD
ENDBRANCH  32  33
ENDBRANCH  25  32
ENDBRANCH  24  28
ENDBRANCH   1  24
TORSDOF 6
ENDMDL
MODEL 9
REMARK VINA RESULT:      -8.4      1.176      1.804
REMARK  Name = 
REMARK  6 active torsions:
REMARK  status: ('A' for Active; 'I' for Inactive)
REMARK    1  A    between atoms: C_2  and  O_3
REMARK    2  A    between atoms: C_2  and  C_4
REMARK    3  A    between atoms: C_7  and  O_8
REMARK    4  A    between atoms: O_8  and  C_9
REMARK    5  A    between atoms: C_12  and  C_13
REMARK    6  A    between atoms: C_16  and  C_17
REMARK                            x       y       z     vdW  Elec       q    Type
REMARK                         _______ _______ _______ _____ _____    ______ ____
ROOT
ATOM      1  C   UNL     1       2.938   6.334  18.284  0.00  0.00    +0.000 A 
ATOM      2  C   UNL     1       2.436   5.994  19.526  0.00  0.00    +0.000 A 
ATOM      3  C   UNL     1       1.782   6.972  20.265  0.00  0.00    +0.000 A 
ATOM      4  C   UNL     1       1.667   8.281  19.774  0.00  0.00    +0.000 A 
ATOM      5  C   UNL     1       2.211   8.504  18.505  0.00  0.00    +0.000 A 
ATOM      6  N   UNL     1       2.846   7.566  17.748  0.00  0.00    +0.000 NA
ENDROOT
BRANCH   4   7
ATOM      7  C   UNL     1       1.023   9.347  20.555  0.00  0.00    +0.000 A 
ATOM      8  C   UNL     1       0.516   9.116  21.835  0.00  0.00    +0.000 A 
ATOM      9  C   UNL     1      -0.132  10.144  22.516  0.00  0.00    +0.000 A 
ATOM     10  C   UNL     1      -0.270  11.392  21.918  0.00  0.00    +0.000 A 
ATOM     11  C   UNL     1       0.292  11.549  20.655  0.00  0.00    +0.000 A 
ATOM     12  N   UNL     1       0.927  10.563  19.965  0.00  0.00    +0.000 NA
BRANCH  10  13
ATOM     13  C   UNL     1      -0.963  12.461  22.626  0.00  0.00    +0.000 A 
ATOM     14  N   UNL     1      -0.393  13.528  23.155  0.00  0.00    +0.000 NA
ATOM     15  C   UNL     1      -1.400  14.252  23.739  0.00  0.00    +0.000 A 
ATOM     16  C   UNL     1      -1.338  15.475  24.418  0.00  0.00    +0.000 A 
ATOM     17  C   UNL     1      -2.529  15.997  24.932  0.00  0.00    +0.000 A 
ATOM     18 CL   UNL     1      -2.497  17.506  25.764  0.00  0.00    +0.000 Cl
ATOM     19  C   UNL     1      -3.745  15.321  24.786  0.00  0.00    +0.000 A 
ATOM     20  C   UNL     1      -3.817  14.098  24.110  0.00  0.00    +0.000 A 
ATOM     21  C   UNL     1      -2.618  13.603  23.596  0.00  0.00    +0.000 A 
ATOM     22  N   UNL     1      -2.316  12.468  22.887  0.00  0.00    +0.000 N 
ATOM     23  H   UNL     1      -2.969  11.742  22.631  0.00  0.00    +0.000 HD
ENDBRANCH  10  13
ENDBRANCH   4   7
BRANCH   1  24
ATOM     24  O   UNL     1       3.575   5.322  17.602  0.00  0.00    +0.000 OA
BRANCH  24  28
ATOM     25  C   UNL     1       6.570   4.378  16.120  0.00  0.00    +0.000 C 
ATOM     26  C   UNL     1       6.404   5.674  16.925  0.00  0.00    +0.000 C 
ATOM     27  C   UNL     1       5.921   5.395  18.347  0.00  0.00    +0.000 C 
ATOM     28  C   UNL     1       4.588   4.631  18.343  0.00  0.00    +0.000 C 
ATOM     29  C   UNL     1       4.808   3.291  17.619  0.00  0.00    +0.000 C 
ATOM     30  C   UNL     1       5.325   3.484  16.187  0.00  0.00    +0.000 C 
BRANCH  25  32
ATOM     31  O   UNL     1       6.297   4.240  13.702  0.00  0.00    +0.000 OA
ATOM     32  C   UNL     1       6.884   4.706  14.668  0.00  0.00    +0.000 C 
BRANCH  32  33
ATOM     33  O   UNL     1       7.918   5.566  14.528  0.00  0.00    +0.000 OA
ATOM     34  H   UNL     1       8.255   5.927  15.368  0.00  0.00    +0.000 HD
ENDBRANCH  32  33
ENDBRANCH  25  32
ENDBRANCH  24  28
ENDBRANCH   1  24
TORSDOF 6
ENDMDL
