MODEL 1
REMARK VINA RESULT:      -7.4      0.000      0.000
REMARK  Name = 
REMARK  8 active torsions:
REMARK  status: ('A' for Active; 'I' for Inactive)
REMARK    1  A    between atoms: C_2  and  C_4
REMARK    2  A    between atoms: C_4  and  O_5
REMARK    3  A    between atoms: O_5  and  C_6
REMARK    4  A    between atoms: C_6  and  C_8
REMARK    5  A    between atoms: C_13  and  O_14
REMARK    6  A    between atoms: O_14  and  C_15
REMARK    7  A    between atoms: C_15  and  C_16
REMARK    8  A    between atoms: N_18  and  C_19
REMARK                            x       y       z     vdW  Elec       q    Type
REMARK                         _______ _______ _______ _____ _____    ______ ____
ROOT
ATOM      1  C   UNL     1       6.514   5.738  16.940  0.00  0.00    +0.000 A 
ATOM      2  C   UNL     1       7.549   6.658  17.229  0.00  0.00    +0.000 A 
ATOM      3  C   UNL     1       8.086   6.776  18.511  0.00  0.00    +0.000 A 
ATOM      4  C   UNL     1       7.604   5.971  19.529  0.00  0.00    +0.000 A 
ATOM      5  C   UNL     1       6.576   5.065  19.265  0.00  0.00    +0.000 A 
ATOM      6  C   UNL     1       6.002   4.941  17.986  0.00  0.00    +0.000 A 
ENDROOT
BRANCH   1   7
ATOM      7  C   UNL     1       6.052   5.731  15.513  0.00  0.00    +0.000 C 
ATOM      8  O   UNL     1       5.157   6.460  15.104  0.00  0.00    +0.000 OA
BRANCH   7   9
ATOM      9  O   UNL     1       6.666   4.787  14.768  0.00  0.00    +0.000 OA
BRANCH   9  10
ATOM     10  C   UNL     1       5.805   3.956  13.982  0.00  0.00    +0.000 C 
BRANCH  10  12
ATOM     11  N   UNL     1       5.580   2.762  11.850  0.00  0.00    +0.000 N 
ATOM     12  C   UNL     1       6.288   3.684  12.561  0.00  0.00    +0.000 C 
ATOM     13  O   UNL     1       7.278   4.224  12.071  0.00  0.00    +0.000 OA
ATOM     14  H   UNL     1       5.942   2.490  10.943  0.00  0.00    +0.000 HD
ATOM     15  H   UNL     1       4.867   2.187  12.283  0.00  0.00    +0.000 HD
ENDBRANCH  10  12
ENDBRANCH   9  10
ENDBRANCH   7   9
ENDBRANCH   1   7
BRANCH   6  16
ATOM     16  O   UNL     1       4.998   4.026  17.733  0.00  0.00    +0.000 OA
BRANCH  16  17
ATOM     17  C   UNL     1       3.929   4.044  18.675  0.00  0.00    +0.000 C 
BRANCH  17  18
ATOM     18  C   UNL     1       2.869   5.130  18.512  0.00  0.00    +0.000 C 
ATOM     19  O   UNL     1       1.950   4.946  17.711  0.00  0.00    +0.000 OA
ATOM     20  N   UNL     1       3.108   6.282  19.227  0.00  0.00    +0.000 N 
ATOM     21  H   UNL     1       3.979   6.315  19.748  0.00  0.00    +0.000 HD
BRANCH  20  22
ATOM     22  C   UNL     1       2.308   7.444  19.220  0.00  0.00    +0.000 A 
ATOM     23  C   UNL     1       1.626   7.907  20.350  0.00  0.00    +0.000 A 
ATOM     24  C   UNL     1       0.847   9.067  20.294  0.00  0.00    +0.000 A 
ATOM     25  C   UNL     1       0.739   9.765  19.092  0.00  0.00    +0.000 A 
ATOM     26 BR   UNL     1      -0.317  11.328  19.016  0.00  0.00    +0.000 Br
ATOM     27  C   UNL     1       1.410   9.314  17.959  0.00  0.00    +0.000 A 
ATOM     28  C   UNL     1       2.202   8.161  18.025  0.00  0.00    +0.000 A 
ENDBRANCH  20  22
ENDBRANCH  17  18
ENDBRANCH  16  17
ENDBRANCH   6  16
TORSDOF 8
ENDMDL
MODEL 2
REMARK VINA RESULT:      -7.4      3.377      5.111
REMARK  Name = 
REMARK  8 active torsions:
REMARK  status: ('A' for Active; 'I' for Inactive)
REMARK    1  A    between atoms: C_2  and  C_4
REMARK    2  A    between atoms: C_4  and  O_5
REMARK    3  A    between atoms: O_5  and  C_6
REMARK    4  A    between atoms: C_6  and  C_8
REMARK    5  A    between atoms: C_13  and  O_14
REMARK    6  A    between atoms: O_14  and  C_15
REMARK    7  A    between atoms: C_15  and  C_16
REMARK    8  A    between atoms: N_18  and  C_19
REMARK                            x       y       z     vdW  Elec       q    Type
REMARK                         _______ _______ _______ _____ _____    ______ ____
ROOT
ATOM      1  C   UNL     1       4.205   4.373  17.102  0.00  0.00    +0.000 A 
ATOM      2  C   UNL     1       5.076   3.740  16.184  0.00  0.00    +0.000 A 
ATOM      3  C   UNL     1       6.112   4.436  15.560  0.00  0.00    +0.000 A 
ATOM      4  C   UNL     1       6.302   5.776  15.846  0.00  0.00    +0.000 A 
ATOM      5  C   UNL     1       5.446   6.420  16.741  0.00  0.00    +0.000 A 
ATOM      6  C   UNL     1       4.381   5.747  17.368  0.00  0.00    +0.000 A 
ENDROOT
BRANCH   1   7
ATOM      7  C   UNL     1       3.148   3.485  17.690  0.00  0.00    +0.000 C 
ATOM      8  O   UNL     1       2.166   3.117  17.056  0.00  0.00    +0.000 OA
BRANCH   7   9
ATOM      9  O   UNL     1       3.358   3.213  18.995  0.00  0.00    +0.000 OA
BRANCH   9  10
ATOM     10  C   UNL     1       2.184   3.120  19.809  0.00  0.00    +0.000 C 
BRANCH  10  12
ATOM     11  N   UNL     1       2.427   5.243  21.017  0.00  0.00    +0.000 N 
ATOM     12  C   UNL     1       2.243   3.897  21.121  0.00  0.00    +0.000 C 
ATOM     13  O   UNL     1       2.169   3.360  22.225  0.00  0.00    +0.000 OA
ATOM     14  H   UNL     1       2.572   5.765  21.874  0.00  0.00    +0.000 HD
ATOM     15  H   UNL     1       2.655   5.684  20.134  0.00  0.00    +0.000 HD
ENDBRANCH  10  12
ENDBRANCH   9  10
ENDBRANCH   7   9
ENDBRANCH   1   7
BRANCH   6  16
ATOM     16  O   UNL     1       3.553   6.392  18.267  0.00  0.00    +0.000 OA
BRANCH  16  17
ATOM     17  C   UNL     1       3.075   7.661  17.829  0.00  0.00    +0.000 C 
BRANCH  17  18
ATOM     18  C   UNL     1       2.039   8.361  18.703  0.00  0.00    +0.000 C 
ATOM     19  O   UNL     1       1.773   7.882  19.807  0.00  0.00    +0.000 OA
ATOM     20  N   UNL     1       1.414   9.436  18.110  0.00  0.00    +0.000 N 
ATOM     21  H   UNL     1       1.667   9.625  17.145  0.00  0.00    +0.000 HD
BRANCH  20  22
ATOM     22  C   UNL     1       0.396  10.225  18.686  0.00  0.00    +0.000 A 
ATOM     23  C   UNL     1       0.598  11.021  19.818  0.00  0.00    +0.000 A 
ATOM     24  C   UNL     1      -0.444  11.789  20.350  0.00  0.00    +0.000 A 
ATOM     25  C   UNL     1      -1.701  11.752  19.750  0.00  0.00    +0.000 A 
ATOM     26 BR   UNL     1      -3.107  12.785  20.472  0.00  0.00    +0.000 Br
ATOM     27  C   UNL     1      -1.916  10.962  18.624  0.00  0.00    +0.000 A 
ATOM     28  C   UNL     1      -0.866  10.207  18.087  0.00  0.00    +0.000 A 
ENDBRANCH  20  22
ENDBRANCH  17  18
ENDBRANCH  16  17
ENDBRANCH   6  16
TORSDOF 8
ENDMDL
MODEL 3
REMARK VINA RESULT:      -7.3      2.606      4.475
REMARK  Name = 
REMARK  8 active torsions:
REMARK  status: ('A' for Active; 'I' for Inactive)
REMARK    1  A    between atoms: C_2  and  C_4
REMARK    2  A    between atoms: C_4  and  O_5
REMARK    3  A    between atoms: O_5  and  C_6
REMARK    4  A    between atoms: C_6  and  C_8
REMARK    5  A    between atoms: C_13  and  O_14
REMARK    6  A    between atoms: O_14  and  C_15
REMARK    7  A    between atoms: C_15  and  C_16
REMARK    8  A    between atoms: N_18  and  C_19
REMARK                            x       y       z     vdW  Elec       q    Type
REMARK                         _______ _______ _______ _____ _____    ______ ____
ROOT
ATOM      1  C   UNL     1       3.821   3.869  18.073  0.00  0.00    +0.000 A 
ATOM      2  C   UNL     1       3.284   2.574  17.879  0.00  0.00    +0.000 A 
ATOM      3  C   UNL     1       2.030   2.221  18.377  0.00  0.00    +0.000 A 
ATOM      4  C   UNL     1       1.285   3.156  19.074  0.00  0.00    +0.000 A 
ATOM      5  C   UNL     1       1.802   4.435  19.284  0.00  0.00    +0.000 A 
ATOM      6  C   UNL     1       3.074   4.811  18.810  0.00  0.00    +0.000 A 
ENDROOT
BRANCH   1   7
ATOM      7  C   UNL     1       5.177   4.090  17.469  0.00  0.00    +0.000 C 
ATOM      8  O   UNL     1       5.377   4.049  16.262  0.00  0.00    +0.000 OA
BRANCH   7   9
ATOM      9  O   UNL     1       6.145   4.249  18.397  0.00  0.00    +0.000 OA
BRANCH   9  10
ATOM     10  C   UNL     1       7.392   4.758  17.915  0.00  0.00    +0.000 C 
BRANCH  10  12
ATOM     11  N   UNL     1       6.971   6.888  16.769  0.00  0.00    +0.000 N 
ATOM     12  C   UNL     1       7.496   6.280  17.870  0.00  0.00    +0.000 C 
ATOM     13  O   UNL     1       8.050   6.943  18.745  0.00  0.00    +0.000 OA
ATOM     14  H   UNL     1       7.119   7.886  16.669  0.00  0.00    +0.000 HD
ATOM     15  H   UNL     1       6.660   6.358  15.964  0.00  0.00    +0.000 HD
ENDBRANCH  10  12
ENDBRANCH   9  10
ENDBRANCH   7   9
ENDBRANCH   1   7
BRANCH   6  16
ATOM     16  O   UNL     1       3.566   6.087  19.008  0.00  0.00    +0.000 OA
BRANCH  16  17
ATOM     17  C   UNL     1       3.139   7.043  18.042  0.00  0.00    +0.000 C 
BRANCH  17  18
ATOM     18  C   UNL     1       2.186   8.138  18.512  0.00  0.00    +0.000 C 
ATOM     19  O   UNL     1       1.853   9.017  17.714  0.00  0.00    +0.000 OA
ATOM     20  N   UNL     1       1.862   8.087  19.850  0.00  0.00    +0.000 N 
ATOM     21  H   UNL     1       2.320   7.363  20.395  0.00  0.00    +0.000 HD
BRANCH  20  22
ATOM     22  C   UNL     1       1.036   9.000  20.538  0.00  0.00    +0.000 A 
ATOM     23  C   UNL     1       0.791  10.299  20.083  0.00  0.00    +0.000 A 
ATOM     24  C   UNL     1      -0.040  11.167  20.802  0.00  0.00    +0.000 A 
ATOM     25  C   UNL     1      -0.621  10.734  21.992  0.00  0.00    +0.000 A 
ATOM     26 BR   UNL     1      -1.737  11.907  22.962  0.00  0.00    +0.000 Br
ATOM     27  C   UNL     1      -0.383   9.444  22.458  0.00  0.00    +0.000 A 
ATOM     28  C   UNL     1       0.435   8.574  21.727  0.00  0.00    +0.000 A 
ENDBRANCH  20  22
ENDBRANCH  17  18
ENDBRANCH  16  17
ENDBRANCH   6  16
TORSDOF 8
ENDMDL
MODEL 4
REMARK VINA RESULT:      -7.3      3.297      4.661
REMARK  Name = 
REMARK  8 active torsions:
REMARK  status: ('A' for Active; 'I' for Inactive)
REMARK    1  A    between atoms: C_2  and  C_4
REMARK    2  A    between atoms: C_4  and  O_5
REMARK    3  A    between atoms: O_5  and  C_6
REMARK    4  A    between atoms: C_6  and  C_8
REMARK    5  A    between atoms: C_13  and  O_14
REMARK    6  A    between atoms: O_14  and  C_15
REMARK    7  A    between atoms: C_15  and  C_16
REMARK    8  A    between atoms: N_18  and  C_19
REMARK                            x       y       z     vdW  Elec       q    Type
REMARK                         _______ _______ _______ _____ _____    ______ ____
ROOT
ATOM      1  C   UNL     1       4.712   4.142  17.364  0.00  0.00    +0.000 A 
ATOM      2  C   UNL     1       5.584   3.791  16.306  0.00  0.00    +0.000 A 
ATOM      3  C   UNL     1       6.762   4.499  16.064  0.00  0.00    +0.000 A 
ATOM      4  C   UNL     1       7.095   5.567  16.879  0.00  0.00    +0.000 A 
ATOM      5  C   UNL     1       6.242   5.934  17.920  0.00  0.00    +0.000 A 
ATOM      6  C   UNL     1       5.038   5.250  18.173  0.00  0.00    +0.000 A 
ENDROOT
BRANCH   1   7
ATOM      7  C   UNL     1       3.492   3.277  17.493  0.00  0.00    +0.000 C 
ATOM      8  O   UNL     1       2.525   3.384  16.750  0.00  0.00    +0.000 OA
BRANCH   7   9
ATOM      9  O   UNL     1       3.550   2.444  18.554  0.00  0.00    +0.000 OA
BRANCH   9  10
ATOM     10  C   UNL     1       2.290   2.004  19.069  0.00  0.00    +0.000 C 
BRANCH  10  12
ATOM     11  N   UNL     1       0.612   3.172  20.429  0.00  0.00    +0.000 N 
ATOM     12  C   UNL     1       1.869   2.647  20.388  0.00  0.00    +0.000 C 
ATOM     13  O   UNL     1       2.613   2.733  21.363  0.00  0.00    +0.000 OA
ATOM     14  H   UNL     1       0.347   3.692  21.257  0.00  0.00    +0.000 HD
ATOM     15  H   UNL     1       0.043   3.261  19.595  0.00  0.00    +0.000 HD
ENDBRANCH  10  12
ENDBRANCH   9  10
ENDBRANCH   7   9
ENDBRANCH   1   7
BRANCH   6  16
ATOM     16  O   UNL     1       4.212   5.611  19.221  0.00  0.00    +0.000 OA
BRANCH  16  17
ATOM     17  C   UNL     1       2.938   6.112  18.826  0.00  0.00    +0.000 C 
BRANCH  17  18
ATOM     18  C   UNL     1       2.074   6.762  19.903  0.00  0.00    +0.000 C 
ATOM     19  O   UNL     1       1.581   6.047  20.779  0.00  0.00    +0.000 OA
ATOM     20  N   UNL     1       1.844   8.108  19.726  0.00  0.00    +0.000 N 
ATOM     21  H   UNL     1       2.228   8.521  18.881  0.00  0.00    +0.000 HD
BRANCH  20  22
ATOM     22  C   UNL     1       1.051   8.930  20.553  0.00  0.00    +0.000 A 
ATOM     23  C   UNL     1       1.062   8.845  21.949  0.00  0.00    +0.000 A 
ATOM     24  C   UNL     1       0.258   9.686  22.726  0.00  0.00    +0.000 A 
ATOM     25  C   UNL     1      -0.573  10.613  22.101  0.00  0.00    +0.000 A 
ATOM     26 BR   UNL     1      -1.661  11.743  23.151  0.00  0.00    +0.000 Br
ATOM     27  C   UNL     1      -0.597  10.707  20.712  0.00  0.00    +0.000 A 
ATOM     28  C   UNL     1       0.222   9.874  19.940  0.00  0.00    +0.000 A 
ENDBRANCH  20  22
ENDBRANCH  17  18
ENDBRANCH  16  17
ENDBRANCH   6  16
TORSDOF 8
ENDMDL
MODEL 5
REMARK VINA RESULT:      -7.2      2.439      4.240
REMARK  Name = 
REMARK  8 active torsions:
REMARK  status: ('A' for Active; 'I' for Inactive)
REMARK    1  A    between atoms: C_2  and  C_4
REMARK    2  A    between atoms: C_4  and  O_5
REMARK    3  A    between atoms: O_5  and  C_6
REMARK    4  A    between atoms: C_6  and  C_8
REMARK    5  A    between atoms: C_13  and  O_14
REMARK    6  A    between atoms: O_14  and  C_15
REMARK    7  A    between atoms: C_15  and  C_16
REMARK    8  A    between atoms: N_18  and  C_19
REMARK                            x       y       z     vdW  Elec       q    Type
REMARK                         _______ _______ _______ _____ _____    ______ ____
ROOT
ATOM      1  C   UNL     1       3.540   3.800  18.586  0.00  0.00    +0.000 A 
ATOM      2  C   UNL     1       3.052   2.564  18.099  0.00  0.00    +0.000 A 
ATOM      3  C   UNL     1       1.765   2.117  18.400  0.00  0.00    +0.000 A 
ATOM      4  C   UNL     1       0.938   2.900  19.186  0.00  0.00    +0.000 A 
ATOM      5  C   UNL     1       1.406   4.117  19.683  0.00  0.00    +0.000 A 
ATOM      6  C   UNL     1       2.707   4.581  19.413  0.00  0.00    +0.000 A 
ENDROOT
BRANCH   1   7
ATOM      7  C   UNL     1       4.941   4.137  18.167  0.00  0.00    +0.000 C 
ATOM      8  O   UNL     1       5.900   4.033  18.922  0.00  0.00    +0.000 OA
BRANCH   7   9
ATOM      9  O   UNL     1       5.008   4.638  16.915  0.00  0.00    +0.000 OA
BRANCH   9  10
ATOM     10  C   UNL     1       6.081   4.148  16.104  0.00  0.00    +0.000 C 
BRANCH  10  12
ATOM     11  N   UNL     1       7.318   6.239  16.454  0.00  0.00    +0.000 N 
ATOM     12  C   UNL     1       7.049   5.214  15.599  0.00  0.00    +0.000 C 
ATOM     13  O   UNL     1       7.545   5.193  14.474  0.00  0.00    +0.000 OA
ATOM     14  H   UNL     1       7.876   7.009  16.104  0.00  0.00    +0.000 HD
ATOM     15  H   UNL     1       6.799   6.366  17.316  0.00  0.00    +0.000 HD
ENDBRANCH  10  12
ENDBRANCH   9  10
ENDBRANCH   7   9
ENDBRANCH   1   7
BRANCH   6  16
ATOM     16  O   UNL     1       3.151   5.798  19.895  0.00  0.00    +0.000 OA
BRANCH  16  17
ATOM     17  C   UNL     1       2.682   6.930  19.168  0.00  0.00    +0.000 C 
BRANCH  17  18
ATOM     18  C   UNL     1       1.780   7.914  19.907  0.00  0.00    +0.000 C 
ATOM     19  O   UNL     1       1.407   7.636  21.048  0.00  0.00    +0.000 OA
ATOM     20  N   UNL     1       1.380   9.002  19.162  0.00  0.00    +0.000 N 
ATOM     21  H   UNL     1       1.682   9.018  18.193  0.00  0.00    +0.000 HD
BRANCH  20  22
ATOM     22  C   UNL     1       0.518  10.032  19.595  0.00  0.00    +0.000 A 
ATOM     23  C   UNL     1       0.788  10.834  20.708  0.00  0.00    +0.000 A 
ATOM     24  C   UNL     1      -0.098  11.846  21.095  0.00  0.00    +0.000 A 
ATOM     25  C   UNL     1      -1.270  12.049  20.369  0.00  0.00    +0.000 A 
ATOM     26 BR   UNL     1      -2.466  13.411  20.896  0.00  0.00    +0.000 Br
ATOM     27  C   UNL     1      -1.553  11.255  19.261  0.00  0.00    +0.000 A 
ATOM     28  C   UNL     1      -0.655  10.255  18.868  0.00  0.00    +0.000 A 
ENDBRANCH  20  22
ENDBRANCH  17  18
ENDBRANCH  16  17
ENDBRANCH   6  16
TORSDOF 8
ENDMDL
MODEL 6
REMARK VINA RESULT:      -7.2      3.471      5.306
REMARK  Name = 
REMARK  8 active torsions:
REMARK  status: ('A' for Active; 'I' for Inactive)
REMARK    1  A    between atoms: C_2  and  C_4
REMARK    2  A    between atoms: C_4  and  O_5
REMARK    3  A    between atoms: O_5  and  C_6
REMARK    4  A    between atoms: C_6  and  C_8
REMARK    5  A    between atoms: C_13  and  O_14
REMARK    6  A    between atoms: O_14  and  C_15
REMARK    7  A    between atoms: C_15  and  C_16
REMARK    8  A    between atoms: N_18  and  C_19
REMARK                            x       y       z     vdW  Elec       q    Type
REMARK                         _______ _______ _______ _____ _____    ______ ____
ROOT
ATOM      1  C   UNL     1       3.926   4.934  17.338  0.00  0.00    +0.000 A 
ATOM      2  C   UNL     1       4.457   3.893  16.539  0.00  0.00    +0.000 A 
ATOM      3  C   UNL     1       5.544   4.105  15.690  0.00  0.00    +0.000 A 
ATOM      4  C   UNL     1       6.127   5.359  15.629  0.00  0.00    +0.000 A 
ATOM      5  C   UNL     1       5.610   6.400  16.402  0.00  0.00    +0.000 A 
ATOM      6  C   UNL     1       4.501   6.219  17.250  0.00  0.00    +0.000 A 
ENDROOT
BRANCH   1   7
ATOM      7  C   UNL     1       2.762   4.541  18.199  0.00  0.00    +0.000 C 
ATOM      8  O   UNL     1       1.622   4.436  17.762  0.00  0.00    +0.000 OA
BRANCH   7   9
ATOM      9  O   UNL     1       3.095   4.403  19.500  0.00  0.00    +0.000 OA
BRANCH   9  10
ATOM     10  C   UNL     1       2.966   3.084  20.039  0.00  0.00    +0.000 C 
BRANCH  10  12
ATOM     11  N   UNL     1       0.540   3.117  20.410  0.00  0.00    +0.000 N 
ATOM     12  C   UNL     1       1.765   2.873  20.956  0.00  0.00    +0.000 C 
ATOM     13  O   UNL     1       1.867   2.538  22.134  0.00  0.00    +0.000 OA
ATOM     14  H   UNL     1      -0.264   3.083  21.026  0.00  0.00    +0.000 HD
ATOM     15  H   UNL     1       0.438   3.550  19.499  0.00  0.00    +0.000 HD
ENDBRANCH  10  12
ENDBRANCH   9  10
ENDBRANCH   7   9
ENDBRANCH   1   7
BRANCH   6  16
ATOM     16  O   UNL     1       4.013   7.253  18.026  0.00  0.00    +0.000 OA
BRANCH  16  17
ATOM     17  C   UNL     1       2.965   8.005  17.419  0.00  0.00    +0.000 C 
BRANCH  17  18
ATOM     18  C   UNL     1       1.955   8.675  18.346  0.00  0.00    +0.000 C 
ATOM     19  O   UNL     1       1.780   8.205  19.472  0.00  0.00    +0.000 OA
ATOM     20  N   UNL     1       1.246   9.709  17.776  0.00  0.00    +0.000 N 
ATOM     21  H   UNL     1       1.429   9.891  16.794  0.00  0.00    +0.000 HD
BRANCH  20  22
ATOM     22  C   UNL     1       0.231  10.463  18.402  0.00  0.00    +0.000 A 
ATOM     23  C   UNL     1      -1.127  10.300  18.114  0.00  0.00    +0.000 A 
ATOM     24  C   UNL     1      -2.097  11.071  18.765  0.00  0.00    +0.000 A 
ATOM     25  C   UNL     1      -1.703  12.022  19.703  0.00  0.00    +0.000 A 
ATOM     26 BR   UNL     1      -3.012  13.065  20.577  0.00  0.00    +0.000 Br
ATOM     27  C   UNL     1      -0.353  12.197  19.998  0.00  0.00    +0.000 A 
ATOM     28  C   UNL     1       0.612  11.412  19.356  0.00  0.00    +0.000 A 
ENDBRANCH  20  22
ENDBRANCH  17  18
ENDBRANCH  16  17
ENDBRANCH   6  16
TORSDOF 8
ENDMDL
MODEL 7
REMARK VINA RESULT:      -7.2      2.528      4.350
REMARK  Name = 
REMARK  8 active torsions:
REMARK  status: ('A' for Active; 'I' for Inactive)
REMARK    1  A    between atoms: C_2  and  C_4
REMARK    2  A    between atoms: C_4  and  O_5
REMARK    3  A    between atoms: O_5  and  C_6
REMARK    4  A    between atoms: C_6  and  C_8
REMARK    5  A    between atoms: C_13  and  O_14
REMARK    6  A    between atoms: O_14  and  C_15
REMARK    7  A    between atoms: C_15  and  C_16
REMARK    8  A    between atoms: N_18  and  C_19
REMARK                            x       y       z     vdW  Elec       q    Type
REMARK                         _______ _______ _______ _____ _____    ______ ____
ROOT
ATOM      1  C   UNL     1       3.868   4.249  18.591  0.00  0.00    +0.000 A 
ATOM      2  C   UNL     1       3.709   2.929  18.105  0.00  0.00    +0.000 A 
ATOM      3  C   UNL     1       2.458   2.315  18.055  0.00  0.00    +0.000 A 
ATOM      4  C   UNL     1       1.339   3.009  18.482  0.00  0.00    +0.000 A 
ATOM      5  C   UNL     1       1.478   4.307  18.974  0.00  0.00    +0.000 A 
ATOM      6  C   UNL     1       2.731   4.943  19.055  0.00  0.00    +0.000 A 
ENDROOT
BRANCH   1   7
ATOM      7  C   UNL     1       5.276   4.766  18.573  0.00  0.00    +0.000 C 
ATOM      8  O   UNL     1       6.121   4.408  19.384  0.00  0.00    +0.000 OA
BRANCH   7   9
ATOM      9  O   UNL     1       5.475   5.714  17.634  0.00  0.00    +0.000 OA
BRANCH   9  10
ATOM     10  C   UNL     1       5.677   5.237  16.300  0.00  0.00    +0.000 C 
BRANCH  10  12
ATOM     11  N   UNL     1       7.881   4.295  16.827  0.00  0.00    +0.000 N 
ATOM     12  C   UNL     1       7.132   4.979  15.918  0.00  0.00    +0.000 C 
ATOM     13  O   UNL     1       7.636   5.384  14.872  0.00  0.00    +0.000 OA
ATOM     14  H   UNL     1       8.873   4.200  16.642  0.00  0.00    +0.000 HD
ATOM     15  H   UNL     1       7.539   4.095  17.760  0.00  0.00    +0.000 HD
ENDBRANCH  10  12
ENDBRANCH   9  10
ENDBRANCH   7   9
ENDBRANCH   1   7
BRANCH   6  16
ATOM     16  O   UNL     1       2.852   6.237  19.525  0.00  0.00    +0.000 OA
BRANCH  16  17
ATOM     17  C   UNL     1       2.600   7.247  18.553  0.00  0.00    +0.000 C 
BRANCH  17  18
ATOM     18  C   UNL     1       1.774   8.453  18.990  0.00  0.00    +0.000 C 
ATOM     19  O   UNL     1       1.725   9.439  18.251  0.00  0.00    +0.000 OA
ATOM     20  N   UNL     1       1.230   8.354  20.252  0.00  0.00    +0.000 N 
ATOM     21  H   UNL     1       1.468   7.519  20.779  0.00  0.00    +0.000 HD
BRANCH  20  22
ATOM     22  C   UNL     1       0.463   9.342  20.905  0.00  0.00    +0.000 A 
ATOM     23  C   UNL     1      -0.073  10.451  20.243  0.00  0.00    +0.000 A 
ATOM     24  C   UNL     1      -0.830  11.403  20.935  0.00  0.00    +0.000 A 
ATOM     25  C   UNL     1      -1.044  11.248  22.303  0.00  0.00    +0.000 A 
ATOM     26 BR   UNL     1      -2.063  12.535  23.236  0.00  0.00    +0.000 Br
ATOM     27  C   UNL     1      -0.515  10.150  22.975  0.00  0.00    +0.000 A 
ATOM     28  C   UNL     1       0.229   9.193  22.275  0.00  0.00    +0.000 A 
ENDBRANCH  20  22
ENDBRANCH  17  18
ENDBRANCH  16  17
ENDBRANCH   6  16
TORSDOF 8
ENDMDL
MODEL 8
REMARK VINA RESULT:      -7.2      3.318      4.881
REMARK  Name = 
REMARK  8 active torsions:
REMARK  status: ('A' for Active; 'I' for Inactive)
REMARK    1  A    between atoms: C_2  and  C_4
REMARK    2  A    between atoms: C_4  and  O_5
REMARK    3  A    between atoms: O_5  and  C_6
REMARK    4  A    between atoms: C_6  and  C_8
REMARK    5  A    between atoms: C_13  and  O_14
REMARK    6  A    between atoms: O_14  and  C_15
REMARK    7  A    between atoms: C_15  and  C_16
REMARK    8  A    between atoms: N_18  and  C_19
REMARK                            x       y       z     vdW  Elec       q    Type
REMARK                         _______ _______ _______ _____ _____    ______ ____
ROOT
ATOM      1  C   UNL     1       4.306   4.274  17.091  0.00  0.00    +0.000 A 
ATOM      2  C   UNL     1       5.345   3.690  16.328  0.00  0.00    +0.000 A 
ATOM      3  C   UNL     1       6.420   4.445  15.858  0.00  0.00    +0.000 A 
ATOM      4  C   UNL     1       6.482   5.797  16.148  0.00  0.00    +0.000 A 
ATOM      5  C   UNL     1       5.461   6.392  16.891  0.00  0.00    +0.000 A 
ATOM      6  C   UNL     1       4.355   5.658  17.359  0.00  0.00    +0.000 A 
ENDROOT
BRANCH   1   7
ATOM      7  C   UNL     1       3.228   3.325  17.525  0.00  0.00    +0.000 C 
ATOM      8  O   UNL     1       2.090   3.366  17.074  0.00  0.00    +0.000 OA
BRANCH   7   9
ATOM      9  O   UNL     1       3.627   2.493  18.511  0.00  0.00    +0.000 OA
BRANCH   9  10
ATOM     10  C   UNL     1       3.803   3.093  19.798  0.00  0.00    +0.000 C 
BRANCH  10  12
ATOM     11  N   UNL     1       2.577   5.021  20.694  0.00  0.00    +0.000 N 
ATOM     12  C   UNL     1       2.541   3.688  20.414  0.00  0.00    +0.000 C 
ATOM     13  O   UNL     1       1.545   3.020  20.687  0.00  0.00    +0.000 OA
ATOM     14  H   UNL     1       1.790   5.417  21.195  0.00  0.00    +0.000 HD
ATOM     15  H   UNL     1       3.435   5.556  20.632  0.00  0.00    +0.000 HD
ENDBRANCH  10  12
ENDBRANCH   9  10
ENDBRANCH   7   9
ENDBRANCH   1   7
BRANCH   6  16
ATOM     16  O   UNL     1       3.361   6.255  18.110  0.00  0.00    +0.000 OA
BRANCH  16  17
ATOM     17  C   UNL     1       3.150   7.635  17.824  0.00  0.00    +0.000 C 
BRANCH  17  18
ATOM     18  C   UNL     1       2.113   8.376  18.664  0.00  0.00    +0.000 C 
ATOM     19  O   UNL     1       1.833   7.939  19.782  0.00  0.00    +0.000 OA
ATOM     20  N   UNL     1       1.504   9.434  18.027  0.00  0.00    +0.000 N 
ATOM     21  H   UNL     1       1.767   9.587  17.058  0.00  0.00    +0.000 HD
BRANCH  20  22
ATOM     22  C   UNL     1       0.488  10.253  18.565  0.00  0.00    +0.000 A 
ATOM     23  C   UNL     1      -0.856  10.139  18.198  0.00  0.00    +0.000 A 
ATOM     24  C   UNL     1      -1.827  10.974  18.763  0.00  0.00    +0.000 A 
ATOM     25  C   UNL     1      -1.448  11.937  19.695  0.00  0.00    +0.000 A 
ATOM     26 BR   UNL     1      -2.759  13.065  20.453  0.00  0.00    +0.000 Br
ATOM     27  C   UNL     1      -0.112  12.063  20.067  0.00  0.00    +0.000 A 
ATOM     28  C   UNL     1       0.853  11.215  19.511  0.00  0.00    +0.000 A 
ENDBRANCH  20  22
ENDBRANCH  17  18
ENDBRANCH  16  17
ENDBRANCH   6  16
TORSDOF 8
ENDMDL
MODEL 9
REMARK VINA RESULT:      -7.2      3.645      5.291
REMARK  Name = 
REMARK  8 active torsions:
REMARK  status: ('A' for Active; 'I' for Inactive)
REMARK    1  A    between atoms: C_2  and  C_4
REMARK    2  A    between atoms: C_4  and  O_5
REMARK    3  A    between atoms: O_5  and  C_6
REMARK    4  A    between atoms: C_6  and  C_8
REMARK    5  A    between atoms: C_13  and  O_14
REMARK    6  A    between atoms: O_14  and  C_15
REMARK    7  A    between atoms: C_15  and  C_16
REMARK    8  A    between atoms: N_18  and  C_19
REMARK                            x       y       z     vdW  Elec       q    Type
REMARK                         _______ _______ _______ _____ _____    ______ ____
ROOT
ATOM      1  C   UNL     1       4.420   4.480  18.098  0.00  0.00    +0.000 A 
ATOM      2  C   UNL     1       5.610   4.387  17.338  0.00  0.00    +0.000 A 
ATOM      3  C   UNL     1       6.018   5.417  16.490  0.00  0.00    +0.000 A 
ATOM      4  C   UNL     1       5.248   6.563  16.390  0.00  0.00    +0.000 A 
ATOM      5  C   UNL     1       4.066   6.668  17.124  0.00  0.00    +0.000 A 
ATOM      6  C   UNL     1       3.621   5.635  17.971  0.00  0.00    +0.000 A 
ENDROOT
BRANCH   1   7
ATOM      7  C   UNL     1       4.127   3.291  18.965  0.00  0.00    +0.000 C 
ATOM      8  O   UNL     1       4.933   2.849  19.775  0.00  0.00    +0.000 OA
BRANCH   7   9
ATOM      9  O   UNL     1       2.932   2.725  18.693  0.00  0.00    +0.000 OA
BRANCH   9  10
ATOM     10  C   UNL     1       2.294   2.060  19.788  0.00  0.00    +0.000 C 
BRANCH  10  12
ATOM     11  N   UNL     1       0.595   3.732  20.372  0.00  0.00    +0.000 N 
ATOM     12  C   UNL     1       1.643   2.982  20.815  0.00  0.00    +0.000 C 
ATOM     13  O   UNL     1       2.043   3.090  21.972  0.00  0.00    +0.000 OA
ATOM     14  H   UNL     1       0.213   4.425  21.006  0.00  0.00    +0.000 HD
ATOM     15  H   UNL     1       0.353   3.784  19.389  0.00  0.00    +0.000 HD
ENDBRANCH  10  12
ENDBRANCH   9  10
ENDBRANCH   7   9
ENDBRANCH   1   7
BRANCH   6  16
ATOM     16  O   UNL     1       2.459   5.761  18.708  0.00  0.00    +0.000 OA
BRANCH  16  17
ATOM     17  C   UNL     1       2.589   6.545  19.891  0.00  0.00    +0.000 C 
BRANCH  17  18
ATOM     18  C   UNL     1       1.805   7.852  19.956  0.00  0.00    +0.000 C 
ATOM     19  O   UNL     1       1.926   8.663  19.036  0.00  0.00    +0.000 OA
ATOM     20  N   UNL     1       1.095   8.043  21.121  0.00  0.00    +0.000 N 
ATOM     21  H   UNL     1       1.199   7.325  21.833  0.00  0.00    +0.000 HD
BRANCH  20  22
ATOM     22  C   UNL     1       0.324   9.178  21.447  0.00  0.00    +0.000 A 
ATOM     23  C   UNL     1      -0.069  10.129  20.500  0.00  0.00    +0.000 A 
ATOM     24  C   UNL     1      -0.837  11.239  20.873  0.00  0.00    +0.000 A 
ATOM     25  C   UNL     1      -1.204  11.403  22.207  0.00  0.00    +0.000 A 
ATOM     26 BR   UNL     1      -2.235  12.903  22.709  0.00  0.00    +0.000 Br
ATOM     27  C   UNL     1      -0.817  10.466  23.161  0.00  0.00    +0.000 A 
ATOM     28  C   UNL     1      -0.062   9.349  22.779  0.00  0.00    +0.000 A 
ENDBRANCH  20  22
ENDBRANCH  17  18
ENDBRANCH  16  17
ENDBRANCH   6  16
TORSDOF 8
ENDMDL
