MODEL 1
REMARK VINA RESULT:      -7.2      0.000      0.000
REMARK  Name = 
REMARK  11 active torsions:
REMARK  status: ('A' for Active; 'I' for Inactive)
REMARK    1  A    between atoms: C_1  and  N_2
REMARK    2  A    between atoms: N_2  and  C_3
REMARK    3  A    between atoms: N_2  and  C_4
REMARK    4  A    between atoms: C_4  and  C_5
REMARK    5  A    between atoms: C_5  and  N_6
REMARK    6  A    between atoms: N_6  and  C_7
REMARK    7  A    between atoms: N_13  and  C_14
REMARK    8  A    between atoms: C_14  and  C_15
REMARK    9  A    between atoms: C_15  and  N_16
REMARK   10  A    between atoms: N_16  and  C_17
REMARK   11  A    between atoms: N_16  and  C_18
REMARK                            x       y       z     vdW  Elec       q    Type
REMARK                         _______ _______ _______ _____ _____    ______ ____
ROOT
ATOM      1  C   UNL     1       1.931   8.167  19.117  0.00  0.00    +0.000 A 
ATOM      2  C   UNL     1       2.443   8.938  18.070  0.00  0.00    +0.000 A 
ATOM      3  C   UNL     1       3.387   8.416  17.201  0.00  0.00    +0.000 A 
ATOM      4  C   UNL     1       3.871   7.118  17.390  0.00  0.00    +0.000 A 
ATOM      5  C   UNL     1       4.811   6.601  16.397  0.00  0.00    +0.000 A 
ATOM      6  O   UNL     1       5.009   7.242  15.368  0.00  0.00    +0.000 OA
ATOM      7  N   UNL     1       5.383   5.377  16.668  0.00  0.00    +0.000 N 
ATOM      8  C   UNL     1       4.956   4.510  17.673  0.00  0.00    +0.000 A 
ATOM      9  O   UNL     1       5.427   3.371  17.703  0.00  0.00    +0.000 OA
ATOM     10  N   UNL     1       3.979   4.987  18.577  0.00  0.00    +0.000 N 
ATOM     11  C   UNL     1       3.447   4.161  19.647  0.00  0.00    +0.000 A 
ATOM     12  C   UNL     1       3.805   2.806  19.824  0.00  0.00    +0.000 A 
ATOM     13  C   UNL     1       3.269   2.003  20.841  0.00  0.00    +0.000 A 
ATOM     14  C   UNL     1       2.378   2.538  21.752  0.00  0.00    +0.000 A 
ATOM     15  C   UNL     1       2.010   3.869  21.622  0.00  0.00    +0.000 A 
ATOM     16  C   UNL     1       2.518   4.660  20.570  0.00  0.00    +0.000 A 
ATOM     17  C   UNL     1       1.994   6.024  20.431  0.00  0.00    +0.000 A 
ATOM     18  O   UNL     1       1.126   6.417  21.207  0.00  0.00    +0.000 OA
ATOM     19  C   UNL     1       2.483   6.863  19.321  0.00  0.00    +0.000 A 
ATOM     20  C   UNL     1       3.451   6.316  18.452  0.00  0.00    +0.000 A 
ENDROOT
BRANCH   1  21
ATOM     21  N   UNL     1       0.961   8.720  19.975  0.00  0.00    +0.000 N 
ATOM     22  H   UNL     1       0.118   8.130  20.021  0.00  0.00    +0.000 HD
BRANCH  21  23
ATOM     23  C   UNL     1       0.712  10.164  19.900  0.00  0.00    +0.000 C 
BRANCH  23  24
ATOM     24  C   UNL     1       0.662  10.829  21.290  0.00  0.00    +0.000 C 
BRANCH  24  26
ATOM     25  C   UNL     1      -0.336   9.714  23.182  0.00  0.00    +0.000 C 
ATOM     26  N   UNL     1      -0.599  10.572  22.024  0.00  0.00    +0.000 NA
ATOM     27  C   UNL     1      -1.249  11.811  22.464  0.00  0.00    +0.000 C 
ENDBRANCH  24  26
ENDBRANCH  23  24
ENDBRANCH  21  23
ENDBRANCH   1  21
BRANCH   7  28
ATOM     28  C   UNL     1       6.322   4.860  15.665  0.00  0.00    +0.000 C 
BRANCH  28  29
ATOM     29  C   UNL     1       5.668   4.239  14.409  0.00  0.00    +0.000 C 
BRANCH  29  30
ATOM     30  N   UNL     1       6.581   3.788  13.336  0.00  0.00    +0.000 NA
ATOM     31  C   UNL     1       5.855   3.262  12.177  0.00  0.00    +0.000 C 
ATOM     32  C   UNL     1       7.413   4.923  12.914  0.00  0.00    +0.000 C 
ENDBRANCH  29  30
ENDBRANCH  28  29
ENDBRANCH   7  28
TORSDOF 7
ENDMDL
MODEL 2
REMARK VINA RESULT:      -7.2      1.095      1.565
REMARK  Name = 
REMARK  11 active torsions:
REMARK  status: ('A' for Active; 'I' for Inactive)
REMARK    1  A    between atoms: C_1  and  N_2
REMARK    2  A    between atoms: N_2  and  C_3
REMARK    3  A    between atoms: N_2  and  C_4
REMARK    4  A    between atoms: C_4  and  C_5
REMARK    5  A    between atoms: C_5  and  N_6
REMARK    6  A    between atoms: N_6  and  C_7
REMARK    7  A    between atoms: N_13  and  C_14
REMARK    8  A    between atoms: C_14  and  C_15
REMARK    9  A    between atoms: C_15  and  N_16
REMARK   10  A    between atoms: N_16  and  C_17
REMARK   11  A    between atoms: N_16  and  C_18
REMARK                            x       y       z     vdW  Elec       q    Type
REMARK                         _______ _______ _______ _____ _____    ______ ____
ROOT
ATOM      1  C   UNL     1       2.021   8.172  18.932  0.00  0.00    +0.000 A 
ATOM      2  C   UNL     1       2.572   8.902  17.875  0.00  0.00    +0.000 A 
ATOM      3  C   UNL     1       3.537   8.343  17.055  0.00  0.00    +0.000 A 
ATOM      4  C   UNL     1       4.004   7.049  17.304  0.00  0.00    +0.000 A 
ATOM      5  C   UNL     1       4.969   6.490  16.358  0.00  0.00    +0.000 A 
ATOM      6  O   UNL     1       5.203   7.093  15.314  0.00  0.00    +0.000 OA
ATOM      7  N   UNL     1       5.521   5.271  16.690  0.00  0.00    +0.000 N 
ATOM      8  C   UNL     1       5.057   4.444  17.710  0.00  0.00    +0.000 A 
ATOM      9  O   UNL     1       5.517   3.304  17.795  0.00  0.00    +0.000 OA
ATOM     10  N   UNL     1       4.057   4.961  18.567  0.00  0.00    +0.000 N 
ATOM     11  C   UNL     1       3.486   4.176  19.649  0.00  0.00    +0.000 A 
ATOM     12  C   UNL     1       3.826   2.826  19.883  0.00  0.00    +0.000 A 
ATOM     13  C   UNL     1       3.253   2.064  20.911  0.00  0.00    +0.000 A 
ATOM     14  C   UNL     1       2.340   2.637  21.775  0.00  0.00    +0.000 A 
ATOM     15  C   UNL     1       1.987   3.966  21.588  0.00  0.00    +0.000 A 
ATOM     16  C   UNL     1       2.534   4.715  20.525  0.00  0.00    +0.000 A 
ATOM     17  C   UNL     1       2.026   6.078  20.322  0.00  0.00    +0.000 A 
ATOM     18  O   UNL     1       1.138   6.504  21.058  0.00  0.00    +0.000 OA
ATOM     19  C   UNL     1       2.555   6.873  19.199  0.00  0.00    +0.000 A 
ATOM     20  C   UNL     1       3.545   6.288  18.380  0.00  0.00    +0.000 A 
ENDROOT
BRANCH   1  21
ATOM     21  N   UNL     1       1.031   8.763  19.741  0.00  0.00    +0.000 N 
ATOM     22  H   UNL     1       0.248   8.116  19.910  0.00  0.00    +0.000 HD
BRANCH  21  23
ATOM     23  C   UNL     1       0.647  10.152  19.464  0.00  0.00    +0.000 C 
BRANCH  23  24
ATOM     24  C   UNL     1      -0.820  10.445  19.836  0.00  0.00    +0.000 C 
BRANCH  24  26
ATOM     25  C   UNL     1      -1.152  12.315  18.350  0.00  0.00    +0.000 C 
ATOM     26  N   UNL     1      -1.622  10.975  18.709  0.00  0.00    +0.000 NA
ATOM     27  C   UNL     1      -1.573  10.102  17.532  0.00  0.00    +0.000 C 
ENDBRANCH  24  26
ENDBRANCH  23  24
ENDBRANCH  21  23
ENDBRANCH   1  21
BRANCH   7  28
ATOM     28  C   UNL     1       6.486   4.712  15.734  0.00  0.00    +0.000 C 
BRANCH  28  29
ATOM     29  C   UNL     1       5.878   3.803  14.642  0.00  0.00    +0.000 C 
BRANCH  29  30
ATOM     30  N   UNL     1       6.623   3.702  13.367  0.00  0.00    +0.000 NA
ATOM     31  C   UNL     1       5.743   3.410  12.233  0.00  0.00    +0.000 C 
ATOM     32  C   UNL     1       7.321   4.973  13.126  0.00  0.00    +0.000 C 
ENDBRANCH  29  30
ENDBRANCH  28  29
ENDBRANCH   7  28
TORSDOF 7
ENDMDL
MODEL 3
REMARK VINA RESULT:      -6.9      1.959      6.795
REMARK  Name = 
REMARK  11 active torsions:
REMARK  status: ('A' for Active; 'I' for Inactive)
REMARK    1  A    between atoms: C_1  and  N_2
REMARK    2  A    between atoms: N_2  and  C_3
REMARK    3  A    between atoms: N_2  and  C_4
REMARK    4  A    between atoms: C_4  and  C_5
REMARK    5  A    between atoms: C_5  and  N_6
REMARK    6  A    between atoms: N_6  and  C_7
REMARK    7  A    between atoms: N_13  and  C_14
REMARK    8  A    between atoms: C_14  and  C_15
REMARK    9  A    between atoms: C_15  and  N_16
REMARK   10  A    between atoms: N_16  and  C_17
REMARK   11  A    between atoms: N_16  and  C_18
REMARK                            x       y       z     vdW  Elec       q    Type
REMARK                         _______ _______ _______ _____ _____    ______ ____
ROOT
ATOM      1  C   UNL     1       4.852   5.493  16.515  0.00  0.00    +0.000 A 
ATOM      2  C   UNL     1       4.775   6.743  15.893  0.00  0.00    +0.000 A 
ATOM      3  C   UNL     1       4.008   7.759  16.437  0.00  0.00    +0.000 A 
ATOM      4  C   UNL     1       3.264   7.530  17.598  0.00  0.00    +0.000 A 
ATOM      5  C   UNL     1       2.534   8.664  18.161  0.00  0.00    +0.000 A 
ATOM      6  O   UNL     1       2.727   9.789  17.705  0.00  0.00    +0.000 OA
ATOM      7  N   UNL     1       1.699   8.393  19.224  0.00  0.00    +0.000 N 
ATOM      8  C   UNL     1       1.687   7.195  19.935  0.00  0.00    +0.000 A 
ATOM      9  O   UNL     1       1.025   7.136  20.973  0.00  0.00    +0.000 OA
ATOM     10  N   UNL     1       2.469   6.129  19.432  0.00  0.00    +0.000 N 
ATOM     11  C   UNL     1       2.548   4.843  20.105  0.00  0.00    +0.000 A 
ATOM     12  C   UNL     1       1.916   4.583  21.342  0.00  0.00    +0.000 A 
ATOM     13  C   UNL     1       2.017   3.350  22.002  0.00  0.00    +0.000 A 
ATOM     14  C   UNL     1       2.725   2.310  21.431  0.00  0.00    +0.000 A 
ATOM     15  C   UNL     1       3.351   2.521  20.210  0.00  0.00    +0.000 A 
ATOM     16  C   UNL     1       3.283   3.777  19.571  0.00  0.00    +0.000 A 
ATOM     17  C   UNL     1       4.065   3.956  18.341  0.00  0.00    +0.000 A 
ATOM     18  O   UNL     1       4.760   3.030  17.930  0.00  0.00    +0.000 OA
ATOM     19  C   UNL     1       4.039   5.268  17.669  0.00  0.00    +0.000 A 
ATOM     20  C   UNL     1       3.244   6.289  18.234  0.00  0.00    +0.000 A 
ENDROOT
BRANCH   1  21
ATOM     21  N   UNL     1       5.652   4.483  15.946  0.00  0.00    +0.000 N 
ATOM     22  H   UNL     1       5.322   3.546  16.215  0.00  0.00    +0.000 HD
BRANCH  21  23
ATOM     23  C   UNL     1       7.108   4.663  15.959  0.00  0.00    +0.000 C 
BRANCH  23  24
ATOM     24  C   UNL     1       7.699   4.595  17.382  0.00  0.00    +0.000 C 
BRANCH  24  26
ATOM     25  C   UNL     1       7.854   5.563  19.586  0.00  0.00    +0.000 C 
ATOM     26  N   UNL     1       7.333   5.754  18.230  0.00  0.00    +0.000 NA
ATOM     27  C   UNL     1       7.827   7.022  17.685  0.00  0.00    +0.000 C 
ENDBRANCH  24  26
ENDBRANCH  23  24
ENDBRANCH  21  23
ENDBRANCH   1  21
BRANCH   7  28
ATOM     28  C   UNL     1       0.971   9.537  19.789  0.00  0.00    +0.000 C 
BRANCH  28  29
ATOM     29  C   UNL     1      -0.295   9.962  19.009  0.00  0.00    +0.000 C 
BRANCH  29  30
ATOM     30  N   UNL     1      -0.671  11.391  19.077  0.00  0.00    +0.000 NA
ATOM     31  C   UNL     1       0.487  12.275  18.923  0.00  0.00    +0.000 C 
ATOM     32  C   UNL     1      -1.644  11.675  18.014  0.00  0.00    +0.000 C 
ENDBRANCH  29  30
ENDBRANCH  28  29
ENDBRANCH   7  28
TORSDOF 7
ENDMDL
MODEL 4
REMARK VINA RESULT:      -6.8      1.654      7.515
REMARK  Name = 
REMARK  11 active torsions:
REMARK  status: ('A' for Active; 'I' for Inactive)
REMARK    1  A    between atoms: C_1  and  N_2
REMARK    2  A    between atoms: N_2  and  C_3
REMARK    3  A    between atoms: N_2  and  C_4
REMARK    4  A    between atoms: C_4  and  C_5
REMARK    5  A    between atoms: C_5  and  N_6
REMARK    6  A    between atoms: N_6  and  C_7
REMARK    7  A    between atoms: N_13  and  C_14
REMARK    8  A    between atoms: C_14  and  C_15
REMARK    9  A    between atoms: C_15  and  N_16
REMARK   10  A    between atoms: N_16  and  C_17
REMARK   11  A    between atoms: N_16  and  C_18
REMARK                            x       y       z     vdW  Elec       q    Type
REMARK                         _______ _______ _______ _____ _____    ______ ____
ROOT
ATOM      1  C   UNL     1       5.129   5.385  16.585  0.00  0.00    +0.000 A 
ATOM      2  C   UNL     1       5.067   6.627  15.947  0.00  0.00    +0.000 A 
ATOM      3  C   UNL     1       4.272   7.643  16.451  0.00  0.00    +0.000 A 
ATOM      4  C   UNL     1       3.485   7.420  17.584  0.00  0.00    +0.000 A 
ATOM      5  C   UNL     1       2.725   8.554  18.107  0.00  0.00    +0.000 A 
ATOM      6  O   UNL     1       2.928   9.676  17.647  0.00  0.00    +0.000 OA
ATOM      7  N   UNL     1       1.851   8.288  19.139  0.00  0.00    +0.000 N 
ATOM      8  C   UNL     1       1.821   7.097  19.862  0.00  0.00    +0.000 A 
ATOM      9  O   UNL     1       1.120   7.043  20.874  0.00  0.00    +0.000 OA
ATOM     10  N   UNL     1       2.629   6.032  19.401  0.00  0.00    +0.000 N 
ATOM     11  C   UNL     1       2.692   4.754  20.091  0.00  0.00    +0.000 A 
ATOM     12  C   UNL     1       2.015   4.501  21.304  0.00  0.00    +0.000 A 
ATOM     13  C   UNL     1       2.099   3.276  21.982  0.00  0.00    +0.000 A 
ATOM     14  C   UNL     1       2.837   2.236  21.449  0.00  0.00    +0.000 A 
ATOM     15  C   UNL     1       3.507   2.439  20.251  0.00  0.00    +0.000 A 
ATOM     16  C   UNL     1       3.455   3.688  19.596  0.00  0.00    +0.000 A 
ATOM     17  C   UNL     1       4.282   3.861  18.396  0.00  0.00    +0.000 A 
ATOM     18  O   UNL     1       5.000   2.936  18.022  0.00  0.00    +0.000 OA
ATOM     19  C   UNL     1       4.273   5.166  17.709  0.00  0.00    +0.000 A 
ATOM     20  C   UNL     1       3.449   6.185  18.232  0.00  0.00    +0.000 A 
ENDROOT
BRANCH   1  21
ATOM     21  N   UNL     1       5.957   4.375  16.058  0.00  0.00    +0.000 N 
ATOM     22  H   UNL     1       6.700   4.113  16.722  0.00  0.00    +0.000 HD
BRANCH  21  23
ATOM     23  C   UNL     1       6.381   4.488  14.657  0.00  0.00    +0.000 C 
BRANCH  23  24
ATOM     24  C   UNL     1       5.344   3.903  13.678  0.00  0.00    +0.000 C 
BRANCH  24  26
ATOM     25  C   UNL     1       4.933   2.942  11.504  0.00  0.00    +0.000 C 
ATOM     26  N   UNL     1       5.951   3.194  12.527  0.00  0.00    +0.000 NA
ATOM     27  C   UNL     1       7.068   3.941  11.939  0.00  0.00    +0.000 C 
ENDBRANCH  24  26
ENDBRANCH  23  24
ENDBRANCH  21  23
ENDBRANCH   1  21
BRANCH   7  28
ATOM     28  C   UNL     1       1.094   9.431  19.664  0.00  0.00    +0.000 C 
BRANCH  28  29
ATOM     29  C   UNL     1      -0.108   9.877  18.799  0.00  0.00    +0.000 C 
BRANCH  29  30
ATOM     30  N   UNL     1      -0.188  11.315  18.459  0.00  0.00    +0.000 NA
ATOM     31  C   UNL     1      -1.572  11.786  18.372  0.00  0.00    +0.000 C 
ATOM     32  C   UNL     1       0.524  12.084  19.489  0.00  0.00    +0.000 C 
ENDBRANCH  29  30
ENDBRANCH  28  29
ENDBRANCH   7  28
TORSDOF 7
ENDMDL
MODEL 5
REMARK VINA RESULT:      -6.8      4.442     10.508
REMARK  Name = 
REMARK  11 active torsions:
REMARK  status: ('A' for Active; 'I' for Inactive)
REMARK    1  A    between atoms: C_1  and  N_2
REMARK    2  A    between atoms: N_2  and  C_3
REMARK    3  A    between atoms: N_2  and  C_4
REMARK    4  A    between atoms: C_4  and  C_5
REMARK    5  A    between atoms: C_5  and  N_6
REMARK    6  A    between atoms: N_6  and  C_7
REMARK    7  A    between atoms: N_13  and  C_14
REMARK    8  A    between atoms: C_14  and  C_15
REMARK    9  A    between atoms: C_15  and  N_16
REMARK   10  A    between atoms: N_16  and  C_17
REMARK   11  A    between atoms: N_16  and  C_18
REMARK                            x       y       z     vdW  Elec       q    Type
REMARK                         _______ _______ _______ _____ _____    ______ ____
ROOT
ATOM      1  C   UNL     1       0.028  10.388  18.722  0.00  0.00    +0.000 A 
ATOM      2  C   UNL     1      -0.589   9.778  17.626  0.00  0.00    +0.000 A 
ATOM      3  C   UNL     1      -1.906  10.062  17.306  0.00  0.00    +0.000 A 
ATOM      4  C   UNL     1      -2.649  10.934  18.106  0.00  0.00    +0.000 A 
ATOM      5  C   UNL     1      -4.009  11.249  17.673  0.00  0.00    +0.000 A 
ATOM      6  O   UNL     1      -4.385  10.880  16.562  0.00  0.00    +0.000 OA
ATOM      7  N   UNL     1      -4.774  11.999  18.539  0.00  0.00    +0.000 N 
ATOM      8  C   UNL     1      -4.278  12.667  19.657  0.00  0.00    +0.000 A 
ATOM      9  O   UNL     1      -5.023  13.448  20.251  0.00  0.00    +0.000 OA
ATOM     10  N   UNL     1      -2.932  12.426  20.018  0.00  0.00    +0.000 N 
ATOM     11  C   UNL     1      -2.306  13.085  21.152  0.00  0.00    +0.000 A 
ATOM     12  C   UNL     1      -2.961  14.064  21.931  0.00  0.00    +0.000 A 
ATOM     13  C   UNL     1      -2.346  14.718  23.007  0.00  0.00    +0.000 A 
ATOM     14  C   UNL     1      -1.054  14.390  23.373  0.00  0.00    +0.000 A 
ATOM     15  C   UNL     1      -0.378  13.424  22.641  0.00  0.00    +0.000 A 
ATOM     16  C   UNL     1      -0.988  12.800  21.532  0.00  0.00    +0.000 A 
ATOM     17  C   UNL     1      -0.169  11.874  20.740  0.00  0.00    +0.000 A 
ATOM     18  O   UNL     1       1.006  11.694  21.049  0.00  0.00    +0.000 OA
ATOM     19  C   UNL     1      -0.770  11.232  19.556  0.00  0.00    +0.000 A 
ATOM     20  C   UNL     1      -2.116  11.528  19.251  0.00  0.00    +0.000 A 
ENDROOT
BRANCH   1  21
ATOM     21  N   UNL     1       1.373  10.090  19.015  0.00  0.00    +0.000 N 
ATOM     22  H   UNL     1       2.017  10.629  18.418  0.00  0.00    +0.000 HD
BRANCH  21  23
ATOM     23  C   UNL     1       1.742   8.685  19.225  0.00  0.00    +0.000 C 
BRANCH  23  24
ATOM     24  C   UNL     1       2.601   8.122  18.076  0.00  0.00    +0.000 C 
BRANCH  24  26
ATOM     25  C   UNL     1       4.189   6.347  17.692  0.00  0.00    +0.000 C 
ATOM     26  N   UNL     1       2.843   6.664  18.178  0.00  0.00    +0.000 NA
ATOM     27  C   UNL     1       2.683   6.167  19.548  0.00  0.00    +0.000 C 
ENDBRANCH  24  26
ENDBRANCH  23  24
ENDBRANCH  21  23
ENDBRANCH   1  21
BRANCH   7  28
ATOM     28  C   UNL     1      -6.138  12.316  18.097  0.00  0.00    +0.000 C 
BRANCH  28  29
ATOM     29  C   UNL     1      -7.236  11.356  18.610  0.00  0.00    +0.000 C 
BRANCH  29  30
ATOM     30  N   UNL     1      -6.930  10.589  19.838  0.00  0.00    +0.000 NA
ATOM     31  C   UNL     1      -7.810  10.953  20.952  0.00  0.00    +0.000 C 
ATOM     32  C   UNL     1      -7.078   9.155  19.550  0.00  0.00    +0.000 C 
ENDBRANCH  29  30
ENDBRANCH  28  29
ENDBRANCH   7  28
TORSDOF 7
ENDMDL
MODEL 6
REMARK VINA RESULT:      -6.6      4.039     10.837
REMARK  Name = 
REMARK  11 active torsions:
REMARK  status: ('A' for Active; 'I' for Inactive)
REMARK    1  A    between atoms: C_1  and  N_2
REMARK    2  A    between atoms: N_2  and  C_3
REMARK    3  A    between atoms: N_2  and  C_4
REMARK    4  A    between atoms: C_4  and  C_5
REMARK    5  A    between atoms: C_5  and  N_6
REMARK    6  A    between atoms: N_6  and  C_7
REMARK    7  A    between atoms: N_13  and  C_14
REMARK    8  A    between atoms: C_14  and  C_15
REMARK    9  A    between atoms: C_15  and  N_16
REMARK   10  A    between atoms: N_16  and  C_17
REMARK   11  A    between atoms: N_16  and  C_18
REMARK                            x       y       z     vdW  Elec       q    Type
REMARK                         _______ _______ _______ _____ _____    ______ ____
ROOT
ATOM      1  C   UNL     1       0.712   9.770  19.892  0.00  0.00    +0.000 A 
ATOM      2  C   UNL     1       1.104  10.120  21.187  0.00  0.00    +0.000 A 
ATOM      3  C   UNL     1       0.320  10.957  21.963  0.00  0.00    +0.000 A 
ATOM      4  C   UNL     1      -0.857  11.500  21.439  0.00  0.00    +0.000 A 
ATOM      5  C   UNL     1      -1.676  12.317  22.332  0.00  0.00    +0.000 A 
ATOM      6  O   UNL     1      -1.397  12.361  23.528  0.00  0.00    +0.000 OA
ATOM      7  N   UNL     1      -2.758  12.955  21.766  0.00  0.00    +0.000 N 
ATOM      8  C   UNL     1      -3.255  12.688  20.491  0.00  0.00    +0.000 A 
ATOM      9  O   UNL     1      -4.331  13.192  20.165  0.00  0.00    +0.000 OA
ATOM     10  N   UNL     1      -2.501  11.824  19.664  0.00  0.00    +0.000 N 
ATOM     11  C   UNL     1      -2.938  11.460  18.326  0.00  0.00    +0.000 A 
ATOM     12  C   UNL     1      -4.171  11.877  17.779  0.00  0.00    +0.000 A 
ATOM     13  C   UNL     1      -4.601  11.502  16.498  0.00  0.00    +0.000 A 
ATOM     14  C   UNL     1      -3.793  10.721  15.694  0.00  0.00    +0.000 A 
ATOM     15  C   UNL     1      -2.567  10.300  16.189  0.00  0.00    +0.000 A 
ATOM     16  C   UNL     1      -2.158  10.644  17.494  0.00  0.00    +0.000 A 
ATOM     17  C   UNL     1      -0.902  10.066  17.987  0.00  0.00    +0.000 A 
ATOM     18  O   UNL     1      -0.271   9.296  17.267  0.00  0.00    +0.000 OA
ATOM     19  C   UNL     1      -0.466  10.382  19.360  0.00  0.00    +0.000 A 
ATOM     20  C   UNL     1      -1.274  11.245  20.131  0.00  0.00    +0.000 A 
ENDROOT
BRANCH   1  21
ATOM     21  N   UNL     1       1.523   8.905  19.132  0.00  0.00    +0.000 N 
ATOM     22  H   UNL     1       1.178   8.819  18.165  0.00  0.00    +0.000 HD
BRANCH  21  23
ATOM     23  C   UNL     1       1.970   7.652  19.751  0.00  0.00    +0.000 C 
BRANCH  23  24
ATOM     24  C   UNL     1       2.921   6.849  18.842  0.00  0.00    +0.000 C 
BRANCH  24  26
ATOM     25  C   UNL     1       2.173   4.645  18.208  0.00  0.00    +0.000 C 
ATOM     26  N   UNL     1       2.976   5.405  19.170  0.00  0.00    +0.000 NA
ATOM     27  C   UNL     1       4.348   4.889  19.186  0.00  0.00    +0.000 C 
ENDBRANCH  24  26
ENDBRANCH  23  24
ENDBRANCH  21  23
ENDBRANCH   1  21
BRANCH   7  28
ATOM     28  C   UNL     1      -3.580  13.771  22.668  0.00  0.00    +0.000 C 
BRANCH  28  29
ATOM     29  C   UNL     1      -4.678  12.999  23.436  0.00  0.00    +0.000 C 
BRANCH  29  30
ATOM     30  N   UNL     1      -6.080  13.384  23.160  0.00  0.00    +0.000 NA
ATOM     31  C   UNL     1      -7.035  12.586  23.932  0.00  0.00    +0.000 C 
ATOM     32  C   UNL     1      -6.254  14.805  23.490  0.00  0.00    +0.000 C 
ENDBRANCH  29  30
ENDBRANCH  28  29
ENDBRANCH   7  28
TORSDOF 7
ENDMDL
MODEL 7
REMARK VINA RESULT:      -6.6      1.260      7.643
REMARK  Name = 
REMARK  11 active torsions:
REMARK  status: ('A' for Active; 'I' for Inactive)
REMARK    1  A    between atoms: C_1  and  N_2
REMARK    2  A    between atoms: N_2  and  C_3
REMARK    3  A    between atoms: N_2  and  C_4
REMARK    4  A    between atoms: C_4  and  C_5
REMARK    5  A    between atoms: C_5  and  N_6
REMARK    6  A    between atoms: N_6  and  C_7
REMARK    7  A    between atoms: N_13  and  C_14
REMARK    8  A    between atoms: C_14  and  C_15
REMARK    9  A    between atoms: C_15  and  N_16
REMARK   10  A    between atoms: N_16  and  C_17
REMARK   11  A    between atoms: N_16  and  C_18
REMARK                            x       y       z     vdW  Elec       q    Type
REMARK                         _______ _______ _______ _____ _____    ______ ____
ROOT
ATOM      1  C   UNL     1       5.190   5.531  16.717  0.00  0.00    +0.000 A 
ATOM      2  C   UNL     1       5.081   6.772  16.084  0.00  0.00    +0.000 A 
ATOM      3  C   UNL     1       4.215   7.740  16.566  0.00  0.00    +0.000 A 
ATOM      4  C   UNL     1       3.405   7.466  17.672  0.00  0.00    +0.000 A 
ATOM      5  C   UNL     1       2.567   8.553  18.175  0.00  0.00    +0.000 A 
ATOM      6  O   UNL     1       2.722   9.687  17.728  0.00  0.00    +0.000 OA
ATOM      7  N   UNL     1       1.676   8.232  19.177  0.00  0.00    +0.000 N 
ATOM      8  C   UNL     1       1.688   7.036  19.892  0.00  0.00    +0.000 A 
ATOM      9  O   UNL     1       0.958   6.937  20.880  0.00  0.00    +0.000 OA
ATOM     10  N   UNL     1       2.568   6.020  19.452  0.00  0.00    +0.000 N 
ATOM     11  C   UNL     1       2.679   4.743  20.137  0.00  0.00    +0.000 A 
ATOM     12  C   UNL     1       1.978   4.445  21.327  0.00  0.00    +0.000 A 
ATOM     13  C   UNL     1       2.107   3.222  22.000  0.00  0.00    +0.000 A 
ATOM     14  C   UNL     1       2.918   2.228  21.486  0.00  0.00    +0.000 A 
ATOM     15  C   UNL     1       3.615   2.475  20.312  0.00  0.00    +0.000 A 
ATOM     16  C   UNL     1       3.515   3.724  19.663  0.00  0.00    +0.000 A 
ATOM     17  C   UNL     1       4.371   3.950  18.491  0.00  0.00    +0.000 A 
ATOM     18  O   UNL     1       5.150   3.069  18.136  0.00  0.00    +0.000 OA
ATOM     19  C   UNL     1       4.312   5.257  17.811  0.00  0.00    +0.000 A 
ATOM     20  C   UNL     1       3.416   6.226  18.312  0.00  0.00    +0.000 A 
ENDROOT
BRANCH   1  21
ATOM     21  N   UNL     1       6.090   4.572  16.212  0.00  0.00    +0.000 N 
ATOM     22  H   UNL     1       6.843   4.372  16.885  0.00  0.00    +0.000 HD
BRANCH  21  23
ATOM     23  C   UNL     1       6.515   4.690  14.812  0.00  0.00    +0.000 C 
BRANCH  23  24
ATOM     24  C   UNL     1       5.531   4.014  13.837  0.00  0.00    +0.000 C 
BRANCH  24  26
ATOM     25  C   UNL     1       5.190   2.916  11.717  0.00  0.00    +0.000 C 
ATOM     26  N   UNL     1       6.195   3.358  12.687  0.00  0.00    +0.000 NA
ATOM     27  C   UNL     1       7.165   4.237  12.027  0.00  0.00    +0.000 C 
ENDBRANCH  24  26
ENDBRANCH  23  24
ENDBRANCH  21  23
ENDBRANCH   1  21
BRANCH   7  28
ATOM     28  C   UNL     1       0.840   9.328  19.682  0.00  0.00    +0.000 C 
BRANCH  28  29
ATOM     29  C   UNL     1       1.215   9.846  21.090  0.00  0.00    +0.000 C 
BRANCH  29  30
ATOM     30  N   UNL     1       1.033  11.293  21.338  0.00  0.00    +0.000 NA
ATOM     31  C   UNL     1       1.222  12.091  20.123  0.00  0.00    +0.000 C 
ATOM     32  C   UNL     1      -0.322  11.517  21.860  0.00  0.00    +0.000 C 
ENDBRANCH  29  30
ENDBRANCH  28  29
ENDBRANCH   7  28
TORSDOF 7
ENDMDL
MODEL 8
REMARK VINA RESULT:      -6.5      1.725      7.009
REMARK  Name = 
REMARK  11 active torsions:
REMARK  status: ('A' for Active; 'I' for Inactive)
REMARK    1  A    between atoms: C_1  and  N_2
REMARK    2  A    between atoms: N_2  and  C_3
REMARK    3  A    between atoms: N_2  and  C_4
REMARK    4  A    between atoms: C_4  and  C_5
REMARK    5  A    between atoms: C_5  and  N_6
REMARK    6  A    between atoms: N_6  and  C_7
REMARK    7  A    between atoms: N_13  and  C_14
REMARK    8  A    between atoms: C_14  and  C_15
REMARK    9  A    between atoms: C_15  and  N_16
REMARK   10  A    between atoms: N_16  and  C_17
REMARK   11  A    between atoms: N_16  and  C_18
REMARK                            x       y       z     vdW  Elec       q    Type
REMARK                         _______ _______ _______ _____ _____    ______ ____
ROOT
ATOM      1  C   UNL     1       4.766   5.669  16.679  0.00  0.00    +0.000 A 
ATOM      2  C   UNL     1       4.632   6.943  16.119  0.00  0.00    +0.000 A 
ATOM      3  C   UNL     1       3.809   7.891  16.703  0.00  0.00    +0.000 A 
ATOM      4  C   UNL     1       3.067   7.567  17.842  0.00  0.00    +0.000 A 
ATOM      5  C   UNL     1       2.274   8.634  18.452  0.00  0.00    +0.000 A 
ATOM      6  O   UNL     1       2.415   9.788  18.055  0.00  0.00    +0.000 OA
ATOM      7  N   UNL     1       1.443   8.268  19.490  0.00  0.00    +0.000 N 
ATOM      8  C   UNL     1       1.486   7.037  20.141  0.00  0.00    +0.000 A 
ATOM      9  O   UNL     1       0.817   6.893  21.166  0.00  0.00    +0.000 OA
ATOM     10  N   UNL     1       2.325   6.038  19.595  0.00  0.00    +0.000 N 
ATOM     11  C   UNL     1       2.462   4.726  20.205  0.00  0.00    +0.000 A 
ATOM     12  C   UNL     1       1.833   4.372  21.419  0.00  0.00    +0.000 A 
ATOM     13  C   UNL     1       1.989   3.115  22.019  0.00  0.00    +0.000 A 
ATOM     14  C   UNL     1       2.755   2.142  21.405  0.00  0.00    +0.000 A 
ATOM     15  C   UNL     1       3.381   2.444  20.205  0.00  0.00    +0.000 A 
ATOM     16  C   UNL     1       3.256   3.725  19.627  0.00  0.00    +0.000 A 
ATOM     17  C   UNL     1       4.039   4.005  18.418  0.00  0.00    +0.000 A 
ATOM     18  O   UNL     1       4.784   3.137  17.970  0.00  0.00    +0.000 OA
ATOM     19  C   UNL     1       3.954   5.346  17.811  0.00  0.00    +0.000 A 
ATOM     20  C   UNL     1       3.102   6.296  18.416  0.00  0.00    +0.000 A 
ENDROOT
BRANCH   1  21
ATOM     21  N   UNL     1       5.621   4.730  16.071  0.00  0.00    +0.000 N 
ATOM     22  H   UNL     1       5.323   3.765  16.270  0.00  0.00    +0.000 HD
BRANCH  21  23
ATOM     23  C   UNL     1       7.069   4.965  16.139  0.00  0.00    +0.000 C 
BRANCH  23  24
ATOM     24  C   UNL     1       7.677   4.519  17.484  0.00  0.00    +0.000 C 
BRANCH  24  26
ATOM     25  C   UNL     1       7.774   6.918  17.715  0.00  0.00    +0.000 C 
ATOM     26  N   UNL     1       7.942   5.642  18.414  0.00  0.00    +0.000 NA
ATOM     27  C   UNL     1       7.072   5.606  19.593  0.00  0.00    +0.000 C 
ENDBRANCH  24  26
ENDBRANCH  23  24
ENDBRANCH  21  23
ENDBRANCH   1  21
BRANCH   7  28
ATOM     28  C   UNL     1       0.653   9.344  20.102  0.00  0.00    +0.000 C 
BRANCH  28  29
ATOM     29  C   UNL     1       1.227   9.913  21.420  0.00  0.00    +0.000 C 
BRANCH  29  30
ATOM     30  N   UNL     1       0.822  11.288  21.784  0.00  0.00    +0.000 NA
ATOM     31  C   UNL     1       0.928  12.214  20.654  0.00  0.00    +0.000 C 
ATOM     32  C   UNL     1      -0.567  11.262  22.263  0.00  0.00    +0.000 C 
ENDBRANCH  29  30
ENDBRANCH  28  29
ENDBRANCH   7  28
TORSDOF 7
ENDMDL
MODEL 9
REMARK VINA RESULT:      -6.5      3.851     10.613
REMARK  Name = 
REMARK  11 active torsions:
REMARK  status: ('A' for Active; 'I' for Inactive)
REMARK    1  A    between atoms: C_1  and  N_2
REMARK    2  A    between atoms: N_2  and  C_3
REMARK    3  A    between atoms: N_2  and  C_4
REMARK    4  A    between atoms: C_4  and  C_5
REMARK    5  A    between atoms: C_5  and  N_6
REMARK    6  A    between atoms: N_6  and  C_7
REMARK    7  A    between atoms: N_13  and  C_14
REMARK    8  A    between atoms: C_14  and  C_15
REMARK    9  A    between atoms: C_15  and  N_16
REMARK   10  A    between atoms: N_16  and  C_17
REMARK   11  A    between atoms: N_16  and  C_18
REMARK                            x       y       z     vdW  Elec       q    Type
REMARK                         _______ _______ _______ _____ _____    ______ ____
ROOT
ATOM      1  C   UNL     1       0.755   9.696  19.899  0.00  0.00    +0.000 A 
ATOM      2  C   UNL     1       1.148  10.047  21.194  0.00  0.00    +0.000 A 
ATOM      3  C   UNL     1       0.372  10.897  21.964  0.00  0.00    +0.000 A 
ATOM      4  C   UNL     1      -0.797  11.451  21.434  0.00  0.00    +0.000 A 
ATOM      5  C   UNL     1      -1.609  12.282  22.322  0.00  0.00    +0.000 A 
ATOM      6  O   UNL     1      -1.333  12.327  23.519  0.00  0.00    +0.000 OA
ATOM      7  N   UNL     1      -2.682  12.929  21.751  0.00  0.00    +0.000 N 
ATOM      8  C   UNL     1      -3.180  12.663  20.476  0.00  0.00    +0.000 A 
ATOM      9  O   UNL     1      -4.249  13.178  20.145  0.00  0.00    +0.000 OA
ATOM     10  N   UNL     1      -2.434  11.786  19.655  0.00  0.00    +0.000 N 
ATOM     11  C   UNL     1      -2.872  11.421  18.317  0.00  0.00    +0.000 A 
ATOM     12  C   UNL     1      -4.099  11.850  17.765  0.00  0.00    +0.000 A 
ATOM     13  C   UNL     1      -4.531  11.474  16.486  0.00  0.00    +0.000 A 
ATOM     14  C   UNL     1      -3.729  10.681  15.686  0.00  0.00    +0.000 A 
ATOM     15  C   UNL     1      -2.510  10.247  16.186  0.00  0.00    +0.000 A 
ATOM     16  C   UNL     1      -2.100  10.593  17.491  0.00  0.00    +0.000 A 
ATOM     17  C   UNL     1      -0.852  10.002  17.990  0.00  0.00    +0.000 A 
ATOM     18  O   UNL     1      -0.228   9.222  17.275  0.00  0.00    +0.000 OA
ATOM     19  C   UNL     1      -0.415  10.319  19.362  0.00  0.00    +0.000 A 
ATOM     20  C   UNL     1      -1.215  11.195  20.128  0.00  0.00    +0.000 A 
ENDROOT
BRANCH   1  21
ATOM     21  N   UNL     1       1.557   8.818  19.145  0.00  0.00    +0.000 N 
ATOM     22  H   UNL     1       1.151   8.642  18.215  0.00  0.00    +0.000 HD
BRANCH  21  23
ATOM     23  C   UNL     1       2.115   7.639  19.817  0.00  0.00    +0.000 C 
BRANCH  23  24
ATOM     24  C   UNL     1       2.607   6.569  18.823  0.00  0.00    +0.000 C 
BRANCH  24  26
ATOM     25  C   UNL     1       3.384   4.287  18.895  0.00  0.00    +0.000 C 
ATOM     26  N   UNL     1       2.275   5.184  19.231  0.00  0.00    +0.000 NA
ATOM     27  C   UNL     1       1.974   5.083  20.663  0.00  0.00    +0.000 C 
ENDBRANCH  24  26
ENDBRANCH  23  24
ENDBRANCH  21  23
ENDBRANCH   1  21
BRANCH   7  28
ATOM     28  C   UNL     1      -3.497  13.759  22.648  0.00  0.00    +0.000 C 
BRANCH  28  29
ATOM     29  C   UNL     1      -3.100  15.252  22.704  0.00  0.00    +0.000 C 
BRANCH  29  30
ATOM     30  N   UNL     1      -2.605  15.762  24.001  0.00  0.00    +0.000 NA
ATOM     31  C   UNL     1      -3.060  14.943  25.128  0.00  0.00    +0.000 C 
ATOM     32  C   UNL     1      -1.136  15.777  23.974  0.00  0.00    +0.000 C 
ENDBRANCH  29  30
ENDBRANCH  28  29
ENDBRANCH   7  28
TORSDOF 7
ENDMDL
