MODEL 1
REMARK VINA RESULT:      -7.6      0.000      0.000
REMARK  Name = 
REMARK  6 active torsions:
REMARK  status: ('A' for Active; 'I' for Inactive)
REMARK    1  A    between atoms: C_1  and  N_2
REMARK    2  A    between atoms: N_2  and  C_3
REMARK    3  A    between atoms: N_2  and  C_13
REMARK    4  A    between atoms: C_3  and  C_4
REMARK    5  A    between atoms: C_5  and  C_6
REMARK    6  A    between atoms: C_13  and  C_14
REMARK                            x       y       z     vdW  Elec       q    Type
REMARK                         _______ _______ _______ _____ _____    ______ ____
ROOT
ATOM      1  C   UNL     1       6.714   4.736  15.719  0.00  0.00    +0.000 C 
ATOM      2  N   UNL     1       5.577   4.894  16.639  0.00  0.00    +0.000 NA
ENDROOT
BRANCH   2   3
ATOM      3  C   UNL     1       5.035   6.255  16.470  0.00  0.00    +0.000 C 
BRANCH   3   4
ATOM      4  C   UNL     1       4.210   6.715  17.640  0.00  0.00    +0.000 C 
ATOM      5  C   UNL     1       3.139   7.518  17.512  0.00  0.00    +0.000 C 
BRANCH   5   6
ATOM      6  C   UNL     1       2.300   7.991  18.622  0.00  0.00    +0.000 A 
ATOM      7  C   UNL     1       2.249   7.336  19.858  0.00  0.00    +0.000 A 
ATOM      8  C   UNL     1       1.473   7.846  20.905  0.00  0.00    +0.000 A 
ATOM      9  C   UNL     1       0.751   9.022  20.721  0.00  0.00    +0.000 A 
ATOM     10 CL   UNL     1      -0.195   9.654  22.012  0.00  0.00    +0.000 Cl
ATOM     11  C   UNL     1       0.798   9.693  19.503  0.00  0.00    +0.000 A 
ATOM     12  C   UNL     1       1.575   9.181  18.459  0.00  0.00    +0.000 A 
ENDBRANCH   5   6
ENDBRANCH   3   4
ENDBRANCH   2   3
BRANCH   2  13
ATOM     13  C   UNL     1       4.536   3.879  16.368  0.00  0.00    +0.000 C 
BRANCH  13  14
ATOM     14  C   UNL     1       3.532   3.691  17.490  0.00  0.00    +0.000 A 
ATOM     15  C   UNL     1       2.161   3.936  17.247  0.00  0.00    +0.000 A 
ATOM     16  C   UNL     1       1.215   3.805  18.266  0.00  0.00    +0.000 A 
ATOM     17  C   UNL     1       1.659   3.414  19.510  0.00  0.00    +0.000 A 
ATOM     18  C   UNL     1       2.997   3.166  19.769  0.00  0.00    +0.000 A 
ATOM     19  C   UNL     1       3.953   3.311  18.778  0.00  0.00    +0.000 A 
ATOM     20  C   UNL     1       3.158   2.828  21.202  0.00  0.00    +0.000 C 
ATOM     21  C   UNL     1       1.692   2.559  21.548  0.00  0.00    +0.000 C 
ATOM     22  O   UNL     1       0.846   3.251  20.601  0.00  0.00    +0.000 OA
ENDBRANCH  13  14
ENDBRANCH   2  13
TORSDOF 5
ENDMDL
MODEL 2
REMARK VINA RESULT:      -7.4      2.658      4.408
REMARK  Name = 
REMARK  6 active torsions:
REMARK  status: ('A' for Active; 'I' for Inactive)
REMARK    1  A    between atoms: C_1  and  N_2
REMARK    2  A    between atoms: N_2  and  C_3
REMARK    3  A    between atoms: N_2  and  C_13
REMARK    4  A    between atoms: C_3  and  C_4
REMARK    5  A    between atoms: C_5  and  C_6
REMARK    6  A    between atoms: C_13  and  C_14
REMARK                            x       y       z     vdW  Elec       q    Type
REMARK                         _______ _______ _______ _____ _____    ______ ____
ROOT
ATOM      1  C   UNL     1       2.209   1.934  19.552  0.00  0.00    +0.000 C 
ATOM      2  N   UNL     1       2.810   3.158  19.000  0.00  0.00    +0.000 NA
ENDROOT
BRANCH   2   3
ATOM      3  C   UNL     1       2.988   4.120  20.103  0.00  0.00    +0.000 C 
BRANCH   3   4
ATOM      4  C   UNL     1       2.212   5.394  19.913  0.00  0.00    +0.000 C 
ATOM      5  C   UNL     1       2.781   6.550  19.528  0.00  0.00    +0.000 C 
BRANCH   5   6
ATOM      6  C   UNL     1       2.066   7.817  19.326  0.00  0.00    +0.000 A 
ATOM      7  C   UNL     1       1.842   8.359  18.054  0.00  0.00    +0.000 A 
ATOM      8  C   UNL     1       1.115   9.545  17.902  0.00  0.00    +0.000 A 
ATOM      9  C   UNL     1       0.601  10.190  19.023  0.00  0.00    +0.000 A 
ATOM     10 CL   UNL     1      -0.301  11.643  18.835  0.00  0.00    +0.000 Cl
ATOM     11  C   UNL     1       0.804   9.660  20.294  0.00  0.00    +0.000 A 
ATOM     12  C   UNL     1       1.530   8.475  20.443  0.00  0.00    +0.000 A 
ENDBRANCH   5   6
ENDBRANCH   3   4
ENDBRANCH   2   3
BRANCH   2  13
ATOM     13  C   UNL     1       4.104   2.862  18.350  0.00  0.00    +0.000 C 
BRANCH  13  14
ATOM     14  C   UNL     1       4.886   4.087  17.913  0.00  0.00    +0.000 A 
ATOM     15  C   UNL     1       4.534   4.747  16.714  0.00  0.00    +0.000 A 
ATOM     16  C   UNL     1       5.253   5.858  16.266  0.00  0.00    +0.000 A 
ATOM     17  C   UNL     1       6.306   6.297  17.039  0.00  0.00    +0.000 A 
ATOM     18  C   UNL     1       6.665   5.667  18.219  0.00  0.00    +0.000 A 
ATOM     19  C   UNL     1       5.978   4.553  18.669  0.00  0.00    +0.000 A 
ATOM     20  C   UNL     1       7.862   6.335  18.779  0.00  0.00    +0.000 C 
ATOM     21  C   UNL     1       7.832   7.617  17.942  0.00  0.00    +0.000 C 
ATOM     22  O   UNL     1       7.100   7.368  16.720  0.00  0.00    +0.000 OA
ENDBRANCH  13  14
ENDBRANCH   2  13
TORSDOF 5
ENDMDL
MODEL 3
REMARK VINA RESULT:      -7.3      2.746      4.471
REMARK  Name = 
REMARK  6 active torsions:
REMARK  status: ('A' for Active; 'I' for Inactive)
REMARK    1  A    between atoms: C_1  and  N_2
REMARK    2  A    between atoms: N_2  and  C_3
REMARK    3  A    between atoms: N_2  and  C_13
REMARK    4  A    between atoms: C_3  and  C_4
REMARK    5  A    between atoms: C_5  and  C_6
REMARK    6  A    between atoms: C_13  and  C_14
REMARK                            x       y       z     vdW  Elec       q    Type
REMARK                         _______ _______ _______ _____ _____    ______ ____
ROOT
ATOM      1  C   UNL     1       1.809   2.306  18.575  0.00  0.00    +0.000 C 
ATOM      2  N   UNL     1       2.671   3.468  18.839  0.00  0.00    +0.000 NA
ENDROOT
BRANCH   2   3
ATOM      3  C   UNL     1       2.324   4.007  20.166  0.00  0.00    +0.000 C 
BRANCH   3   4
ATOM      4  C   UNL     1       1.796   5.414  20.119  0.00  0.00    +0.000 C 
ATOM      5  C   UNL     1       2.392   6.398  19.423  0.00  0.00    +0.000 C 
BRANCH   5   6
ATOM      6  C   UNL     1       1.914   7.785  19.343  0.00  0.00    +0.000 A 
ATOM      7  C   UNL     1       1.230   8.407  20.395  0.00  0.00    +0.000 A 
ATOM      8  C   UNL     1       0.833   9.745  20.295  0.00  0.00    +0.000 A 
ATOM      9  C   UNL     1       1.126  10.470  19.144  0.00  0.00    +0.000 A 
ATOM     10 CL   UNL     1       0.647  12.118  19.026  0.00  0.00    +0.000 Cl
ATOM     11  C   UNL     1       1.814   9.872  18.092  0.00  0.00    +0.000 A 
ATOM     12  C   UNL     1       2.211   8.535  18.195  0.00  0.00    +0.000 A 
ENDBRANCH   5   6
ENDBRANCH   3   4
ENDBRANCH   2   3
BRANCH   2  13
ATOM     13  C   UNL     1       4.099   3.087  18.786  0.00  0.00    +0.000 C 
BRANCH  13  14
ATOM     14  C   UNL     1       5.009   4.137  18.175  0.00  0.00    +0.000 A 
ATOM     15  C   UNL     1       4.910   4.428  16.796  0.00  0.00    +0.000 A 
ATOM     16  C   UNL     1       5.754   5.365  16.195  0.00  0.00    +0.000 A 
ATOM     17  C   UNL     1       6.676   6.005  16.993  0.00  0.00    +0.000 A 
ATOM     18  C   UNL     1       6.789   5.736  18.347  0.00  0.00    +0.000 A 
ATOM     19  C   UNL     1       5.975   4.797  18.958  0.00  0.00    +0.000 A 
ATOM     20  C   UNL     1       7.903   6.535  18.908  0.00  0.00    +0.000 C 
ATOM     21  C   UNL     1       8.089   7.525  17.755  0.00  0.00    +0.000 C 
ATOM     22  O   UNL     1       7.570   6.939  16.539  0.00  0.00    +0.000 OA
ENDBRANCH  13  14
ENDBRANCH   2  13
TORSDOF 5
ENDMDL
MODEL 4
REMARK VINA RESULT:      -7.2      4.950      5.590
REMARK  Name = 
REMARK  6 active torsions:
REMARK  status: ('A' for Active; 'I' for Inactive)
REMARK    1  A    between atoms: C_1  and  N_2
REMARK    2  A    between atoms: N_2  and  C_3
REMARK    3  A    between atoms: N_2  and  C_13
REMARK    4  A    between atoms: C_3  and  C_4
REMARK    5  A    between atoms: C_5  and  C_6
REMARK    6  A    between atoms: C_13  and  C_14
REMARK                            x       y       z     vdW  Elec       q    Type
REMARK                         _______ _______ _______ _____ _____    ______ ____
ROOT
ATOM      1  C   UNL     1       7.932   5.157  18.780  0.00  0.00    +0.000 C 
ATOM      2  N   UNL     1       6.821   5.950  18.233  0.00  0.00    +0.000 NA
ENDROOT
BRANCH   2   3
ATOM      3  C   UNL     1       7.388   7.010  17.380  0.00  0.00    +0.000 C 
BRANCH   3   4
ATOM      4  C   UNL     1       8.030   8.123  18.162  0.00  0.00    +0.000 C 
ATOM      5  C   UNL     1       8.262   9.343  17.646  0.00  0.00    +0.000 C 
BRANCH   5   6
ATOM      6  C   UNL     1       8.881  10.462  18.370  0.00  0.00    +0.000 A 
ATOM      7  C   UNL     1       8.933  11.760  17.846  0.00  0.00    +0.000 A 
ATOM      8  C   UNL     1       9.490  12.807  18.588  0.00  0.00    +0.000 A 
ATOM      9  C   UNL     1       9.990  12.562  19.863  0.00  0.00    +0.000 A 
ATOM     10 CL   UNL     1      10.666  13.852  20.779  0.00  0.00    +0.000 Cl
ATOM     11  C   UNL     1       9.938  11.280  20.405  0.00  0.00    +0.000 A 
ATOM     12  C   UNL     1       9.380  10.236  19.661  0.00  0.00    +0.000 A 
ENDBRANCH   5   6
ENDBRANCH   3   4
ENDBRANCH   2   3
BRANCH   2  13
ATOM     13  C   UNL     1       5.896   5.095  17.458  0.00  0.00    +0.000 C 
BRANCH  13  14
ATOM     14  C   UNL     1       4.564   4.831  18.137  0.00  0.00    +0.000 A 
ATOM     15  C   UNL     1       3.424   5.571  17.747  0.00  0.00    +0.000 A 
ATOM     16  C   UNL     1       2.191   5.377  18.374  0.00  0.00    +0.000 A 
ATOM     17  C   UNL     1       2.119   4.430  19.372  0.00  0.00    +0.000 A 
ATOM     18  C   UNL     1       3.222   3.692  19.767  0.00  0.00    +0.000 A 
ATOM     19  C   UNL     1       4.458   3.884  19.173  0.00  0.00    +0.000 A 
ATOM     20  C   UNL     1       2.837   2.811  20.893  0.00  0.00    +0.000 C 
ATOM     21  C   UNL     1       1.314   2.913  20.764  0.00  0.00    +0.000 C 
ATOM     22  O   UNL     1       0.978   4.140  20.074  0.00  0.00    +0.000 OA
ENDBRANCH  13  14
ENDBRANCH   2  13
TORSDOF 5
ENDMDL
MODEL 5
REMARK VINA RESULT:      -7.2      5.072      5.652
REMARK  Name = 
REMARK  6 active torsions:
REMARK  status: ('A' for Active; 'I' for Inactive)
REMARK    1  A    between atoms: C_1  and  N_2
REMARK    2  A    between atoms: N_2  and  C_3
REMARK    3  A    between atoms: N_2  and  C_13
REMARK    4  A    between atoms: C_3  and  C_4
REMARK    5  A    between atoms: C_5  and  C_6
REMARK    6  A    between atoms: C_13  and  C_14
REMARK                            x       y       z     vdW  Elec       q    Type
REMARK                         _______ _______ _______ _____ _____    ______ ____
ROOT
ATOM      1  C   UNL     1       7.233   5.723  18.881  0.00  0.00    +0.000 C 
ATOM      2  N   UNL     1       6.572   6.601  17.904  0.00  0.00    +0.000 NA
ENDROOT
BRANCH   2   3
ATOM      3  C   UNL     1       7.611   7.387  17.215  0.00  0.00    +0.000 C 
BRANCH   3   4
ATOM      4  C   UNL     1       7.797   8.763  17.792  0.00  0.00    +0.000 C 
ATOM      5  C   UNL     1       8.915   9.147  18.433  0.00  0.00    +0.000 C 
BRANCH   5   6
ATOM      6  C   UNL     1       9.145  10.478  19.009  0.00  0.00    +0.000 A 
ATOM      7  C   UNL     1       9.396  10.674  20.373  0.00  0.00    +0.000 A 
ATOM      8  C   UNL     1       9.656  11.955  20.873  0.00  0.00    +0.000 A 
ATOM      9  C   UNL     1       9.674  13.046  20.009  0.00  0.00    +0.000 A 
ATOM     10 CL   UNL     1      10.004  14.618  20.623  0.00  0.00    +0.000 Cl
ATOM     11  C   UNL     1       9.437  12.868  18.649  0.00  0.00    +0.000 A 
ATOM     12  C   UNL     1       9.178  11.588  18.151  0.00  0.00    +0.000 A 
ENDBRANCH   5   6
ENDBRANCH   3   4
ENDBRANCH   2   3
BRANCH   2  13
ATOM     13  C   UNL     1       5.785   5.810  16.934  0.00  0.00    +0.000 C 
BRANCH  13  14
ATOM     14  C   UNL     1       4.486   5.251  17.482  0.00  0.00    +0.000 A 
ATOM     15  C   UNL     1       3.486   6.136  17.944  0.00  0.00    +0.000 A 
ATOM     16  C   UNL     1       2.292   5.654  18.486  0.00  0.00    +0.000 A 
ATOM     17  C   UNL     1       2.115   4.289  18.541  0.00  0.00    +0.000 A 
ATOM     18  C   UNL     1       3.080   3.404  18.091  0.00  0.00    +0.000 A 
ATOM     19  C   UNL     1       4.279   3.861  17.570  0.00  0.00    +0.000 A 
ATOM     20  C   UNL     1       2.621   2.019  18.341  0.00  0.00    +0.000 C 
ATOM     21  C   UNL     1       1.142   2.306  18.618  0.00  0.00    +0.000 C 
ATOM     22  O   UNL     1       0.999   3.678  19.051  0.00  0.00    +0.000 OA
ENDBRANCH  13  14
ENDBRANCH   2  13
TORSDOF 5
ENDMDL
MODEL 6
REMARK VINA RESULT:      -7.1      1.085      1.614
REMARK  Name = 
REMARK  6 active torsions:
REMARK  status: ('A' for Active; 'I' for Inactive)
REMARK    1  A    between atoms: C_1  and  N_2
REMARK    2  A    between atoms: N_2  and  C_3
REMARK    3  A    between atoms: N_2  and  C_13
REMARK    4  A    between atoms: C_3  and  C_4
REMARK    5  A    between atoms: C_5  and  C_6
REMARK    6  A    between atoms: C_13  and  C_14
REMARK                            x       y       z     vdW  Elec       q    Type
REMARK                         _______ _______ _______ _____ _____    ______ ____
ROOT
ATOM      1  C   UNL     1       6.554   6.863  16.797  0.00  0.00    +0.000 C 
ATOM      2  N   UNL     1       5.342   6.366  17.465  0.00  0.00    +0.000 NA
ENDROOT
BRANCH   2   3
ATOM      3  C   UNL     1       4.174   7.013  16.841  0.00  0.00    +0.000 C 
BRANCH   3   4
ATOM      4  C   UNL     1       3.427   7.923  17.777  0.00  0.00    +0.000 C 
ATOM      5  C   UNL     1       2.411   7.505  18.553  0.00  0.00    +0.000 C 
BRANCH   5   6
ATOM      6  C   UNL     1       1.655   8.354  19.483  0.00  0.00    +0.000 A 
ATOM      7  C   UNL     1       1.001   9.522  19.073  0.00  0.00    +0.000 A 
ATOM      8  C   UNL     1       0.252  10.277  19.983  0.00  0.00    +0.000 A 
ATOM      9  C   UNL     1       0.147   9.860  21.307  0.00  0.00    +0.000 A 
ATOM     10 CL   UNL     1      -0.782  10.783  22.422  0.00  0.00    +0.000 Cl
ATOM     11  C   UNL     1       0.782   8.696  21.730  0.00  0.00    +0.000 A 
ATOM     12  C   UNL     1       1.529   7.944  20.819  0.00  0.00    +0.000 A 
ENDBRANCH   5   6
ENDBRANCH   3   4
ENDBRANCH   2   3
BRANCH   2  13
ATOM     13  C   UNL     1       5.246   4.894  17.354  0.00  0.00    +0.000 C 
BRANCH  13  14
ATOM     14  C   UNL     1       4.052   4.285  18.065  0.00  0.00    +0.000 A 
ATOM     15  C   UNL     1       3.067   3.603  17.315  0.00  0.00    +0.000 A 
ATOM     16  C   UNL     1       1.939   3.059  17.934  0.00  0.00    +0.000 A 
ATOM     17  C   UNL     1       1.826   3.195  19.300  0.00  0.00    +0.000 A 
ATOM     18  C   UNL     1       2.781   3.856  20.055  0.00  0.00    +0.000 A 
ATOM     19  C   UNL     1       3.896   4.420  19.458  0.00  0.00    +0.000 A 
ATOM     20  C   UNL     1       2.345   3.884  21.469  0.00  0.00    +0.000 C 
ATOM     21  C   UNL     1       1.244   2.823  21.400  0.00  0.00    +0.000 C 
ATOM     22  O   UNL     1       0.773   2.717  20.036  0.00  0.00    +0.000 OA
ENDBRANCH  13  14
ENDBRANCH   2  13
TORSDOF 5
ENDMDL
MODEL 7
REMARK VINA RESULT:      -7.0      5.010      5.544
REMARK  Name = 
REMARK  6 active torsions:
REMARK  status: ('A' for Active; 'I' for Inactive)
REMARK    1  A    between atoms: C_1  and  N_2
REMARK    2  A    between atoms: N_2  and  C_3
REMARK    3  A    between atoms: N_2  and  C_13
REMARK    4  A    between atoms: C_3  and  C_4
REMARK    5  A    between atoms: C_5  and  C_6
REMARK    6  A    between atoms: C_13  and  C_14
REMARK                            x       y       z     vdW  Elec       q    Type
REMARK                         _______ _______ _______ _____ _____    ______ ____
ROOT
ATOM      1  C   UNL     1       7.946   5.798  19.054  0.00  0.00    +0.000 C 
ATOM      2  N   UNL     1       6.841   6.235  18.188  0.00  0.00    +0.000 NA
ENDROOT
BRANCH   2   3
ATOM      3  C   UNL     1       7.361   7.252  17.256  0.00  0.00    +0.000 C 
BRANCH   3   4
ATOM      4  C   UNL     1       7.573   8.595  17.899  0.00  0.00    +0.000 C 
ATOM      5  C   UNL     1       8.791   9.114  18.130  0.00  0.00    +0.000 C 
BRANCH   5   6
ATOM      6  C   UNL     1       9.049  10.421  18.750  0.00  0.00    +0.000 A 
ATOM      7  C   UNL     1       9.417  10.556  20.095  0.00  0.00    +0.000 A 
ATOM      8  C   UNL     1       9.698  11.816  20.634  0.00  0.00    +0.000 A 
ATOM      9  C   UNL     1       9.622  12.948  19.827  0.00  0.00    +0.000 A 
ATOM     10 CL   UNL     1       9.979  14.495  20.488  0.00  0.00    +0.000 Cl
ATOM     11  C   UNL     1       9.268  12.831  18.485  0.00  0.00    +0.000 A 
ATOM     12  C   UNL     1       8.988  11.571  17.949  0.00  0.00    +0.000 A 
ENDBRANCH   5   6
ENDBRANCH   3   4
ENDBRANCH   2   3
BRANCH   2  13
ATOM     13  C   UNL     1       6.269   5.090  17.446  0.00  0.00    +0.000 C 
BRANCH  13  14
ATOM     14  C   UNL     1       4.870   4.694  17.880  0.00  0.00    +0.000 A 
ATOM     15  C   UNL     1       4.056   3.941  17.004  0.00  0.00    +0.000 A 
ATOM     16  C   UNL     1       2.751   3.588  17.358  0.00  0.00    +0.000 A 
ATOM     17  C   UNL     1       2.291   3.985  18.594  0.00  0.00    +0.000 A 
ATOM     18  C   UNL     1       3.073   4.721  19.469  0.00  0.00    +0.000 A 
ATOM     19  C   UNL     1       4.361   5.098  19.128  0.00  0.00    +0.000 A 
ATOM     20  C   UNL     1       2.278   5.040  20.677  0.00  0.00    +0.000 C 
ATOM     21  C   UNL     1       1.129   4.049  20.473  0.00  0.00    +0.000 C 
ATOM     22  O   UNL     1       1.034   3.715  19.069  0.00  0.00    +0.000 OA
ENDBRANCH  13  14
ENDBRANCH   2  13
TORSDOF 5
ENDMDL
MODEL 8
REMARK VINA RESULT:      -7.0      0.900      1.861
REMARK  Name = 
REMARK  6 active torsions:
REMARK  status: ('A' for Active; 'I' for Inactive)
REMARK    1  A    between atoms: C_1  and  N_2
REMARK    2  A    between atoms: N_2  and  C_3
REMARK    3  A    between atoms: N_2  and  C_13
REMARK    4  A    between atoms: C_3  and  C_4
REMARK    5  A    between atoms: C_5  and  C_6
REMARK    6  A    between atoms: C_13  and  C_14
REMARK                            x       y       z     vdW  Elec       q    Type
REMARK                         _______ _______ _______ _____ _____    ______ ____
ROOT
ATOM      1  C   UNL     1       7.018   5.128  14.958  0.00  0.00    +0.000 C 
ATOM      2  N   UNL     1       6.043   5.115  16.060  0.00  0.00    +0.000 NA
ENDROOT
BRANCH   2   3
ATOM      3  C   UNL     1       5.154   6.279  15.899  0.00  0.00    +0.000 C 
BRANCH   3   4
ATOM      4  C   UNL     1       4.392   6.623  17.150  0.00  0.00    +0.000 C 
ATOM      5  C   UNL     1       3.340   7.460  17.162  0.00  0.00    +0.000 C 
BRANCH   5   6
ATOM      6  C   UNL     1       2.563   7.823  18.355  0.00  0.00    +0.000 A 
ATOM      7  C   UNL     1       1.852   9.026  18.452  0.00  0.00    +0.000 A 
ATOM      8  C   UNL     1       1.086   9.312  19.587  0.00  0.00    +0.000 A 
ATOM      9  C   UNL     1       1.022   8.391  20.629  0.00  0.00    +0.000 A 
ATOM     10 CL   UNL     1       0.072   8.739  22.021  0.00  0.00    +0.000 Cl
ATOM     11  C   UNL     1       1.714   7.186  20.546  0.00  0.00    +0.000 A 
ATOM     12  C   UNL     1       2.478   6.903  19.410  0.00  0.00    +0.000 A 
ENDBRANCH   5   6
ENDBRANCH   3   4
ENDBRANCH   2   3
BRANCH   2  13
ATOM     13  C   UNL     1       5.265   3.858  16.059  0.00  0.00    +0.000 C 
BRANCH  13  14
ATOM     14  C   UNL     1       4.449   3.621  17.316  0.00  0.00    +0.000 A 
ATOM     15  C   UNL     1       5.101   3.553  18.568  0.00  0.00    +0.000 A 
ATOM     16  C   UNL     1       4.383   3.303  19.741  0.00  0.00    +0.000 A 
ATOM     17  C   UNL     1       3.019   3.142  19.638  0.00  0.00    +0.000 A 
ATOM     18  C   UNL     1       2.360   3.208  18.422  0.00  0.00    +0.000 A 
ATOM     19  C   UNL     1       3.056   3.434  17.246  0.00  0.00    +0.000 A 
ATOM     20  C   UNL     1       0.921   2.936  18.636  0.00  0.00    +0.000 C 
ATOM     21  C   UNL     1       0.871   3.105  20.157  0.00  0.00    +0.000 C 
ATOM     22  O   UNL     1       2.193   2.887  20.702  0.00  0.00    +0.000 OA
ENDBRANCH  13  14
ENDBRANCH   2  13
TORSDOF 5
ENDMDL
MODEL 9
REMARK VINA RESULT:      -7.0      2.600      4.778
REMARK  Name = 
REMARK  6 active torsions:
REMARK  status: ('A' for Active; 'I' for Inactive)
REMARK    1  A    between atoms: C_1  and  N_2
REMARK    2  A    between atoms: N_2  and  C_3
REMARK    3  A    between atoms: N_2  and  C_13
REMARK    4  A    between atoms: C_3  and  C_4
REMARK    5  A    between atoms: C_5  and  C_6
REMARK    6  A    between atoms: C_13  and  C_14
REMARK                            x       y       z     vdW  Elec       q    Type
REMARK                         _______ _______ _______ _____ _____    ______ ____
ROOT
ATOM      1  C   UNL     1       1.273   4.215  20.656  0.00  0.00    +0.000 C 
ATOM      2  N   UNL     1       2.108   4.544  19.491  0.00  0.00    +0.000 NA
ENDROOT
BRANCH   2   3
ATOM      3  C   UNL     1       2.707   5.872  19.715  0.00  0.00    +0.000 C 
BRANCH   3   4
ATOM      4  C   UNL     1       1.808   6.811  20.470  0.00  0.00    +0.000 C 
ATOM      5  C   UNL     1       1.747   8.131  20.219  0.00  0.00    +0.000 C 
BRANCH   5   6
ATOM      6  C   UNL     1       0.883   9.086  20.925  0.00  0.00    +0.000 A 
ATOM      7  C   UNL     1       0.194  10.109  20.262  0.00  0.00    +0.000 A 
ATOM      8  C   UNL     1      -0.656  10.970  20.966  0.00  0.00    +0.000 A 
ATOM      9  C   UNL     1      -0.827  10.804  22.338  0.00  0.00    +0.000 A 
ATOM     10 CL   UNL     1      -1.879  11.856  23.201  0.00  0.00    +0.000 Cl
ATOM     11  C   UNL     1      -0.158   9.786  23.012  0.00  0.00    +0.000 A 
ATOM     12  C   UNL     1       0.690   8.928  22.306  0.00  0.00    +0.000 A 
ENDBRANCH   5   6
ENDBRANCH   3   4
ENDBRANCH   2   3
BRANCH   2  13
ATOM     13  C   UNL     1       3.158   3.523  19.290  0.00  0.00    +0.000 C 
BRANCH  13  14
ATOM     14  C   UNL     1       4.317   3.973  18.419  0.00  0.00    +0.000 A 
ATOM     15  C   UNL     1       5.488   4.481  19.025  0.00  0.00    +0.000 A 
ATOM     16  C   UNL     1       6.560   4.934  18.252  0.00  0.00    +0.000 A 
ATOM     17  C   UNL     1       6.443   4.855  16.881  0.00  0.00    +0.000 A 
ATOM     18  C   UNL     1       5.306   4.358  16.267  0.00  0.00    +0.000 A 
ATOM     19  C   UNL     1       4.225   3.923  17.015  0.00  0.00    +0.000 A 
ATOM     20  C   UNL     1       5.464   4.461  14.799  0.00  0.00    +0.000 C 
ATOM     21  C   UNL     1       6.973   4.713  14.740  0.00  0.00    +0.000 C 
ATOM     22  O   UNL     1       7.411   5.268  16.002  0.00  0.00    +0.000 OA
ENDBRANCH  13  14
ENDBRANCH   2  13
TORSDOF 5
ENDMDL
