MODEL 1
REMARK VINA RESULT:      -8.9      0.000      0.000
REMARK  Name = 
REMARK  2 active torsions:
REMARK  status: ('A' for Active; 'I' for Inactive)
REMARK    1  A    between atoms: C_6  and  C_7
REMARK    2  A    between atoms: C_10  and  C_11
REMARK                            x       y       z     vdW  Elec       q    Type
REMARK                         _______ _______ _______ _____ _____    ______ ____
ROOT
ATOM      1  C   UNL     1       4.324   5.553  17.598  0.00  0.00    +0.000 A 
ATOM      2  N   UNL     1       4.179   4.659  18.584  0.00  0.00    +0.000 NA
ATOM      3  S   UNL     1       3.158   5.324  19.709  0.00  0.00    +0.000 S 
ATOM      4  C   UNL     1       2.966   6.793  18.835  0.00  0.00    +0.000 A 
ATOM      5  N   UNL     1       3.641   6.770  17.702  0.00  0.00    +0.000 NA
ENDROOT
BRANCH   1  11
ATOM      6  C   UNL     1       7.068   3.762  11.978  0.00  0.00    +0.000 A 
ATOM      7  C   UNL     1       5.757   3.297  12.014  0.00  0.00    +0.000 A 
ATOM      8  C   UNL     1       4.956   3.558  13.126  0.00  0.00    +0.000 A 
ATOM      9  C   UNL     1       5.460   4.286  14.215  0.00  0.00    +0.000 A 
ATOM     10  C   UNL     1       4.666   4.550  15.342  0.00  0.00    +0.000 A 
ATOM     11  C   UNL     1       5.166   5.284  16.430  0.00  0.00    +0.000 A 
ATOM     12  C   UNL     1       6.482   5.757  16.377  0.00  0.00    +0.000 A 
ATOM     13  C   UNL     1       7.286   5.498  15.263  0.00  0.00    +0.000 A 
ATOM     14  C   UNL     1       6.789   4.763  14.177  0.00  0.00    +0.000 A 
ATOM     15  C   UNL     1       7.581   4.492  13.051  0.00  0.00    +0.000 A 
ENDBRANCH   1  11
BRANCH   4  16
ATOM     16  C   UNL     1       2.102   7.880  19.299  0.00  0.00    +0.000 A 
ATOM     17  C   UNL     1       1.715   8.882  18.399  0.00  0.00    +0.000 A 
ATOM     18  C   UNL     1       0.869   9.921  18.802  0.00  0.00    +0.000 A 
ATOM     19  C   UNL     1       0.400   9.987  20.122  0.00  0.00    +0.000 A 
ATOM     20  C   UNL     1      -0.456  11.014  20.547  0.00  0.00    +0.000 A 
ATOM     21  C   UNL     1      -0.906  11.066  21.867  0.00  0.00    +0.000 A 
ATOM     22  C   UNL     1      -0.506  10.094  22.778  0.00  0.00    +0.000 A 
ATOM     23  C   UNL     1       0.344   9.065  22.371  0.00  0.00    +0.000 A 
ATOM     24  C   UNL     1       0.800   8.997  21.047  0.00  0.00    +0.000 A 
ATOM     25  C   UNL     1       1.647   7.961  20.625  0.00  0.00    +0.000 A 
ENDBRANCH   4  16
TORSDOF 2
ENDMDL
MODEL 2
REMARK VINA RESULT:      -8.7      3.176      4.666
REMARK  Name = 
REMARK  2 active torsions:
REMARK  status: ('A' for Active; 'I' for Inactive)
REMARK    1  A    between atoms: C_6  and  C_7
REMARK    2  A    between atoms: C_10  and  C_11
REMARK                            x       y       z     vdW  Elec       q    Type
REMARK                         _______ _______ _______ _____ _____    ______ ____
ROOT
ATOM      1  C   UNL     1       2.084   8.437  18.424  0.00  0.00    +0.000 A 
ATOM      2  N   UNL     1       2.356   9.496  17.651  0.00  0.00    +0.000 NA
ATOM      3  S   UNL     1       1.541  10.794  18.284  0.00  0.00    +0.000 S 
ATOM      4  C   UNL     1       0.842   9.878  19.561  0.00  0.00    +0.000 A 
ATOM      5  N   UNL     1       1.238   8.621  19.523  0.00  0.00    +0.000 NA
ENDROOT
BRANCH   1  11
ATOM      6  C   UNL     1       3.516   2.142  17.625  0.00  0.00    +0.000 A 
ATOM      7  C   UNL     1       2.228   2.256  18.139  0.00  0.00    +0.000 A 
ATOM      8  C   UNL     1       1.690   3.516  18.397  0.00  0.00    +0.000 A 
ATOM      9  C   UNL     1       2.437   4.677  18.145  0.00  0.00    +0.000 A 
ATOM     10  C   UNL     1       1.908   5.951  18.406  0.00  0.00    +0.000 A 
ATOM     11  C   UNL     1       2.650   7.115  18.148  0.00  0.00    +0.000 A 
ATOM     12  C   UNL     1       3.940   6.989  17.621  0.00  0.00    +0.000 A 
ATOM     13  C   UNL     1       4.482   5.727  17.359  0.00  0.00    +0.000 A 
ATOM     14  C   UNL     1       3.742   4.564  17.618  0.00  0.00    +0.000 A 
ATOM     15  C   UNL     1       4.269   3.288  17.364  0.00  0.00    +0.000 A 
ENDBRANCH   1  11
BRANCH   4  16
ATOM     16  C   UNL     1      -0.028  10.475  20.576  0.00  0.00    +0.000 A 
ATOM     17  C   UNL     1       0.015   9.989  21.889  0.00  0.00    +0.000 A 
ATOM     18  C   UNL     1      -0.783  10.554  22.890  0.00  0.00    +0.000 A 
ATOM     19  C   UNL     1      -1.655  11.612  22.595  0.00  0.00    +0.000 A 
ATOM     20  C   UNL     1      -2.459  12.200  23.582  0.00  0.00    +0.000 A 
ATOM     21  C   UNL     1      -3.325  13.247  23.265  0.00  0.00    +0.000 A 
ATOM     22  C   UNL     1      -3.400  13.719  21.959  0.00  0.00    +0.000 A 
ATOM     23  C   UNL     1      -2.606  13.147  20.965  0.00  0.00    +0.000 A 
ATOM     24  C   UNL     1      -1.727  12.097  21.270  0.00  0.00    +0.000 A 
ATOM     25  C   UNL     1      -0.917  11.520  20.279  0.00  0.00    +0.000 A 
ENDBRANCH   4  16
TORSDOF 2
ENDMDL
MODEL 3
REMARK VINA RESULT:      -8.7      0.501      9.398
REMARK  Name = 
REMARK  2 active torsions:
REMARK  status: ('A' for Active; 'I' for Inactive)
REMARK    1  A    between atoms: C_6  and  C_7
REMARK    2  A    between atoms: C_10  and  C_11
REMARK                            x       y       z     vdW  Elec       q    Type
REMARK                         _______ _______ _______ _____ _____    ______ ____
ROOT
ATOM      1  C   UNL     1       3.088   6.651  18.906  0.00  0.00    +0.000 A 
ATOM      2  N   UNL     1       3.376   5.620  19.710  0.00  0.00    +0.000 NA
ATOM      3  S   UNL     1       4.410   4.621  18.884  0.00  0.00    +0.000 S 
ATOM      4  C   UNL     1       4.416   5.604  17.473  0.00  0.00    +0.000 A 
ATOM      5  N   UNL     1       3.671   6.679  17.634  0.00  0.00    +0.000 NA
ENDROOT
BRANCH   1  11
ATOM      6  C   UNL     1      -0.831  10.904  21.883  0.00  0.00    +0.000 A 
ATOM      7  C   UNL     1      -0.421   9.941  22.800  0.00  0.00    +0.000 A 
ATOM      8  C   UNL     1       0.431   8.914  22.397  0.00  0.00    +0.000 A 
ATOM      9  C   UNL     1       0.883   8.839  21.071  0.00  0.00    +0.000 A 
ATOM     10  C   UNL     1       1.737   7.806  20.652  0.00  0.00    +0.000 A 
ATOM     11  C   UNL     1       2.196   7.733  19.327  0.00  0.00    +0.000 A 
ATOM     12  C   UNL     1       1.786   8.713  18.416  0.00  0.00    +0.000 A 
ATOM     13  C   UNL     1       0.933   9.745  18.818  0.00  0.00    +0.000 A 
ATOM     14  C   UNL     1       0.473   9.818  20.140  0.00  0.00    +0.000 A 
ATOM     15  C   UNL     1      -0.386  10.846  20.561  0.00  0.00    +0.000 A 
ENDBRANCH   1  11
BRANCH   4  16
ATOM     16  C   UNL     1       5.213   5.279  16.289  0.00  0.00    +0.000 A 
ATOM     17  C   UNL     1       6.545   5.709  16.218  0.00  0.00    +0.000 A 
ATOM     18  C   UNL     1       7.343   5.394  15.113  0.00  0.00    +0.000 A 
ATOM     19  C   UNL     1       6.821   4.649  14.045  0.00  0.00    +0.000 A 
ATOM     20  C   UNL     1       7.603   4.314  12.930  0.00  0.00    +0.000 A 
ATOM     21  C   UNL     1       7.062   3.579  11.874  0.00  0.00    +0.000 A 
ATOM     22  C   UNL     1       5.732   3.171  11.919  0.00  0.00    +0.000 A 
ATOM     23  C   UNL     1       4.941   3.495  13.021  0.00  0.00    +0.000 A 
ATOM     24  C   UNL     1       5.473   4.229  14.091  0.00  0.00    +0.000 A 
ATOM     25  C   UNL     1       4.687   4.552  15.209  0.00  0.00    +0.000 A 
ENDBRANCH   4  16
TORSDOF 2
ENDMDL
MODEL 4
REMARK VINA RESULT:      -8.5      0.595      1.585
REMARK  Name = 
REMARK  2 active torsions:
REMARK  status: ('A' for Active; 'I' for Inactive)
REMARK    1  A    between atoms: C_6  and  C_7
REMARK    2  A    between atoms: C_10  and  C_11
REMARK                            x       y       z     vdW  Elec       q    Type
REMARK                         _______ _______ _______ _____ _____    ______ ____
ROOT
ATOM      1  C   UNL     1       4.402   5.358  17.684  0.00  0.00    +0.000 A 
ATOM      2  N   UNL     1       4.310   4.418  18.633  0.00  0.00    +0.000 NA
ATOM      3  S   UNL     1       3.285   4.993  19.803  0.00  0.00    +0.000 S 
ATOM      4  C   UNL     1       3.020   6.488  18.996  0.00  0.00    +0.000 A 
ATOM      5  N   UNL     1       3.674   6.541  17.853  0.00  0.00    +0.000 NA
ENDROOT
BRANCH   1  11
ATOM      6  C   UNL     1       7.125   3.887  11.962  0.00  0.00    +0.000 A 
ATOM      7  C   UNL     1       5.847   3.339  12.014  0.00  0.00    +0.000 A 
ATOM      8  C   UNL     1       5.057   3.520  13.149  0.00  0.00    +0.000 A 
ATOM      9  C   UNL     1       5.539   4.251  14.246  0.00  0.00    +0.000 A 
ATOM     10  C   UNL     1       4.756   4.435  15.397  0.00  0.00    +0.000 A 
ATOM     11  C   UNL     1       5.232   5.173  16.492  0.00  0.00    +0.000 A 
ATOM     12  C   UNL     1       6.514   5.729  16.424  0.00  0.00    +0.000 A 
ATOM     13  C   UNL     1       7.308   5.551  15.287  0.00  0.00    +0.000 A 
ATOM     14  C   UNL     1       6.833   4.813  14.192  0.00  0.00    +0.000 A 
ATOM     15  C   UNL     1       7.616   4.622  13.043  0.00  0.00    +0.000 A 
ENDBRANCH   1  11
BRANCH   4  16
ATOM     16  C   UNL     1       2.123   7.520  19.521  0.00  0.00    +0.000 A 
ATOM     17  C   UNL     1       1.576   7.368  20.802  0.00  0.00    +0.000 A 
ATOM     18  C   UNL     1       0.736   8.346  21.345  0.00  0.00    +0.000 A 
ATOM     19  C   UNL     1       0.414   9.497  20.611  0.00  0.00    +0.000 A 
ATOM     20  C   UNL     1      -0.419  10.496  21.137  0.00  0.00    +0.000 A 
ATOM     21  C   UNL     1      -0.733  11.630  20.387  0.00  0.00    +0.000 A 
ATOM     22  C   UNL     1      -0.221  11.779  19.102  0.00  0.00    +0.000 A 
ATOM     23  C   UNL     1       0.610  10.796  18.565  0.00  0.00    +0.000 A 
ATOM     24  C   UNL     1       0.938   9.653  19.309  0.00  0.00    +0.000 A 
ATOM     25  C   UNL     1       1.781   8.663  18.781  0.00  0.00    +0.000 A 
ENDBRANCH   4  16
TORSDOF 2
ENDMDL
MODEL 5
REMARK VINA RESULT:      -8.5      0.796      9.149
REMARK  Name = 
REMARK  2 active torsions:
REMARK  status: ('A' for Active; 'I' for Inactive)
REMARK    1  A    between atoms: C_6  and  C_7
REMARK    2  A    between atoms: C_10  and  C_11
REMARK                            x       y       z     vdW  Elec       q    Type
REMARK                         _______ _______ _______ _____ _____    ______ ____
ROOT
ATOM      1  C   UNL     1       3.117   6.322  19.133  0.00  0.00    +0.000 A 
ATOM      2  N   UNL     1       3.416   5.236  19.856  0.00  0.00    +0.000 NA
ATOM      3  S   UNL     1       4.456   4.312  18.953  0.00  0.00    +0.000 S 
ATOM      4  C   UNL     1       4.448   5.399  17.621  0.00  0.00    +0.000 A 
ATOM      5  N   UNL     1       3.693   6.452  17.865  0.00  0.00    +0.000 NA
ENDROOT
BRANCH   1  11
ATOM      6  C   UNL     1      -0.701  11.465  20.272  0.00  0.00    +0.000 A 
ATOM      7  C   UNL     1      -0.174  11.563  18.989  0.00  0.00    +0.000 A 
ATOM      8  C   UNL     1       0.681  10.571  18.509  0.00  0.00    +0.000 A 
ATOM      9  C   UNL     1       1.018   9.469  19.310  0.00  0.00    +0.000 A 
ATOM     10  C   UNL     1       1.883   8.467  18.841  0.00  0.00    +0.000 A 
ATOM     11  C   UNL     1       2.216   7.360  19.638  0.00  0.00    +0.000 A 
ATOM     12  C   UNL     1       1.670   7.266  20.923  0.00  0.00    +0.000 A 
ATOM     13  C   UNL     1       0.812   8.259  21.406  0.00  0.00    +0.000 A 
ATOM     14  C   UNL     1       0.479   9.365  20.611  0.00  0.00    +0.000 A 
ATOM     15  C   UNL     1      -0.379  10.372  21.079  0.00  0.00    +0.000 A 
ENDBRANCH   1  11
BRANCH   4  16
ATOM     16  C   UNL     1       5.243   5.172  16.413  0.00  0.00    +0.000 A 
ATOM     17  C   UNL     1       6.546   5.684  16.342  0.00  0.00    +0.000 A 
ATOM     18  C   UNL     1       7.343   5.463  15.213  0.00  0.00    +0.000 A 
ATOM     19  C   UNL     1       6.848   4.734  14.122  0.00  0.00    +0.000 A 
ATOM     20  C   UNL     1       7.631   4.494  12.983  0.00  0.00    +0.000 A 
ATOM     21  C   UNL     1       7.117   3.772  11.905  0.00  0.00    +0.000 A 
ATOM     22  C   UNL     1       5.815   3.284  11.950  0.00  0.00    +0.000 A 
ATOM     23  C   UNL     1       5.024   3.513  13.076  0.00  0.00    +0.000 A 
ATOM     24  C   UNL     1       5.529   4.232  14.169  0.00  0.00    +0.000 A 
ATOM     25  C   UNL     1       4.744   4.461  15.310  0.00  0.00    +0.000 A 
ENDBRANCH   4  16
TORSDOF 2
ENDMDL
MODEL 6
REMARK VINA RESULT:      -8.4      4.821      7.131
REMARK  Name = 
REMARK  2 active torsions:
REMARK  status: ('A' for Active; 'I' for Inactive)
REMARK    1  A    between atoms: C_6  and  C_7
REMARK    2  A    between atoms: C_10  and  C_11
REMARK                            x       y       z     vdW  Elec       q    Type
REMARK                         _______ _______ _______ _____ _____    ______ ____
ROOT
ATOM      1  C   UNL     1       7.415   7.609  17.476  0.00  0.00    +0.000 A 
ATOM      2  N   UNL     1       7.957   6.904  16.475  0.00  0.00    +0.000 NA
ATOM      3  S   UNL     1       6.993   5.578  16.226  0.00  0.00    +0.000 S 
ATOM      4  C   UNL     1       5.897   5.995  17.483  0.00  0.00    +0.000 A 
ATOM      5  N   UNL     1       6.240   7.128  18.062  0.00  0.00    +0.000 NA
ENDROOT
BRANCH   1  11
ATOM      6  C   UNL     1       9.402  13.677  18.725  0.00  0.00    +0.000 A 
ATOM      7  C   UNL     1       8.482  13.703  17.682  0.00  0.00    +0.000 A 
ATOM      8  C   UNL     1       7.908  12.515  17.229  0.00  0.00    +0.000 A 
ATOM      9  C   UNL     1       8.249  11.287  17.816  0.00  0.00    +0.000 A 
ATOM     10  C   UNL     1       7.683  10.084  17.365  0.00  0.00    +0.000 A 
ATOM     11  C   UNL     1       8.017   8.855  17.955  0.00  0.00    +0.000 A 
ATOM     12  C   UNL     1       8.934   8.842  19.012  0.00  0.00    +0.000 A 
ATOM     13  C   UNL     1       9.510  10.031  19.469  0.00  0.00    +0.000 A 
ATOM     14  C   UNL     1       9.178  11.259  18.879  0.00  0.00    +0.000 A 
ATOM     15  C   UNL     1       9.747  12.463  19.323  0.00  0.00    +0.000 A 
ENDBRANCH   1  11
BRANCH   4  16
ATOM     16  C   UNL     1       4.711   5.195  17.794  0.00  0.00    +0.000 A 
ATOM     17  C   UNL     1       4.232   4.280  16.847  0.00  0.00    +0.000 A 
ATOM     18  C   UNL     1       3.117   3.481  17.121  0.00  0.00    +0.000 A 
ATOM     19  C   UNL     1       2.447   3.588  18.349  0.00  0.00    +0.000 A 
ATOM     20  C   UNL     1       1.332   2.792  18.650  0.00  0.00    +0.000 A 
ATOM     21  C   UNL     1       0.675   2.919  19.875  0.00  0.00    +0.000 A 
ATOM     22  C   UNL     1       1.123   3.845  20.812  0.00  0.00    +0.000 A 
ATOM     23  C   UNL     1       2.231   4.643  20.529  0.00  0.00    +0.000 A 
ATOM     24  C   UNL     1       2.904   4.522  19.304  0.00  0.00    +0.000 A 
ATOM     25  C   UNL     1       4.025   5.314  19.013  0.00  0.00    +0.000 A 
ENDBRANCH   4  16
TORSDOF 2
ENDMDL
MODEL 7
REMARK VINA RESULT:      -8.4      2.570      4.616
REMARK  Name = 
REMARK  2 active torsions:
REMARK  status: ('A' for Active; 'I' for Inactive)
REMARK    1  A    between atoms: C_6  and  C_7
REMARK    2  A    between atoms: C_10  and  C_11
REMARK                            x       y       z     vdW  Elec       q    Type
REMARK                         _______ _______ _______ _____ _____    ______ ____
ROOT
ATOM      1  C   UNL     1       1.972   8.954  18.561  0.00  0.00    +0.000 A 
ATOM      2  N   UNL     1       2.207  10.058  17.841  0.00  0.00    +0.000 NA
ATOM      3  S   UNL     1       1.311  11.284  18.508  0.00  0.00    +0.000 S 
ATOM      4  C   UNL     1       0.630  10.278  19.725  0.00  0.00    +0.000 A 
ATOM      5  N   UNL     1       1.091   9.046  19.644  0.00  0.00    +0.000 NA
ENDROOT
BRANCH   1  11
ATOM      6  C   UNL     1       5.456   3.935  16.326  0.00  0.00    +0.000 A 
ATOM      7  C   UNL     1       5.837   5.091  15.653  0.00  0.00    +0.000 A 
ATOM      8  C   UNL     1       5.228   6.308  15.959  0.00  0.00    +0.000 A 
ATOM      9  C   UNL     1       4.230   6.381  16.943  0.00  0.00    +0.000 A 
ATOM     10  C   UNL     1       3.606   7.599  17.255  0.00  0.00    +0.000 A 
ATOM     11  C   UNL     1       2.612   7.675  18.244  0.00  0.00    +0.000 A 
ATOM     12  C   UNL     1       2.244   6.508  18.922  0.00  0.00    +0.000 A 
ATOM     13  C   UNL     1       2.854   5.287  18.619  0.00  0.00    +0.000 A 
ATOM     14  C   UNL     1       3.846   5.209  17.631  0.00  0.00    +0.000 A 
ATOM     15  C   UNL     1       4.468   3.992  17.310  0.00  0.00    +0.000 A 
ENDBRANCH   1  11
BRANCH   4  16
ATOM     16  C   UNL     1      -0.294  10.785  20.742  0.00  0.00    +0.000 A 
ATOM     17  C   UNL     1      -0.223  10.281  22.047  0.00  0.00    +0.000 A 
ATOM     18  C   UNL     1      -1.073  10.762  23.049  0.00  0.00    +0.000 A 
ATOM     19  C   UNL     1      -2.024  11.753  22.763  0.00  0.00    +0.000 A 
ATOM     20  C   UNL     1      -2.882  12.256  23.752  0.00  0.00    +0.000 A 
ATOM     21  C   UNL     1      -3.826  13.237  23.445  0.00  0.00    +0.000 A 
ATOM     22  C   UNL     1      -3.927  13.724  22.146  0.00  0.00    +0.000 A 
ATOM     23  C   UNL     1      -3.081  13.235  21.151  0.00  0.00    +0.000 A 
ATOM     24  C   UNL     1      -2.123  12.254  21.446  0.00  0.00    +0.000 A 
ATOM     25  C   UNL     1      -1.261  11.762  20.454  0.00  0.00    +0.000 A 
ENDBRANCH   4  16
TORSDOF 2
ENDMDL
MODEL 8
REMARK VINA RESULT:      -8.3      3.630     10.074
REMARK  Name = 
REMARK  2 active torsions:
REMARK  status: ('A' for Active; 'I' for Inactive)
REMARK    1  A    between atoms: C_6  and  C_7
REMARK    2  A    between atoms: C_10  and  C_11
REMARK                            x       y       z     vdW  Elec       q    Type
REMARK                         _______ _______ _______ _____ _____    ______ ____
ROOT
ATOM      1  C   UNL     1       0.475  10.065  19.924  0.00  0.00    +0.000 A 
ATOM      2  N   UNL     1       0.854  10.632  18.772  0.00  0.00    +0.000 NA
ATOM      3  S   UNL     1       1.849   9.556  17.995  0.00  0.00    +0.000 S 
ATOM      4  C   UNL     1       1.744   8.380  19.246  0.00  0.00    +0.000 A 
ATOM      5  N   UNL     1       0.953   8.784  20.219  0.00  0.00    +0.000 NA
ENDROOT
BRANCH   1  11
ATOM      6  C   UNL     1      -3.865  13.730  23.096  0.00  0.00    +0.000 A 
ATOM      7  C   UNL     1      -3.883  14.066  21.746  0.00  0.00    +0.000 A 
ATOM      8  C   UNL     1      -3.034  13.412  20.853  0.00  0.00    +0.000 A 
ATOM      9  C   UNL     1      -2.156  12.413  21.304  0.00  0.00    +0.000 A 
ATOM     10  C   UNL     1      -1.292  11.752  20.416  0.00  0.00    +0.000 A 
ATOM     11  C   UNL     1      -0.418  10.748  20.863  0.00  0.00    +0.000 A 
ATOM     12  C   UNL     1      -0.416  10.410  22.221  0.00  0.00    +0.000 A 
ATOM     13  C   UNL     1      -1.268  11.064  23.117  0.00  0.00    +0.000 A 
ATOM     14  C   UNL     1      -2.140  12.067  22.673  0.00  0.00    +0.000 A 
ATOM     15  C   UNL     1      -3.001  12.735  23.558  0.00  0.00    +0.000 A 
ENDBRANCH   1  11
BRANCH   4  16
ATOM     16  C   UNL     1       2.418   7.082  19.167  0.00  0.00    +0.000 A 
ATOM     17  C   UNL     1       3.396   6.875  18.185  0.00  0.00    +0.000 A 
ATOM     18  C   UNL     1       4.078   5.656  18.098  0.00  0.00    +0.000 A 
ATOM     19  C   UNL     1       3.787   4.611  18.987  0.00  0.00    +0.000 A 
ATOM     20  C   UNL     1       4.463   3.383  18.925  0.00  0.00    +0.000 A 
ATOM     21  C   UNL     1       4.153   2.354  19.815  0.00  0.00    +0.000 A 
ATOM     22  C   UNL     1       3.164   2.537  20.775  0.00  0.00    +0.000 A 
ATOM     23  C   UNL     1       2.483   3.752  20.851  0.00  0.00    +0.000 A 
ATOM     24  C   UNL     1       2.787   4.797  19.968  0.00  0.00    +0.000 A 
ATOM     25  C   UNL     1       2.115   6.027  20.042  0.00  0.00    +0.000 A 
ENDBRANCH   4  16
TORSDOF 2
ENDMDL
MODEL 9
REMARK VINA RESULT:      -8.3      3.592      5.488
REMARK  Name = 
REMARK  2 active torsions:
REMARK  status: ('A' for Active; 'I' for Inactive)
REMARK    1  A    between atoms: C_6  and  C_7
REMARK    2  A    between atoms: C_10  and  C_11
REMARK                            x       y       z     vdW  Elec       q    Type
REMARK                         _______ _______ _______ _____ _____    ______ ____
ROOT
ATOM      1  C   UNL     1       1.836   8.496  19.076  0.00  0.00    +0.000 A 
ATOM      2  N   UNL     1       2.054   9.432  18.144  0.00  0.00    +0.000 NA
ATOM      3  S   UNL     1       1.156  10.763  18.560  0.00  0.00    +0.000 S 
ATOM      4  C   UNL     1       0.498  10.022  19.965  0.00  0.00    +0.000 A 
ATOM      5  N   UNL     1       0.968   8.801  20.129  0.00  0.00    +0.000 NA
ENDROOT
BRANCH   1  11
ATOM      6  C   UNL     1       4.013   2.409  19.803  0.00  0.00    +0.000 A 
ATOM      7  C   UNL     1       3.066   2.676  20.786  0.00  0.00    +0.000 A 
ATOM      8  C   UNL     1       2.449   3.926  20.839  0.00  0.00    +0.000 A 
ATOM      9  C   UNL     1       2.774   4.923  19.906  0.00  0.00    +0.000 A 
ATOM     10  C   UNL     1       2.165   6.186  19.952  0.00  0.00    +0.000 A 
ATOM     11  C   UNL     1       2.483   7.183  19.016  0.00  0.00    +0.000 A 
ATOM     12  C   UNL     1       3.428   6.900  18.024  0.00  0.00    +0.000 A 
ATOM     13  C   UNL     1       4.047   5.647  17.969  0.00  0.00    +0.000 A 
ATOM     14  C   UNL     1       3.731   4.651  18.904  0.00  0.00    +0.000 A 
ATOM     15  C   UNL     1       4.343   3.389  18.865  0.00  0.00    +0.000 A 
ENDBRANCH   1  11
BRANCH   4  16
ATOM     16  C   UNL     1      -0.419  10.719  20.870  0.00  0.00    +0.000 A 
ATOM     17  C   UNL     1      -0.436  10.376  22.228  0.00  0.00    +0.000 A 
ATOM     18  C   UNL     1      -1.280  11.040  23.125  0.00  0.00    +0.000 A 
ATOM     19  C   UNL     1      -2.137  12.058  22.679  0.00  0.00    +0.000 A 
ATOM     20  C   UNL     1      -2.986  12.743  23.560  0.00  0.00    +0.000 A 
ATOM     21  C   UNL     1      -3.835  13.748  23.094  0.00  0.00    +0.000 A 
ATOM     22  C   UNL     1      -3.849  14.078  21.743  0.00  0.00    +0.000 A 
ATOM     23  C   UNL     1      -3.009  13.407  20.853  0.00  0.00    +0.000 A 
ATOM     24  C   UNL     1      -2.147  12.399  21.308  0.00  0.00    +0.000 A 
ATOM     25  C   UNL     1      -1.292  11.724  20.423  0.00  0.00    +0.000 A 
ENDBRANCH   4  16
TORSDOF 2
ENDMDL
