MODEL 1
REMARK VINA RESULT:      -8.0      0.000      0.000
REMARK  Name = 
REMARK  4 active torsions:
REMARK  status: ('A' for Active; 'I' for Inactive)
REMARK    1  A    between atoms: C_2  and  C_14
REMARK    2  A    between atoms: N_3  and  C_4
REMARK    3  A    between atoms: C_4  and  C_5
REMARK    4  A    between atoms: C_6  and  C_7
REMARK                            x       y       z     vdW  Elec       q    Type
REMARK                         _______ _______ _______ _____ _____    ______ ____
ROOT
ATOM      1  O   UNL     1       6.168   5.048  19.624  0.00  0.00    +0.000 OA
ATOM      2  C   UNL     1       5.443   5.600  18.800  0.00  0.00    +0.000 C 
ATOM      3  N   UNL     1       5.950   6.309  17.739  0.00  0.00    +0.000 N 
ATOM      4  H   UNL     1       5.364   6.940  17.207  0.00  0.00    +0.000 HD
ENDROOT
BRANCH   2   5
ATOM      5  C   UNL     1       3.917   5.523  18.870  0.00  0.00    +0.000 C 
ATOM      6  C   UNL     1       3.446   4.600  20.014  0.00  0.00    +0.000 C 
ATOM      7  C   UNL     1       3.769   3.120  19.814  0.00  0.00    +0.000 C 
ATOM      8  S   UNL     1       3.108   2.490  18.289  0.00  0.00    +0.000 S 
ATOM      9  O   UNL     1       3.768   1.234  17.991  0.00  0.00    +0.000 OA
ATOM     10  O   UNL     1       1.662   2.573  18.357  0.00  0.00    +0.000 OA
ATOM     11  C   UNL     1       3.667   3.692  17.104  0.00  0.00    +0.000 C 
ATOM     12  C   UNL     1       3.299   5.108  17.524  0.00  0.00    +0.000 C 
ENDBRANCH   2   5
BRANCH   3  13
ATOM     13  C   UNL     1       7.376   6.380  17.571  0.00  0.00    +0.000 C 
BRANCH  13  14
ATOM     14  C   UNL     1       7.914   7.757  17.923  0.00  0.00    +0.000 C 
ATOM     15  C   UNL     1       8.375   8.938  18.225  0.00  0.00    +0.000 C 
BRANCH  15  16
ATOM     16  C   UNL     1       8.868  10.239  18.555  0.00  0.00    +0.000 A 
ATOM     17  C   UNL     1       8.619  11.319  17.702  0.00  0.00    +0.000 A 
ATOM     18  C   UNL     1       9.118  12.588  18.010  0.00  0.00    +0.000 A 
ATOM     19  C   UNL     1       9.866  12.776  19.171  0.00  0.00    +0.000 A 
ATOM     20  C   UNL     1      10.101  11.697  20.016  0.00  0.00    +0.000 A 
ATOM     21  F   UNL     1      10.820  11.879  21.131  0.00  0.00    +0.000 F 
ATOM     22  C   UNL     1       9.609  10.430  19.721  0.00  0.00    +0.000 A 
ENDBRANCH  15  16
ENDBRANCH  13  14
ENDBRANCH   3  13
TORSDOF 4
ENDMDL
MODEL 2
REMARK VINA RESULT:      -7.8      0.966      1.418
REMARK  Name = 
REMARK  4 active torsions:
REMARK  status: ('A' for Active; 'I' for Inactive)
REMARK    1  A    between atoms: C_2  and  C_14
REMARK    2  A    between atoms: N_3  and  C_4
REMARK    3  A    between atoms: C_4  and  C_5
REMARK    4  A    between atoms: C_6  and  C_7
REMARK                            x       y       z     vdW  Elec       q    Type
REMARK                         _______ _______ _______ _____ _____    ______ ____
ROOT
ATOM      1  O   UNL     1       6.187   4.979  19.436  0.00  0.00    +0.000 OA
ATOM      2  C   UNL     1       5.426   5.619  18.715  0.00  0.00    +0.000 C 
ATOM      3  N   UNL     1       5.882   6.416  17.694  0.00  0.00    +0.000 N 
ATOM      4  H   UNL     1       5.281   7.105  17.262  0.00  0.00    +0.000 HD
ENDROOT
BRANCH   2   5
ATOM      5  C   UNL     1       3.906   5.564  18.874  0.00  0.00    +0.000 C 
ATOM      6  C   UNL     1       3.490   4.642  20.040  0.00  0.00    +0.000 C 
ATOM      7  C   UNL     1       3.779   3.158  19.815  0.00  0.00    +0.000 C 
ATOM      8  S   UNL     1       3.021   2.545  18.330  0.00  0.00    +0.000 S 
ATOM      9  O   UNL     1       3.643   1.281  17.988  0.00  0.00    +0.000 OA
ATOM     10  O   UNL     1       1.582   2.648  18.483  0.00  0.00    +0.000 OA
ATOM     11  C   UNL     1       3.525   3.745  17.119  0.00  0.00    +0.000 C 
ATOM     12  C   UNL     1       3.203   5.164  17.566  0.00  0.00    +0.000 C 
ENDBRANCH   2   5
BRANCH   3  13
ATOM     13  C   UNL     1       7.297   6.476  17.444  0.00  0.00    +0.000 C 
BRANCH  13  14
ATOM     14  C   UNL     1       7.888   7.805  17.886  0.00  0.00    +0.000 C 
ATOM     15  C   UNL     1       8.395   8.945  18.265  0.00  0.00    +0.000 C 
BRANCH  15  16
ATOM     16  C   UNL     1       8.938  10.201  18.680  0.00  0.00    +0.000 A 
ATOM     17  C   UNL     1       9.419  10.359  19.983  0.00  0.00    +0.000 A 
ATOM     18  C   UNL     1       9.930  11.591  20.399  0.00  0.00    +0.000 A 
ATOM     19  C   UNL     1       9.959  12.666  19.511  0.00  0.00    +0.000 A 
ATOM     20  C   UNL     1       9.483  12.496  18.215  0.00  0.00    +0.000 A 
ATOM     21  F   UNL     1       9.511  13.529  17.364  0.00  0.00    +0.000 F 
ATOM     22  C   UNL     1       8.974  11.273  17.789  0.00  0.00    +0.000 A 
ENDBRANCH  15  16
ENDBRANCH  13  14
ENDBRANCH   3  13
TORSDOF 4
ENDMDL
MODEL 3
REMARK VINA RESULT:      -7.7      1.391      1.686
REMARK  Name = 
REMARK  4 active torsions:
REMARK  status: ('A' for Active; 'I' for Inactive)
REMARK    1  A    between atoms: C_2  and  C_14
REMARK    2  A    between atoms: N_3  and  C_4
REMARK    3  A    between atoms: C_4  and  C_5
REMARK    4  A    between atoms: C_6  and  C_7
REMARK                            x       y       z     vdW  Elec       q    Type
REMARK                         _______ _______ _______ _____ _____    ______ ____
ROOT
ATOM      1  O   UNL     1       4.795   5.536  16.337  0.00  0.00    +0.000 OA
ATOM      2  C   UNL     1       4.807   5.899  17.510  0.00  0.00    +0.000 C 
ATOM      3  N   UNL     1       5.877   6.561  18.060  0.00  0.00    +0.000 N 
ATOM      4  H   UNL     1       5.976   6.650  19.063  0.00  0.00    +0.000 HD
ENDROOT
BRANCH   2   5
ATOM      5  C   UNL     1       3.624   5.669  18.452  0.00  0.00    +0.000 C 
ATOM      6  C   UNL     1       4.050   4.901  19.722  0.00  0.00    +0.000 C 
ATOM      7  C   UNL     1       4.472   3.453  19.480  0.00  0.00    +0.000 C 
ATOM      8  S   UNL     1       3.203   2.512  18.666  0.00  0.00    +0.000 S 
ATOM      9  O   UNL     1       3.802   1.303  18.134  0.00  0.00    +0.000 OA
ATOM     10  O   UNL     1       2.055   2.446  19.549  0.00  0.00    +0.000 OA
ATOM     11  C   UNL     1       2.774   3.556  17.293  0.00  0.00    +0.000 C 
ATOM     12  C   UNL     1       2.450   4.973  17.744  0.00  0.00    +0.000 C 
ENDBRANCH   2   5
BRANCH   3  13
ATOM     13  C   UNL     1       7.006   6.865  17.224  0.00  0.00    +0.000 C 
BRANCH  13  14
ATOM     14  C   UNL     1       7.781   8.066  17.743  0.00  0.00    +0.000 C 
ATOM     15  C   UNL     1       8.446   9.095  18.188  0.00  0.00    +0.000 C 
BRANCH  15  16
ATOM     16  C   UNL     1       9.162  10.230  18.681  0.00  0.00    +0.000 A 
ATOM     17  C   UNL     1       9.291  10.433  20.058  0.00  0.00    +0.000 A 
ATOM     18  C   UNL     1       9.971  11.552  20.544  0.00  0.00    +0.000 A 
ATOM     19  C   UNL     1      10.522  12.471  19.651  0.00  0.00    +0.000 A 
ATOM     20  C   UNL     1      10.394  12.256  18.283  0.00  0.00    +0.000 A 
ATOM     21  F   UNL     1      10.924  13.139  17.427  0.00  0.00    +0.000 F 
ATOM     22  C   UNL     1       9.721  11.144  17.787  0.00  0.00    +0.000 A 
ENDBRANCH  15  16
ENDBRANCH  13  14
ENDBRANCH   3  13
TORSDOF 4
ENDMDL
MODEL 4
REMARK VINA RESULT:      -7.7      1.136      1.136
REMARK  Name = 
REMARK  4 active torsions:
REMARK  status: ('A' for Active; 'I' for Inactive)
REMARK    1  A    between atoms: C_2  and  C_14
REMARK    2  A    between atoms: N_3  and  C_4
REMARK    3  A    between atoms: C_4  and  C_5
REMARK    4  A    between atoms: C_6  and  C_7
REMARK                            x       y       z     vdW  Elec       q    Type
REMARK                         _______ _______ _______ _____ _____    ______ ____
ROOT
ATOM      1  O   UNL     1       4.732   5.750  16.297  0.00  0.00    +0.000 OA
ATOM      2  C   UNL     1       4.817   5.936  17.507  0.00  0.00    +0.000 C 
ATOM      3  N   UNL     1       5.963   6.413  18.095  0.00  0.00    +0.000 N 
ATOM      4  H   UNL     1       6.102   6.347  19.095  0.00  0.00    +0.000 HD
ENDROOT
BRANCH   2   5
ATOM      5  C   UNL     1       3.650   5.678  18.461  0.00  0.00    +0.000 C 
ATOM      6  C   UNL     1       4.094   4.866  19.696  0.00  0.00    +0.000 C 
ATOM      7  C   UNL     1       4.507   3.425  19.398  0.00  0.00    +0.000 C 
ATOM      8  S   UNL     1       3.220   2.517  18.574  0.00  0.00    +0.000 S 
ATOM      9  O   UNL     1       3.805   1.324  17.992  0.00  0.00    +0.000 OA
ATOM     10  O   UNL     1       2.087   2.425  19.475  0.00  0.00    +0.000 OA
ATOM     11  C   UNL     1       2.772   3.608  17.245  0.00  0.00    +0.000 C 
ATOM     12  C   UNL     1       2.461   5.010  17.750  0.00  0.00    +0.000 C 
ENDBRANCH   2   5
BRANCH   3  13
ATOM     13  C   UNL     1       7.087   6.734  17.259  0.00  0.00    +0.000 C 
BRANCH  13  14
ATOM     14  C   UNL     1       7.827   7.963  17.761  0.00  0.00    +0.000 C 
ATOM     15  C   UNL     1       8.462   9.018  18.192  0.00  0.00    +0.000 C 
BRANCH  15  16
ATOM     16  C   UNL     1       9.151  10.182  18.655  0.00  0.00    +0.000 A 
ATOM     17  C   UNL     1       9.782  11.031  17.741  0.00  0.00    +0.000 A 
ATOM     18  C   UNL     1      10.476  12.157  18.190  0.00  0.00    +0.000 A 
ATOM     19  C   UNL     1      10.539  12.434  19.555  0.00  0.00    +0.000 A 
ATOM     20  C   UNL     1       9.902  11.587  20.455  0.00  0.00    +0.000 A 
ATOM     21  F   UNL     1       9.964  11.854  21.766  0.00  0.00    +0.000 F 
ATOM     22  C   UNL     1       9.207  10.464  20.020  0.00  0.00    +0.000 A 
ENDBRANCH  15  16
ENDBRANCH  13  14
ENDBRANCH   3  13
TORSDOF 4
ENDMDL
MODEL 5
REMARK VINA RESULT:      -7.7      1.643      2.162
REMARK  Name = 
REMARK  4 active torsions:
REMARK  status: ('A' for Active; 'I' for Inactive)
REMARK    1  A    between atoms: C_2  and  C_14
REMARK    2  A    between atoms: N_3  and  C_4
REMARK    3  A    between atoms: C_4  and  C_5
REMARK    4  A    between atoms: C_6  and  C_7
REMARK                            x       y       z     vdW  Elec       q    Type
REMARK                         _______ _______ _______ _____ _____    ______ ____
ROOT
ATOM      1  O   UNL     1       4.860   5.885  17.044  0.00  0.00    +0.000 OA
ATOM      2  C   UNL     1       5.440   5.719  18.113  0.00  0.00    +0.000 C 
ATOM      3  N   UNL     1       6.705   6.203  18.342  0.00  0.00    +0.000 N 
ATOM      4  H   UNL     1       7.257   5.872  19.123  0.00  0.00    +0.000 HD
ENDROOT
BRANCH   2   5
ATOM      5  C   UNL     1       4.797   4.983  19.290  0.00  0.00    +0.000 C 
ATOM      6  C   UNL     1       4.512   3.506  18.949  0.00  0.00    +0.000 C 
ATOM      7  C   UNL     1       3.430   3.292  17.890  0.00  0.00    +0.000 C 
ATOM      8  S   UNL     1       1.893   4.062  18.339  0.00  0.00    +0.000 S 
ATOM      9  O   UNL     1       1.064   4.153  17.152  0.00  0.00    +0.000 OA
ATOM     10  O   UNL     1       1.401   3.417  19.542  0.00  0.00    +0.000 OA
ATOM     11  C   UNL     1       2.402   5.709  18.774  0.00  0.00    +0.000 C 
ATOM     12  C   UNL     1       3.532   5.697  19.794  0.00  0.00    +0.000 C 
ENDBRANCH   2   5
BRANCH   3  13
ATOM     13  C   UNL     1       7.356   6.955  17.303  0.00  0.00    +0.000 C 
BRANCH  13  14
ATOM     14  C   UNL     1       7.982   8.230  17.843  0.00  0.00    +0.000 C 
ATOM     15  C   UNL     1       8.519   9.324  18.307  0.00  0.00    +0.000 C 
BRANCH  15  16
ATOM     16  C   UNL     1       9.094  10.530  18.815  0.00  0.00    +0.000 A 
ATOM     17  C   UNL     1       9.534  10.591  20.141  0.00  0.00    +0.000 A 
ATOM     18  C   UNL     1      10.076  11.775  20.649  0.00  0.00    +0.000 A 
ATOM     19  C   UNL     1      10.178  12.898  19.829  0.00  0.00    +0.000 A 
ATOM     20  C   UNL     1       9.745  12.825  18.510  0.00  0.00    +0.000 A 
ATOM     21  F   UNL     1       9.844  13.905  17.725  0.00  0.00    +0.000 F 
ATOM     22  C   UNL     1       9.205  11.652  17.993  0.00  0.00    +0.000 A 
ENDBRANCH  15  16
ENDBRANCH  13  14
ENDBRANCH   3  13
TORSDOF 4
ENDMDL
MODEL 6
REMARK VINA RESULT:      -7.6      1.644      2.045
REMARK  Name = 
REMARK  4 active torsions:
REMARK  status: ('A' for Active; 'I' for Inactive)
REMARK    1  A    between atoms: C_2  and  C_14
REMARK    2  A    between atoms: N_3  and  C_4
REMARK    3  A    between atoms: C_4  and  C_5
REMARK    4  A    between atoms: C_6  and  C_7
REMARK                            x       y       z     vdW  Elec       q    Type
REMARK                         _______ _______ _______ _____ _____    ______ ____
ROOT
ATOM      1  O   UNL     1       5.588   5.294  15.710  0.00  0.00    +0.000 OA
ATOM      2  C   UNL     1       5.229   5.780  16.778  0.00  0.00    +0.000 C 
ATOM      3  N   UNL     1       6.067   6.544  17.553  0.00  0.00    +0.000 N 
ATOM      4  H   UNL     1       5.845   6.744  18.520  0.00  0.00    +0.000 HD
ENDROOT
BRANCH   2   5
ATOM      5  C   UNL     1       3.812   5.600  17.327  0.00  0.00    +0.000 C 
ATOM      6  C   UNL     1       3.742   5.918  18.835  0.00  0.00    +0.000 C 
ATOM      7  C   UNL     1       4.492   4.933  19.731  0.00  0.00    +0.000 C 
ATOM      8  S   UNL     1       3.942   3.260  19.494  0.00  0.00    +0.000 S 
ATOM      9  O   UNL     1       4.934   2.369  20.065  0.00  0.00    +0.000 OA
ATOM     10  O   UNL     1       2.552   3.181  19.899  0.00  0.00    +0.000 OA
ATOM     11  C   UNL     1       4.005   3.083  17.727  0.00  0.00    +0.000 C 
ATOM     12  C   UNL     1       3.249   4.201  17.023  0.00  0.00    +0.000 C 
ENDBRANCH   2   5
BRANCH   3  13
ATOM     13  C   UNL     1       7.398   6.807  17.079  0.00  0.00    +0.000 C 
BRANCH  13  14
ATOM     14  C   UNL     1       7.947   8.107  17.644  0.00  0.00    +0.000 C 
ATOM     15  C   UNL     1       8.419   9.222  18.129  0.00  0.00    +0.000 C 
BRANCH  15  16
ATOM     16  C   UNL     1       8.938  10.449  18.647  0.00  0.00    +0.000 A 
ATOM     17  C   UNL     1       9.558  10.473  19.900  0.00  0.00    +0.000 A 
ATOM     18  C   UNL     1      10.047  11.675  20.419  0.00  0.00    +0.000 A 
ATOM     19  C   UNL     1       9.916  12.853  19.685  0.00  0.00    +0.000 A 
ATOM     20  C   UNL     1       9.303  12.816  18.437  0.00  0.00    +0.000 A 
ATOM     21  F   UNL     1       9.177  13.949  17.733  0.00  0.00    +0.000 F 
ATOM     22  C   UNL     1       8.814  11.626  17.908  0.00  0.00    +0.000 A 
ENDBRANCH  15  16
ENDBRANCH  13  14
ENDBRANCH   3  13
TORSDOF 4
ENDMDL
MODEL 7
REMARK VINA RESULT:      -7.6      1.252      1.479
REMARK  Name = 
REMARK  4 active torsions:
REMARK  status: ('A' for Active; 'I' for Inactive)
REMARK    1  A    between atoms: C_2  and  C_14
REMARK    2  A    between atoms: N_3  and  C_4
REMARK    3  A    between atoms: C_4  and  C_5
REMARK    4  A    between atoms: C_6  and  C_7
REMARK                            x       y       z     vdW  Elec       q    Type
REMARK                         _______ _______ _______ _____ _____    ______ ____
ROOT
ATOM      1  O   UNL     1       4.658   6.466  17.429  0.00  0.00    +0.000 OA
ATOM      2  C   UNL     1       5.367   5.925  18.273  0.00  0.00    +0.000 C 
ATOM      3  N   UNL     1       6.738   5.974  18.218  0.00  0.00    +0.000 N 
ATOM      4  H   UNL     1       7.306   5.346  18.772  0.00  0.00    +0.000 HD
ENDROOT
BRANCH   2   5
ATOM      5  C   UNL     1       4.786   5.171  19.471  0.00  0.00    +0.000 C 
ATOM      6  C   UNL     1       4.830   3.643  19.256  0.00  0.00    +0.000 C 
ATOM      7  C   UNL     1       3.906   3.127  18.154  0.00  0.00    +0.000 C 
ATOM      8  S   UNL     1       2.214   3.598  18.423  0.00  0.00    +0.000 S 
ATOM      9  O   UNL     1       1.487   3.419  17.181  0.00  0.00    +0.000 OA
ATOM     10  O   UNL     1       1.760   2.966  19.647  0.00  0.00    +0.000 OA
ATOM     11  C   UNL     1       2.347   5.344  18.729  0.00  0.00    +0.000 C 
ATOM     12  C   UNL     1       3.366   5.647  19.818  0.00  0.00    +0.000 C 
ENDBRANCH   2   5
BRANCH   3  13
ATOM     13  C   UNL     1       7.361   6.712  17.153  0.00  0.00    +0.000 C 
BRANCH  13  14
ATOM     14  C   UNL     1       7.897   8.050  17.636  0.00  0.00    +0.000 C 
ATOM     15  C   UNL     1       8.355   9.198  18.050  0.00  0.00    +0.000 C 
BRANCH  15  16
ATOM     16  C   UNL     1       8.872  10.454  18.499  0.00  0.00    +0.000 A 
ATOM     17  C   UNL     1       8.641  11.613  17.751  0.00  0.00    +0.000 A 
ATOM     18  C   UNL     1       9.163  12.838  18.174  0.00  0.00    +0.000 A 
ATOM     19  C   UNL     1       9.916  12.903  19.346  0.00  0.00    +0.000 A 
ATOM     20  C   UNL     1      10.134  11.746  20.085  0.00  0.00    +0.000 A 
ATOM     21  F   UNL     1      10.858  11.811  21.210  0.00  0.00    +0.000 F 
ATOM     22  C   UNL     1       9.618  10.521  19.675  0.00  0.00    +0.000 A 
ENDBRANCH  15  16
ENDBRANCH  13  14
ENDBRANCH   3  13
TORSDOF 4
ENDMDL
MODEL 8
REMARK VINA RESULT:      -7.6      1.290      1.471
REMARK  Name = 
REMARK  4 active torsions:
REMARK  status: ('A' for Active; 'I' for Inactive)
REMARK    1  A    between atoms: C_2  and  C_14
REMARK    2  A    between atoms: N_3  and  C_4
REMARK    3  A    between atoms: C_4  and  C_5
REMARK    4  A    between atoms: C_6  and  C_7
REMARK                            x       y       z     vdW  Elec       q    Type
REMARK                         _______ _______ _______ _____ _____    ______ ____
ROOT
ATOM      1  O   UNL     1       5.566   4.001  17.330  0.00  0.00    +0.000 OA
ATOM      2  C   UNL     1       4.953   5.065  17.345  0.00  0.00    +0.000 C 
ATOM      3  N   UNL     1       5.591   6.279  17.278  0.00  0.00    +0.000 N 
ATOM      4  H   UNL     1       5.109   7.135  17.518  0.00  0.00    +0.000 HD
ENDROOT
BRANCH   2   5
ATOM      5  C   UNL     1       3.426   5.130  17.411  0.00  0.00    +0.000 C 
ATOM      6  C   UNL     1       2.943   5.829  18.700  0.00  0.00    +0.000 C 
ATOM      7  C   UNL     1       3.225   5.056  19.989  0.00  0.00    +0.000 C 
ATOM      8  S   UNL     1       2.531   3.421  19.955  0.00  0.00    +0.000 S 
ATOM      9  O   UNL     1       3.153   2.639  21.006  0.00  0.00    +0.000 OA
ATOM     10  O   UNL     1       1.088   3.546  19.876  0.00  0.00    +0.000 OA
ATOM     11  C   UNL     1       3.107   2.793  18.395  0.00  0.00    +0.000 C 
ATOM     12  C   UNL     1       2.782   3.743  17.251  0.00  0.00    +0.000 C 
ENDBRANCH   2   5
BRANCH   3  13
ATOM     13  C   UNL     1       7.024   6.301  17.156  0.00  0.00    +0.000 C 
BRANCH  13  14
ATOM     14  C   UNL     1       7.601   7.643  17.575  0.00  0.00    +0.000 C 
ATOM     15  C   UNL     1       8.097   8.794  17.935  0.00  0.00    +0.000 C 
BRANCH  15  16
ATOM     16  C   UNL     1       8.627  10.060  18.334  0.00  0.00    +0.000 A 
ATOM     17  C   UNL     1       8.392  11.196  17.553  0.00  0.00    +0.000 A 
ATOM     18  C   UNL     1       8.928  12.431  17.928  0.00  0.00    +0.000 A 
ATOM     19  C   UNL     1       9.699  12.530  19.085  0.00  0.00    +0.000 A 
ATOM     20  C   UNL     1       9.921  11.395  19.859  0.00  0.00    +0.000 A 
ATOM     21  F   UNL     1      10.662  11.492  20.970  0.00  0.00    +0.000 F 
ATOM     22  C   UNL     1       9.392  10.161  19.497  0.00  0.00    +0.000 A 
ENDBRANCH  15  16
ENDBRANCH  13  14
ENDBRANCH   3  13
TORSDOF 4
ENDMDL
MODEL 9
REMARK VINA RESULT:      -7.5      1.168      1.313
REMARK  Name = 
REMARK  4 active torsions:
REMARK  status: ('A' for Active; 'I' for Inactive)
REMARK    1  A    between atoms: C_2  and  C_14
REMARK    2  A    between atoms: N_3  and  C_4
REMARK    3  A    between atoms: C_4  and  C_5
REMARK    4  A    between atoms: C_6  and  C_7
REMARK                            x       y       z     vdW  Elec       q    Type
REMARK                         _______ _______ _______ _____ _____    ______ ____
ROOT
ATOM      1  O   UNL     1       5.639   5.402  19.239  0.00  0.00    +0.000 OA
ATOM      2  C   UNL     1       5.521   5.944  18.144  0.00  0.00    +0.000 C 
ATOM      3  N   UNL     1       6.541   6.662  17.569  0.00  0.00    +0.000 N 
ATOM      4  H   UNL     1       6.366   7.285  16.791  0.00  0.00    +0.000 HD
ENDROOT
BRANCH   2   5
ATOM      5  C   UNL     1       4.240   5.844  17.314  0.00  0.00    +0.000 C 
ATOM      6  C   UNL     1       2.995   6.220  18.145  0.00  0.00    +0.000 C 
ATOM      7  C   UNL     1       2.653   5.237  19.264  0.00  0.00    +0.000 C 
ATOM      8  S   UNL     1       2.433   3.582  18.657  0.00  0.00    +0.000 S 
ATOM      9  O   UNL     1       2.501   2.670  19.783  0.00  0.00    +0.000 OA
ATOM     10  O   UNL     1       1.289   3.577  17.766  0.00  0.00    +0.000 OA
ATOM     11  C   UNL     1       3.891   3.338  17.671  0.00  0.00    +0.000 C 
ATOM     12  C   UNL     1       4.081   4.461  16.661  0.00  0.00    +0.000 C 
ENDBRANCH   2   5
BRANCH   3  13
ATOM     13  C   UNL     1       7.797   6.754  18.261  0.00  0.00    +0.000 C 
BRANCH  13  14
ATOM     14  C   UNL     1       8.283   8.192  18.352  0.00  0.00    +0.000 C 
ATOM     15  C   UNL     1       8.699   9.425  18.430  0.00  0.00    +0.000 C 
BRANCH  15  16
ATOM     16  C   UNL     1       9.150  10.778  18.528  0.00  0.00    +0.000 A 
ATOM     17  C   UNL     1       8.577  11.767  17.722  0.00  0.00    +0.000 A 
ATOM     18  C   UNL     1       9.029  13.087  17.799  0.00  0.00    +0.000 A 
ATOM     19  C   UNL     1      10.056  13.417  18.683  0.00  0.00    +0.000 A 
ATOM     20  C   UNL     1      10.614  12.428  19.485  0.00  0.00    +0.000 A 
ATOM     21  F   UNL     1      11.600  12.747  20.334  0.00  0.00    +0.000 F 
ATOM     22  C   UNL     1      10.171  11.111  19.419  0.00  0.00    +0.000 A 
ENDBRANCH  15  16
ENDBRANCH  13  14
ENDBRANCH   3  13
TORSDOF 4
ENDMDL
