MODEL 1
REMARK VINA RESULT:      -8.6      0.000      0.000
REMARK  Name = 
REMARK  5 active torsions:
REMARK  status: ('A' for Active; 'I' for Inactive)
REMARK    1  A    between atoms: N_3  and  C_4
REMARK    2  A    between atoms: C_4  and  C_5
REMARK    3  A    between atoms: C_5  and  C_6
REMARK    4  A    between atoms: N_12  and  C_13
REMARK    5  A    between atoms: C_20  and  O_21
REMARK                            x       y       z     vdW  Elec       q    Type
REMARK                         _______ _______ _______ _____ _____    ______ ____
ROOT
ATOM      1  O   UNL     1       6.705   8.310  17.033  0.00  0.00    +0.000 OA
ATOM      2  C   UNL     1       7.476   7.647  17.719  0.00  0.00    +0.000 C 
ATOM      3  N   UNL     1       8.454   8.245  18.497  0.00  0.00    +0.000 N 
ATOM      4  N   UNL     1       7.496   6.277  17.859  0.00  0.00    +0.000 N 
ATOM      5  H   UNL     1       9.281   7.686  18.651  0.00  0.00    +0.000 HD
ATOM      6  H   UNL     1       7.952   5.943  18.691  0.00  0.00    +0.000 HD
ENDROOT
BRANCH   4   7
ATOM      7  C   UNL     1       6.671   5.357  17.153  0.00  0.00    +0.000 A 
ATOM      8  C   UNL     1       7.108   4.819  15.932  0.00  0.00    +0.000 A 
ATOM      9  C   UNL     1       6.320   3.930  15.212  0.00  0.00    +0.000 A 
ATOM     10  C   UNL     1       5.071   3.570  15.694  0.00  0.00    +0.000 A 
ATOM     11  C   UNL     1       4.592   4.087  16.902  0.00  0.00    +0.000 A 
ATOM     12  C   UNL     1       3.302   3.734  17.324  0.00  0.00    +0.000 A 
ATOM     13  C   UNL     1       2.773   4.223  18.515  0.00  0.00    +0.000 A 
ATOM     14  C   UNL     1       3.555   5.050  19.303  0.00  0.00    +0.000 A 
ATOM     15  C   UNL     1       4.837   5.426  18.903  0.00  0.00    +0.000 A 
ATOM     16  C   UNL     1       5.395   4.973  17.677  0.00  0.00    +0.000 A 
BRANCH  14  17
ATOM     17  O   UNL     1       3.089   5.524  20.496  0.00  0.00    +0.000 OA
ATOM     18  H   UNL     1       2.902   6.473  20.401  0.00  0.00    +0.000 HD
ENDBRANCH  14  17
ENDBRANCH   4   7
BRANCH   3  19
ATOM     19  C   UNL     1       8.623   9.685  18.402  0.00  0.00    +0.000 C 
BRANCH  19  20
ATOM     20  C   UNL     1       9.390  10.261  19.591  0.00  0.00    +0.000 C 
BRANCH  20  21
ATOM     21  C   UNL     1      10.383  11.303  19.139  0.00  0.00    +0.000 A 
ATOM     22  C   UNL     1      10.498  11.626  17.780  0.00  0.00    +0.000 A 
ATOM     23  C   UNL     1      11.468  12.530  17.349  0.00  0.00    +0.000 A 
ATOM     24  C   UNL     1      12.333  13.118  18.270  0.00  0.00    +0.000 A 
ATOM     25  C   UNL     1      12.222  12.810  19.625  0.00  0.00    +0.000 A 
ATOM     26  C   UNL     1      11.251  11.906  20.059  0.00  0.00    +0.000 A 
ENDBRANCH  20  21
ENDBRANCH  19  20
ENDBRANCH   3  19
TORSDOF 5
ENDMDL
MODEL 2
REMARK VINA RESULT:      -8.5      0.123      1.014
REMARK  Name = 
REMARK  5 active torsions:
REMARK  status: ('A' for Active; 'I' for Inactive)
REMARK    1  A    between atoms: N_3  and  C_4
REMARK    2  A    between atoms: C_4  and  C_5
REMARK    3  A    between atoms: C_5  and  C_6
REMARK    4  A    between atoms: N_12  and  C_13
REMARK    5  A    between atoms: C_20  and  O_21
REMARK                            x       y       z     vdW  Elec       q    Type
REMARK                         _______ _______ _______ _____ _____    ______ ____
ROOT
ATOM      1  O   UNL     1       6.664   8.382  17.066  0.00  0.00    +0.000 OA
ATOM      2  C   UNL     1       7.500   7.714  17.664  0.00  0.00    +0.000 C 
ATOM      3  N   UNL     1       8.506   8.305  18.411  0.00  0.00    +0.000 N 
ATOM      4  N   UNL     1       7.574   6.339  17.726  0.00  0.00    +0.000 N 
ATOM      5  H   UNL     1       9.359   7.769  18.482  0.00  0.00    +0.000 HD
ATOM      6  H   UNL     1       8.095   5.979  18.508  0.00  0.00    +0.000 HD
ENDROOT
BRANCH   4   7
ATOM      7  C   UNL     1       6.737   5.429  17.024  0.00  0.00    +0.000 A 
ATOM      8  C   UNL     1       7.151   4.907  15.788  0.00  0.00    +0.000 A 
ATOM      9  C   UNL     1       6.350   4.027  15.071  0.00  0.00    +0.000 A 
ATOM     10  C   UNL     1       5.110   3.660  15.571  0.00  0.00    +0.000 A 
ATOM     11  C   UNL     1       4.654   4.161  16.795  0.00  0.00    +0.000 A 
ATOM     12  C   UNL     1       3.371   3.802  17.236  0.00  0.00    +0.000 A 
ATOM     13  C   UNL     1       2.865   4.275  18.443  0.00  0.00    +0.000 A 
ATOM     14  C   UNL     1       3.661   5.092  19.227  0.00  0.00    +0.000 A 
ATOM     15  C   UNL     1       4.936   5.474  18.808  0.00  0.00    +0.000 A 
ATOM     16  C   UNL     1       5.471   5.037  17.567  0.00  0.00    +0.000 A 
BRANCH  14  17
ATOM     17  O   UNL     1       3.217   5.551  20.435  0.00  0.00    +0.000 OA
ATOM     18  H   UNL     1       3.234   6.523  20.423  0.00  0.00    +0.000 HD
ENDBRANCH  14  17
ENDBRANCH   4   7
BRANCH   3  19
ATOM     19  C   UNL     1       8.620   9.754  18.386  0.00  0.00    +0.000 C 
BRANCH  19  20
ATOM     20  C   UNL     1       9.412  10.296  19.574  0.00  0.00    +0.000 C 
BRANCH  20  21
ATOM     21  C   UNL     1      10.471  11.268  19.117  0.00  0.00    +0.000 A 
ATOM     22  C   UNL     1      11.291  11.910  20.055  0.00  0.00    +0.000 A 
ATOM     23  C   UNL     1      12.218  12.868  19.645  0.00  0.00    +0.000 A 
ATOM     24  C   UNL     1      12.332  13.194  18.295  0.00  0.00    +0.000 A 
ATOM     25  C   UNL     1      11.528  12.556  17.353  0.00  0.00    +0.000 A 
ATOM     26  C   UNL     1      10.601  11.596  17.761  0.00  0.00    +0.000 A 
ENDBRANCH  20  21
ENDBRANCH  19  20
ENDBRANCH   3  19
TORSDOF 5
ENDMDL
MODEL 3
REMARK VINA RESULT:      -8.3      5.581      8.533
REMARK  Name = 
REMARK  5 active torsions:
REMARK  status: ('A' for Active; 'I' for Inactive)
REMARK    1  A    between atoms: N_3  and  C_4
REMARK    2  A    between atoms: C_4  and  C_5
REMARK    3  A    between atoms: C_5  and  C_6
REMARK    4  A    between atoms: N_12  and  C_13
REMARK    5  A    between atoms: C_20  and  O_21
REMARK                            x       y       z     vdW  Elec       q    Type
REMARK                         _______ _______ _______ _____ _____    ______ ____
ROOT
ATOM      1  O   UNL     1       1.493   8.865  17.250  0.00  0.00    +0.000 OA
ATOM      2  C   UNL     1       1.711   8.648  18.437  0.00  0.00    +0.000 C 
ATOM      3  N   UNL     1       1.210   9.473  19.432  0.00  0.00    +0.000 N 
ATOM      4  N   UNL     1       2.424   7.598  18.973  0.00  0.00    +0.000 N 
ATOM      5  H   UNL     1       1.763   9.513  20.276  0.00  0.00    +0.000 HD
ATOM      6  H   UNL     1       2.219   7.396  19.937  0.00  0.00    +0.000 HD
ENDROOT
BRANCH   4   7
ATOM      7  C   UNL     1       3.125   6.606  18.232  0.00  0.00    +0.000 A 
ATOM      8  C   UNL     1       4.192   6.978  17.399  0.00  0.00    +0.000 A 
ATOM      9  C   UNL     1       4.887   6.035  16.652  0.00  0.00    +0.000 A 
ATOM     10  C   UNL     1       4.520   4.700  16.714  0.00  0.00    +0.000 A 
ATOM     11  C   UNL     1       3.458   4.285  17.526  0.00  0.00    +0.000 A 
ATOM     12  C   UNL     1       3.091   2.931  17.517  0.00  0.00    +0.000 A 
ATOM     13  C   UNL     1       2.039   2.465  18.300  0.00  0.00    +0.000 A 
ATOM     14  C   UNL     1       1.370   3.357  19.120  0.00  0.00    +0.000 A 
ATOM     15  C   UNL     1       1.706   4.710  19.140  0.00  0.00    +0.000 A 
ATOM     16  C   UNL     1       2.752   5.226  18.328  0.00  0.00    +0.000 A 
BRANCH  14  17
ATOM     17  O   UNL     1       0.355   2.935  19.930  0.00  0.00    +0.000 OA
ATOM     18  H   UNL     1       0.457   1.981  20.086  0.00  0.00    +0.000 HD
ENDBRANCH  14  17
ENDBRANCH   4   7
BRANCH   3  19
ATOM     19  C   UNL     1       0.500  10.677  19.034  0.00  0.00    +0.000 C 
BRANCH  19  20
ATOM     20  C   UNL     1      -0.944  10.693  19.529  0.00  0.00    +0.000 C 
BRANCH  20  21
ATOM     21  C   UNL     1      -1.911  10.755  18.372  0.00  0.00    +0.000 A 
ATOM     22  C   UNL     1      -3.036  11.587  18.436  0.00  0.00    +0.000 A 
ATOM     23  C   UNL     1      -3.973  11.589  17.403  0.00  0.00    +0.000 A 
ATOM     24  C   UNL     1      -3.795  10.758  16.299  0.00  0.00    +0.000 A 
ATOM     25  C   UNL     1      -2.675   9.933  16.221  0.00  0.00    +0.000 A 
ATOM     26  C   UNL     1      -1.735   9.930  17.253  0.00  0.00    +0.000 A 
ENDBRANCH  20  21
ENDBRANCH  19  20
ENDBRANCH   3  19
TORSDOF 5
ENDMDL
MODEL 4
REMARK VINA RESULT:      -8.3      5.560      8.487
REMARK  Name = 
REMARK  5 active torsions:
REMARK  status: ('A' for Active; 'I' for Inactive)
REMARK    1  A    between atoms: N_3  and  C_4
REMARK    2  A    between atoms: C_4  and  C_5
REMARK    3  A    between atoms: C_5  and  C_6
REMARK    4  A    between atoms: N_12  and  C_13
REMARK    5  A    between atoms: C_20  and  O_21
REMARK                            x       y       z     vdW  Elec       q    Type
REMARK                         _______ _______ _______ _____ _____    ______ ____
ROOT
ATOM      1  O   UNL     1       1.513   8.814  17.218  0.00  0.00    +0.000 OA
ATOM      2  C   UNL     1       1.726   8.603  18.407  0.00  0.00    +0.000 C 
ATOM      3  N   UNL     1       1.216   9.429  19.395  0.00  0.00    +0.000 N 
ATOM      4  N   UNL     1       2.439   7.557  18.951  0.00  0.00    +0.000 N 
ATOM      5  H   UNL     1       1.764   9.475  20.243  0.00  0.00    +0.000 HD
ATOM      6  H   UNL     1       2.230   7.358  19.915  0.00  0.00    +0.000 HD
ENDROOT
BRANCH   4   7
ATOM      7  C   UNL     1       3.148   6.565  18.218  0.00  0.00    +0.000 A 
ATOM      8  C   UNL     1       4.225   6.936  17.399  0.00  0.00    +0.000 A 
ATOM      9  C   UNL     1       4.929   5.993  16.660  0.00  0.00    +0.000 A 
ATOM     10  C   UNL     1       4.559   4.658  16.717  0.00  0.00    +0.000 A 
ATOM     11  C   UNL     1       3.487   4.244  17.515  0.00  0.00    +0.000 A 
ATOM     12  C   UNL     1       3.119   2.890  17.501  0.00  0.00    +0.000 A 
ATOM     13  C   UNL     1       2.057   2.424  18.271  0.00  0.00    +0.000 A 
ATOM     14  C   UNL     1       1.379   3.317  19.083  0.00  0.00    +0.000 A 
ATOM     15  C   UNL     1       1.716   4.670  19.108  0.00  0.00    +0.000 A 
ATOM     16  C   UNL     1       2.773   5.185  18.310  0.00  0.00    +0.000 A 
BRANCH  14  17
ATOM     17  O   UNL     1       0.353   2.896  19.881  0.00  0.00    +0.000 OA
ATOM     18  H   UNL     1       0.692   2.773  20.784  0.00  0.00    +0.000 HD
ENDBRANCH  14  17
ENDBRANCH   4   7
BRANCH   3  19
ATOM     19  C   UNL     1       0.504  10.630  18.989  0.00  0.00    +0.000 C 
BRANCH  19  20
ATOM     20  C   UNL     1      -0.926  10.669  19.524  0.00  0.00    +0.000 C 
BRANCH  20  21
ATOM     21  C   UNL     1      -1.925  10.671  18.393  0.00  0.00    +0.000 A 
ATOM     22  C   UNL     1      -1.706   9.882  17.256  0.00  0.00    +0.000 A 
ATOM     23  C   UNL     1      -2.586   9.941  16.176  0.00  0.00    +0.000 A 
ATOM     24  C   UNL     1      -3.691  10.789  16.222  0.00  0.00    +0.000 A 
ATOM     25  C   UNL     1      -3.923  11.571  17.352  0.00  0.00    +0.000 A 
ATOM     26  C   UNL     1      -3.044  11.513  18.434  0.00  0.00    +0.000 A 
ENDBRANCH  20  21
ENDBRANCH  19  20
ENDBRANCH   3  19
TORSDOF 5
ENDMDL
MODEL 5
REMARK VINA RESULT:      -8.2      1.493      1.916
REMARK  Name = 
REMARK  5 active torsions:
REMARK  status: ('A' for Active; 'I' for Inactive)
REMARK    1  A    between atoms: N_3  and  C_4
REMARK    2  A    between atoms: C_4  and  C_5
REMARK    3  A    between atoms: C_5  and  C_6
REMARK    4  A    between atoms: N_12  and  C_13
REMARK    5  A    between atoms: C_20  and  O_21
REMARK                            x       y       z     vdW  Elec       q    Type
REMARK                         _______ _______ _______ _____ _____    ______ ____
ROOT
ATOM      1  O   UNL     1       8.210   6.939  18.630  0.00  0.00    +0.000 OA
ATOM      2  C   UNL     1       7.700   7.712  17.827  0.00  0.00    +0.000 C 
ATOM      3  N   UNL     1       8.039   9.055  17.793  0.00  0.00    +0.000 N 
ATOM      4  N   UNL     1       6.775   7.408  16.851  0.00  0.00    +0.000 N 
ATOM      5  H   UNL     1       7.312   9.674  17.464  0.00  0.00    +0.000 HD
ATOM      6  H   UNL     1       6.727   8.067  16.093  0.00  0.00    +0.000 HD
ENDROOT
BRANCH   4   7
ATOM      7  C   UNL     1       6.165   6.138  16.652  0.00  0.00    +0.000 A 
ATOM      8  C   UNL     1       6.813   5.165  15.875  0.00  0.00    +0.000 A 
ATOM      9  C   UNL     1       6.237   3.920  15.650  0.00  0.00    +0.000 A 
ATOM     10  C   UNL     1       4.993   3.629  16.190  0.00  0.00    +0.000 A 
ATOM     11  C   UNL     1       4.309   4.572  16.965  0.00  0.00    +0.000 A 
ATOM     12  C   UNL     1       3.032   4.250  17.447  0.00  0.00    +0.000 A 
ATOM     13  C   UNL     1       2.304   5.152  18.218  0.00  0.00    +0.000 A 
ATOM     14  C   UNL     1       2.873   6.373  18.532  0.00  0.00    +0.000 A 
ATOM     15  C   UNL     1       4.137   6.724  18.057  0.00  0.00    +0.000 A 
ATOM     16  C   UNL     1       4.893   5.841  17.240  0.00  0.00    +0.000 A 
BRANCH  14  17
ATOM     17  O   UNL     1       2.209   7.274  19.315  0.00  0.00    +0.000 OA
ATOM     18  H   UNL     1       1.692   7.863  18.740  0.00  0.00    +0.000 HD
ENDBRANCH  14  17
ENDBRANCH   4   7
BRANCH   3  19
ATOM     19  C   UNL     1       8.945   9.561  18.812  0.00  0.00    +0.000 C 
BRANCH  19  20
ATOM     20  C   UNL     1       9.755  10.762  18.326  0.00  0.00    +0.000 C 
BRANCH  20  21
ATOM     21  C   UNL     1       9.922  11.780  19.426  0.00  0.00    +0.000 A 
ATOM     22  C   UNL     1       9.426  11.520  20.711  0.00  0.00    +0.000 A 
ATOM     23  C   UNL     1       9.509  12.490  21.709  0.00  0.00    +0.000 A 
ATOM     24  C   UNL     1      10.084  13.728  21.433  0.00  0.00    +0.000 A 
ATOM     25  C   UNL     1      10.588  13.994  20.162  0.00  0.00    +0.000 A 
ATOM     26  C   UNL     1      10.508  13.025  19.161  0.00  0.00    +0.000 A 
ENDBRANCH  20  21
ENDBRANCH  19  20
ENDBRANCH   3  19
TORSDOF 5
ENDMDL
MODEL 6
REMARK VINA RESULT:      -8.2      1.545      1.825
REMARK  Name = 
REMARK  5 active torsions:
REMARK  status: ('A' for Active; 'I' for Inactive)
REMARK    1  A    between atoms: N_3  and  C_4
REMARK    2  A    between atoms: C_4  and  C_5
REMARK    3  A    between atoms: C_5  and  C_6
REMARK    4  A    between atoms: N_12  and  C_13
REMARK    5  A    between atoms: C_20  and  O_21
REMARK                            x       y       z     vdW  Elec       q    Type
REMARK                         _______ _______ _______ _____ _____    ______ ____
ROOT
ATOM      1  O   UNL     1       8.198   7.009  18.615  0.00  0.00    +0.000 OA
ATOM      2  C   UNL     1       7.701   7.758  17.782  0.00  0.00    +0.000 C 
ATOM      3  N   UNL     1       8.028   9.103  17.725  0.00  0.00    +0.000 N 
ATOM      4  N   UNL     1       6.805   7.420  16.791  0.00  0.00    +0.000 N 
ATOM      5  H   UNL     1       7.303   9.706  17.363  0.00  0.00    +0.000 HD
ATOM      6  H   UNL     1       6.769   8.062  16.016  0.00  0.00    +0.000 HD
ENDROOT
BRANCH   4   7
ATOM      7  C   UNL     1       6.213   6.140  16.606  0.00  0.00    +0.000 A 
ATOM      8  C   UNL     1       6.884   5.160  15.858  0.00  0.00    +0.000 A 
ATOM      9  C   UNL     1       6.326   3.905  15.648  0.00  0.00    +0.000 A 
ATOM     10  C   UNL     1       5.078   3.609  16.173  0.00  0.00    +0.000 A 
ATOM     11  C   UNL     1       4.371   4.557  16.920  0.00  0.00    +0.000 A 
ATOM     12  C   UNL     1       3.089   4.229  17.388  0.00  0.00    +0.000 A 
ATOM     13  C   UNL     1       2.340   5.137  18.131  0.00  0.00    +0.000 A 
ATOM     14  C   UNL     1       2.890   6.371  18.431  0.00  0.00    +0.000 A 
ATOM     15  C   UNL     1       4.156   6.728  17.969  0.00  0.00    +0.000 A 
ATOM     16  C   UNL     1       4.935   5.839  17.180  0.00  0.00    +0.000 A 
BRANCH  14  17
ATOM     17  O   UNL     1       2.202   7.278  19.187  0.00  0.00    +0.000 OA
ATOM     18  H   UNL     1       2.842   7.856  19.636  0.00  0.00    +0.000 HD
ENDBRANCH  14  17
ENDBRANCH   4   7
BRANCH   3  19
ATOM     19  C   UNL     1       8.902   9.642  18.753  0.00  0.00    +0.000 C 
BRANCH  19  20
ATOM     20  C   UNL     1       9.663  10.879  18.281  0.00  0.00    +0.000 C 
BRANCH  20  21
ATOM     21  C   UNL     1       9.742  11.915  19.375  0.00  0.00    +0.000 A 
ATOM     22  C   UNL     1      10.096  13.236  19.071  0.00  0.00    +0.000 A 
ATOM     23  C   UNL     1      10.246  14.178  20.089  0.00  0.00    +0.000 A 
ATOM     24  C   UNL     1      10.046  13.809  21.417  0.00  0.00    +0.000 A 
ATOM     25  C   UNL     1       9.685  12.500  21.729  0.00  0.00    +0.000 A 
ATOM     26  C   UNL     1       9.533  11.555  20.713  0.00  0.00    +0.000 A 
ENDBRANCH  20  21
ENDBRANCH  19  20
ENDBRANCH   3  19
TORSDOF 5
ENDMDL
MODEL 7
REMARK VINA RESULT:      -8.1      1.210      1.405
REMARK  Name = 
REMARK  5 active torsions:
REMARK  status: ('A' for Active; 'I' for Inactive)
REMARK    1  A    between atoms: N_3  and  C_4
REMARK    2  A    between atoms: C_4  and  C_5
REMARK    3  A    between atoms: C_5  and  C_6
REMARK    4  A    between atoms: N_12  and  C_13
REMARK    5  A    between atoms: C_20  and  O_21
REMARK                            x       y       z     vdW  Elec       q    Type
REMARK                         _______ _______ _______ _____ _____    ______ ____
ROOT
ATOM      1  O   UNL     1       7.662   6.640  18.442  0.00  0.00    +0.000 OA
ATOM      2  C   UNL     1       7.155   7.334  17.568  0.00  0.00    +0.000 C 
ATOM      3  N   UNL     1       7.585   8.628  17.325  0.00  0.00    +0.000 N 
ATOM      4  N   UNL     1       6.148   6.972  16.699  0.00  0.00    +0.000 N 
ATOM      5  H   UNL     1       6.883   9.252  16.953  0.00  0.00    +0.000 HD
ATOM      6  H   UNL     1       6.096   7.524  15.859  0.00  0.00    +0.000 HD
ENDROOT
BRANCH   4   7
ATOM      7  C   UNL     1       5.438   5.740  16.717  0.00  0.00    +0.000 A 
ATOM      8  C   UNL     1       5.831   4.693  15.869  0.00  0.00    +0.000 A 
ATOM      9  C   UNL     1       5.150   3.482  15.852  0.00  0.00    +0.000 A 
ATOM     10  C   UNL     1       4.051   3.298  16.678  0.00  0.00    +0.000 A 
ATOM     11  C   UNL     1       3.620   4.317  17.535  0.00  0.00    +0.000 A 
ATOM     12  C   UNL     1       2.473   4.103  18.314  0.00  0.00    +0.000 A 
ATOM     13  C   UNL     1       1.997   5.084  19.180  0.00  0.00    +0.000 A 
ATOM     14  C   UNL     1       2.692   6.276  19.286  0.00  0.00    +0.000 A 
ATOM     15  C   UNL     1       3.828   6.520  18.515  0.00  0.00    +0.000 A 
ATOM     16  C   UNL     1       4.323   5.555  17.596  0.00  0.00    +0.000 A 
BRANCH  14  17
ATOM     17  O   UNL     1       2.279   7.251  20.148  0.00  0.00    +0.000 OA
ATOM     18  H   UNL     1       1.664   6.858  20.790  0.00  0.00    +0.000 HD
ENDBRANCH  14  17
ENDBRANCH   4   7
BRANCH   3  19
ATOM     19  C   UNL     1       8.591   9.196  18.208  0.00  0.00    +0.000 C 
BRANCH  19  20
ATOM     20  C   UNL     1       8.516  10.719  18.272  0.00  0.00    +0.000 C 
BRANCH  20  21
ATOM     21  C   UNL     1       9.830  11.305  18.726  0.00  0.00    +0.000 A 
ATOM     22  C   UNL     1      10.830  11.604  17.791  0.00  0.00    +0.000 A 
ATOM     23  C   UNL     1      12.074  12.072  18.213  0.00  0.00    +0.000 A 
ATOM     24  C   UNL     1      12.331  12.244  19.572  0.00  0.00    +0.000 A 
ATOM     25  C   UNL     1      11.341  11.958  20.509  0.00  0.00    +0.000 A 
ATOM     26  C   UNL     1      10.094  11.490  20.090  0.00  0.00    +0.000 A 
ENDBRANCH  20  21
ENDBRANCH  19  20
ENDBRANCH   3  19
TORSDOF 5
ENDMDL
MODEL 8
REMARK VINA RESULT:      -8.1      1.419      1.574
REMARK  Name = 
REMARK  5 active torsions:
REMARK  status: ('A' for Active; 'I' for Inactive)
REMARK    1  A    between atoms: N_3  and  C_4
REMARK    2  A    between atoms: C_4  and  C_5
REMARK    3  A    between atoms: C_5  and  C_6
REMARK    4  A    between atoms: N_12  and  C_13
REMARK    5  A    between atoms: C_20  and  O_21
REMARK                            x       y       z     vdW  Elec       q    Type
REMARK                         _______ _______ _______ _____ _____    ______ ____
ROOT
ATOM      1  O   UNL     1       8.247   7.007  18.637  0.00  0.00    +0.000 OA
ATOM      2  C   UNL     1       7.755   7.778  17.821  0.00  0.00    +0.000 C 
ATOM      3  N   UNL     1       8.128   9.111  17.763  0.00  0.00    +0.000 N 
ATOM      4  N   UNL     1       6.823   7.479  16.852  0.00  0.00    +0.000 N 
ATOM      5  H   UNL     1       7.416   9.742  17.424  0.00  0.00    +0.000 HD
ATOM      6  H   UNL     1       6.790   8.126  16.082  0.00  0.00    +0.000 HD
ENDROOT
BRANCH   4   7
ATOM      7  C   UNL     1       6.181   6.221  16.676  0.00  0.00    +0.000 A 
ATOM      8  C   UNL     1       6.814   5.211  15.934  0.00  0.00    +0.000 A 
ATOM      9  C   UNL     1       6.208   3.977  15.732  0.00  0.00    +0.000 A 
ATOM     10  C   UNL     1       4.949   3.733  16.259  0.00  0.00    +0.000 A 
ATOM     11  C   UNL     1       4.279   4.714  16.999  0.00  0.00    +0.000 A 
ATOM     12  C   UNL     1       2.986   4.439  17.469  0.00  0.00    +0.000 A 
ATOM     13  C   UNL     1       2.271   5.380  18.205  0.00  0.00    +0.000 A 
ATOM     14  C   UNL     1       2.869   6.594  18.496  0.00  0.00    +0.000 A 
ATOM     15  C   UNL     1       4.149   6.898  18.033  0.00  0.00    +0.000 A 
ATOM     16  C   UNL     1       4.893   5.974  17.250  0.00  0.00    +0.000 A 
BRANCH  14  17
ATOM     17  O   UNL     1       2.217   7.532  19.245  0.00  0.00    +0.000 OA
ATOM     18  H   UNL     1       2.065   8.318  18.694  0.00  0.00    +0.000 HD
ENDBRANCH  14  17
ENDBRANCH   4   7
BRANCH   3  19
ATOM     19  C   UNL     1       9.046   9.613  18.772  0.00  0.00    +0.000 C 
BRANCH  19  20
ATOM     20  C   UNL     1       8.722  11.044  19.195  0.00  0.00    +0.000 C 
BRANCH  20  21
ATOM     21  C   UNL     1       9.568  12.036  18.436  0.00  0.00    +0.000 A 
ATOM     22  C   UNL     1      10.772  11.630  17.846  0.00  0.00    +0.000 A 
ATOM     23  C   UNL     1      11.596  12.560  17.211  0.00  0.00    +0.000 A 
ATOM     24  C   UNL     1      11.225  13.902  17.163  0.00  0.00    +0.000 A 
ATOM     25  C   UNL     1      10.025  14.315  17.739  0.00  0.00    +0.000 A 
ATOM     26  C   UNL     1       9.199  13.386  18.373  0.00  0.00    +0.000 A 
ENDBRANCH  20  21
ENDBRANCH  19  20
ENDBRANCH   3  19
TORSDOF 5
ENDMDL
MODEL 9
REMARK VINA RESULT:      -8.1      1.440      2.263
REMARK  Name = 
REMARK  5 active torsions:
REMARK  status: ('A' for Active; 'I' for Inactive)
REMARK    1  A    between atoms: N_3  and  C_4
REMARK    2  A    between atoms: C_4  and  C_5
REMARK    3  A    between atoms: C_5  and  C_6
REMARK    4  A    between atoms: N_12  and  C_13
REMARK    5  A    between atoms: C_20  and  O_21
REMARK                            x       y       z     vdW  Elec       q    Type
REMARK                         _______ _______ _______ _____ _____    ______ ____
ROOT
ATOM      1  O   UNL     1       7.274   6.148  18.337  0.00  0.00    +0.000 OA
ATOM      2  C   UNL     1       6.541   6.878  17.678  0.00  0.00    +0.000 C 
ATOM      3  N   UNL     1       6.914   8.168  17.338  0.00  0.00    +0.000 N 
ATOM      4  N   UNL     1       5.303   6.564  17.160  0.00  0.00    +0.000 N 
ATOM      5  H   UNL     1       6.150   8.818  17.216  0.00  0.00    +0.000 HD
ATOM      6  H   UNL     1       5.009   7.140  16.389  0.00  0.00    +0.000 HD
ENDROOT
BRANCH   4   7
ATOM      7  C   UNL     1       4.597   5.348  17.374  0.00  0.00    +0.000 A 
ATOM      8  C   UNL     1       4.887   4.222  16.588  0.00  0.00    +0.000 A 
ATOM      9  C   UNL     1       4.205   3.024  16.763  0.00  0.00    +0.000 A 
ATOM     10  C   UNL     1       3.208   2.933  17.723  0.00  0.00    +0.000 A 
ATOM     11  C   UNL     1       2.882   4.032  18.525  0.00  0.00    +0.000 A 
ATOM     12  C   UNL     1       1.832   3.906  19.447  0.00  0.00    +0.000 A 
ATOM     13  C   UNL     1       1.461   4.969  20.266  0.00  0.00    +0.000 A 
ATOM     14  C   UNL     1       2.167   6.157  20.179  0.00  0.00    +0.000 A 
ATOM     15  C   UNL     1       3.207   6.313  19.264  0.00  0.00    +0.000 A 
ATOM     16  C   UNL     1       3.590   5.260  18.389  0.00  0.00    +0.000 A 
BRANCH  14  17
ATOM     17  O   UNL     1       1.859   7.213  20.988  0.00  0.00    +0.000 OA
ATOM     18  H   UNL     1       1.197   6.924  21.639  0.00  0.00    +0.000 HD
ENDBRANCH  14  17
ENDBRANCH   4   7
BRANCH   3  19
ATOM     19  C   UNL     1       8.161   8.688  17.874  0.00  0.00    +0.000 C 
BRANCH  19  20
ATOM     20  C   UNL     1       8.343  10.176  17.587  0.00  0.00    +0.000 C 
BRANCH  20  21
ATOM     21  C   UNL     1       9.439  10.761  18.444  0.00  0.00    +0.000 A 
ATOM     22  C   UNL     1       9.309  10.781  19.839  0.00  0.00    +0.000 A 
ATOM     23  C   UNL     1      10.282  11.391  20.630  0.00  0.00    +0.000 A 
ATOM     24  C   UNL     1      11.391  11.988  20.035  0.00  0.00    +0.000 A 
ATOM     25  C   UNL     1      11.535  11.966  18.649  0.00  0.00    +0.000 A 
ATOM     26  C   UNL     1      10.563  11.355  17.855  0.00  0.00    +0.000 A 
ENDBRANCH  20  21
ENDBRANCH  19  20
ENDBRANCH   3  19
TORSDOF 5
ENDMDL
