MODEL 1
REMARK VINA RESULT:      -6.6      0.000      0.000
REMARK  Name = 
REMARK  3 active torsions:
REMARK  status: ('A' for Active; 'I' for Inactive)
REMARK    1  A    between atoms: C_2  and  C_3
REMARK    2  A    between atoms: C_2  and  C_11
REMARK    3  A    between atoms: C_3  and  N_4
REMARK                            x       y       z     vdW  Elec       q    Type
REMARK                         _______ _______ _______ _____ _____    ______ ____
ROOT
ATOM      1  C   UNL     1       5.481   4.838  18.528  0.00  0.00    +0.000 C 
ENDROOT
BRANCH   1   2
ATOM      2  N   UNL     1       5.684   4.029  17.339  0.00  0.00    +0.000 N 
ATOM      3  C   UNL     1       6.360   4.490  16.256  0.00  0.00    +0.000 A 
ATOM      4  N   UNL     1       7.255   5.426  16.226  0.00  0.00    +0.000 NA
ATOM      5  N   UNL     1       7.686   5.600  14.944  0.00  0.00    +0.000 N 
ATOM      6  C   UNL     1       7.104   4.837  13.969  0.00  0.00    +0.000 A 
ATOM      7  S   UNL     1       7.440   4.970  12.354  0.00  0.00    +0.000 S 
ATOM      8  S   UNL     1       5.969   3.750  14.721  0.00  0.00    +0.000 S 
ATOM      9  H   UNL     1       4.966   3.334  17.159  0.00  0.00    +0.000 HD
ATOM     10  H   UNL     1       8.397   6.296  14.748  0.00  0.00    +0.000 HD
ENDBRANCH   1   2
BRANCH   1  12
ATOM     11  O   UNL     1       3.883   6.581  18.111  0.00  0.00    +0.000 OA
ATOM     12  C   UNL     1       4.075   5.421  18.488  0.00  0.00    +0.000 C 
BRANCH  12  13
ATOM     13  C   UNL     1       2.937   4.644  19.057  0.00  0.00    +0.000 A 
ATOM     14  C   UNL     1       2.560   4.725  20.401  0.00  0.00    +0.000 A 
ATOM     15  C   UNL     1       1.467   3.987  20.865  0.00  0.00    +0.000 A 
ATOM     16  C   UNL     1       0.749   3.170  19.993  0.00  0.00    +0.000 A 
ATOM     17  C   UNL     1       1.123   3.081  18.654  0.00  0.00    +0.000 A 
ATOM     18  C   UNL     1       2.217   3.809  18.188  0.00  0.00    +0.000 A 
ENDBRANCH  12  13
ENDBRANCH   1  12
TORSDOF 3
ENDMDL
MODEL 2
REMARK VINA RESULT:      -6.5      0.333      1.249
REMARK  Name = 
REMARK  3 active torsions:
REMARK  status: ('A' for Active; 'I' for Inactive)
REMARK    1  A    between atoms: C_2  and  C_3
REMARK    2  A    between atoms: C_2  and  C_11
REMARK    3  A    between atoms: C_3  and  N_4
REMARK                            x       y       z     vdW  Elec       q    Type
REMARK                         _______ _______ _______ _____ _____    ______ ____
ROOT
ATOM      1  C   UNL     1       5.509   4.842  18.911  0.00  0.00    +0.000 C 
ENDROOT
BRANCH   1   2
ATOM      2  N   UNL     1       5.774   4.017  17.745  0.00  0.00    +0.000 N 
ATOM      3  C   UNL     1       6.398   4.501  16.641  0.00  0.00    +0.000 A 
ATOM      4  N   UNL     1       7.206   5.512  16.572  0.00  0.00    +0.000 NA
ATOM      5  N   UNL     1       7.609   5.683  15.282  0.00  0.00    +0.000 N 
ATOM      6  C   UNL     1       7.090   4.841  14.337  0.00  0.00    +0.000 A 
ATOM      7  S   UNL     1       7.400   4.953  12.715  0.00  0.00    +0.000 S 
ATOM      8  S   UNL     1       6.063   3.683  15.133  0.00  0.00    +0.000 S 
ATOM      9  H   UNL     1       5.120   3.255  17.594  0.00  0.00    +0.000 HD
ATOM     10  H   UNL     1       8.254   6.433  15.057  0.00  0.00    +0.000 HD
ENDBRANCH   1   2
BRANCH   1  12
ATOM     11  O   UNL     1       3.939   6.627  18.573  0.00  0.00    +0.000 OA
ATOM     12  C   UNL     1       4.107   5.423  18.790  0.00  0.00    +0.000 C 
BRANCH  12  13
ATOM     13  C   UNL     1       2.924   4.567  19.091  0.00  0.00    +0.000 A 
ATOM     14  C   UNL     1       2.342   3.717  18.145  0.00  0.00    +0.000 A 
ATOM     15  C   UNL     1       1.247   2.923  18.500  0.00  0.00    +0.000 A 
ATOM     16  C   UNL     1       0.734   2.972  19.795  0.00  0.00    +0.000 A 
ATOM     17  C   UNL     1       1.307   3.820  20.740  0.00  0.00    +0.000 A 
ATOM     18  C   UNL     1       2.394   4.620  20.390  0.00  0.00    +0.000 A 
ENDBRANCH  12  13
ENDBRANCH   1  12
TORSDOF 3
ENDMDL
MODEL 3
REMARK VINA RESULT:      -6.5      3.333      7.019
REMARK  Name = 
REMARK  3 active torsions:
REMARK  status: ('A' for Active; 'I' for Inactive)
REMARK    1  A    between atoms: C_2  and  C_3
REMARK    2  A    between atoms: C_2  and  C_11
REMARK    3  A    between atoms: C_3  and  N_4
REMARK                            x       y       z     vdW  Elec       q    Type
REMARK                         _______ _______ _______ _____ _____    ______ ____
ROOT
ATOM      1  C   UNL     1       5.197   4.639  16.538  0.00  0.00    +0.000 C 
ENDROOT
BRANCH   1   2
ATOM      2  N   UNL     1       4.992   3.563  17.491  0.00  0.00    +0.000 N 
ATOM      3  C   UNL     1       3.901   3.505  18.296  0.00  0.00    +0.000 A 
ATOM      4  N   UNL     1       2.741   4.044  18.090  0.00  0.00    +0.000 NA
ATOM      5  N   UNL     1       1.918   3.764  19.141  0.00  0.00    +0.000 N 
ATOM      6  C   UNL     1       2.440   3.048  20.183  0.00  0.00    +0.000 A 
ATOM      7  S   UNL     1       1.617   2.689  21.573  0.00  0.00    +0.000 S 
ATOM      8  S   UNL     1       4.081   2.618  19.792  0.00  0.00    +0.000 S 
ATOM      9  H   UNL     1       5.840   3.134  17.852  0.00  0.00    +0.000 HD
ATOM     10  H   UNL     1       0.965   4.110  19.132  0.00  0.00    +0.000 HD
ENDBRANCH   1   2
BRANCH   1  12
ATOM     11  O   UNL     1       7.595   4.603  16.649  0.00  0.00    +0.000 OA
ATOM     12  C   UNL     1       6.590   4.503  15.939  0.00  0.00    +0.000 C 
BRANCH  12  13
ATOM     13  C   UNL     1       6.752   4.406  14.460  0.00  0.00    +0.000 A 
ATOM     14  C   UNL     1       6.035   3.496  13.677  0.00  0.00    +0.000 A 
ATOM     15  C   UNL     1       6.217   3.474  12.291  0.00  0.00    +0.000 A 
ATOM     16  C   UNL     1       7.110   4.355  11.685  0.00  0.00    +0.000 A 
ATOM     17  C   UNL     1       7.831   5.260  12.460  0.00  0.00    +0.000 A 
ATOM     18  C   UNL     1       7.659   5.283  13.844  0.00  0.00    +0.000 A 
ENDBRANCH  12  13
ENDBRANCH   1  12
TORSDOF 3
ENDMDL
MODEL 4
REMARK VINA RESULT:      -6.4      0.818      1.001
REMARK  Name = 
REMARK  3 active torsions:
REMARK  status: ('A' for Active; 'I' for Inactive)
REMARK    1  A    between atoms: C_2  and  C_3
REMARK    2  A    between atoms: C_2  and  C_11
REMARK    3  A    between atoms: C_3  and  N_4
REMARK                            x       y       z     vdW  Elec       q    Type
REMARK                         _______ _______ _______ _____ _____    ______ ____
ROOT
ATOM      1  C   UNL     1       5.568   4.554  18.509  0.00  0.00    +0.000 C 
ENDROOT
BRANCH   1   2
ATOM      2  N   UNL     1       5.730   3.819  17.267  0.00  0.00    +0.000 N 
ATOM      3  C   UNL     1       6.389   4.335  16.199  0.00  0.00    +0.000 A 
ATOM      4  N   UNL     1       7.299   5.257  16.206  0.00  0.00    +0.000 NA
ATOM      5  N   UNL     1       7.704   5.505  14.928  0.00  0.00    +0.000 N 
ATOM      6  C   UNL     1       7.086   4.814  13.921  0.00  0.00    +0.000 A 
ATOM      7  S   UNL     1       7.388   5.043  12.310  0.00  0.00    +0.000 S 
ATOM      8  S   UNL     1       5.951   3.701  14.630  0.00  0.00    +0.000 S 
ATOM      9  H   UNL     1       4.996   3.147  17.061  0.00  0.00    +0.000 HD
ATOM     10  H   UNL     1       8.422   6.201  14.759  0.00  0.00    +0.000 HD
ENDBRANCH   1   2
BRANCH   1  12
ATOM     11  O   UNL     1       3.759   6.075  18.084  0.00  0.00    +0.000 OA
ATOM     12  C   UNL     1       4.123   5.021  18.615  0.00  0.00    +0.000 C 
BRANCH  12  13
ATOM     13  C   UNL     1       3.172   4.286  19.498  0.00  0.00    +0.000 A 
ATOM     14  C   UNL     1       3.563   3.214  20.306  0.00  0.00    +0.000 A 
ATOM     15  C   UNL     1       2.625   2.583  21.129  0.00  0.00    +0.000 A 
ATOM     16  C   UNL     1       1.301   3.019  21.149  0.00  0.00    +0.000 A 
ATOM     17  C   UNL     1       0.905   4.083  20.342  0.00  0.00    +0.000 A 
ATOM     18  C   UNL     1       1.834   4.711  19.514  0.00  0.00    +0.000 A 
ENDBRANCH  12  13
ENDBRANCH   1  12
TORSDOF 3
ENDMDL
MODEL 5
REMARK VINA RESULT:      -6.3      3.093      6.769
REMARK  Name = 
REMARK  3 active torsions:
REMARK  status: ('A' for Active; 'I' for Inactive)
REMARK    1  A    between atoms: C_2  and  C_3
REMARK    2  A    between atoms: C_2  and  C_11
REMARK    3  A    between atoms: C_3  and  N_4
REMARK                            x       y       z     vdW  Elec       q    Type
REMARK                         _______ _______ _______ _____ _____    ______ ____
ROOT
ATOM      1  C   UNL     1       5.557   5.817  16.604  0.00  0.00    +0.000 C 
ENDROOT
BRANCH   1   2
ATOM      2  N   UNL     1       4.446   4.941  16.929  0.00  0.00    +0.000 N 
ATOM      3  C   UNL     1       3.898   4.894  18.169  0.00  0.00    +0.000 A 
ATOM      4  N   UNL     1       3.915   5.822  19.073  0.00  0.00    +0.000 NA
ATOM      5  N   UNL     1       3.265   5.383  20.187  0.00  0.00    +0.000 N 
ATOM      6  C   UNL     1       2.778   4.104  20.175  0.00  0.00    +0.000 A 
ATOM      7  S   UNL     1       2.037   3.375  21.464  0.00  0.00    +0.000 S 
ATOM      8  S   UNL     1       3.090   3.408  18.611  0.00  0.00    +0.000 S 
ATOM      9  H   UNL     1       4.392   4.087  16.381  0.00  0.00    +0.000 HD
ATOM     10  H   UNL     1       3.182   5.996  20.991  0.00  0.00    +0.000 HD
ENDBRANCH   1   2
BRANCH   1  12
ATOM     11  O   UNL     1       7.651   4.658  16.799  0.00  0.00    +0.000 OA
ATOM     12  C   UNL     1       6.706   4.973  16.069  0.00  0.00    +0.000 C 
BRANCH  12  13
ATOM     13  C   UNL     1       6.773   4.653  14.614  0.00  0.00    +0.000 A 
ATOM     14  C   UNL     1       5.970   3.679  14.014  0.00  0.00    +0.000 A 
ATOM     15  C   UNL     1       6.067   3.445  12.639  0.00  0.00    +0.000 A 
ATOM     16  C   UNL     1       6.960   4.180  11.862  0.00  0.00    +0.000 A 
ATOM     17  C   UNL     1       7.767   5.149  12.455  0.00  0.00    +0.000 A 
ATOM     18  C   UNL     1       7.680   5.381  13.827  0.00  0.00    +0.000 A 
ENDBRANCH  12  13
ENDBRANCH   1  12
TORSDOF 3
ENDMDL
MODEL 6
REMARK VINA RESULT:      -6.3      3.030      6.582
REMARK  Name = 
REMARK  3 active torsions:
REMARK  status: ('A' for Active; 'I' for Inactive)
REMARK    1  A    between atoms: C_2  and  C_3
REMARK    2  A    between atoms: C_2  and  C_11
REMARK    3  A    between atoms: C_3  and  N_4
REMARK                            x       y       z     vdW  Elec       q    Type
REMARK                         _______ _______ _______ _____ _____    ______ ____
ROOT
ATOM      1  C   UNL     1       6.677   4.538  17.030  0.00  0.00    +0.000 C 
ENDROOT
BRANCH   1   2
ATOM      2  N   UNL     1       5.500   3.752  17.354  0.00  0.00    +0.000 N 
ATOM      3  C   UNL     1       4.678   4.069  18.386  0.00  0.00    +0.000 A 
ATOM      4  N   UNL     1       4.506   5.233  18.929  0.00  0.00    +0.000 NA
ATOM      5  N   UNL     1       3.605   5.131  19.946  0.00  0.00    +0.000 N 
ATOM      6  C   UNL     1       3.104   3.890  20.229  0.00  0.00    +0.000 A 
ATOM      7  S   UNL     1       2.067   3.565  21.478  0.00  0.00    +0.000 S 
ATOM      8  S   UNL     1       3.755   2.756  19.080  0.00  0.00    +0.000 S 
ATOM      9  H   UNL     1       5.554   2.768  17.108  0.00  0.00    +0.000 HD
ATOM     10  H   UNL     1       3.353   5.961  20.472  0.00  0.00    +0.000 HD
ENDBRANCH   1   2
BRANCH   1  12
ATOM     11  O   UNL     1       5.803   6.527  16.006  0.00  0.00    +0.000 OA
ATOM     12  C   UNL     1       6.354   5.434  15.842  0.00  0.00    +0.000 C 
BRANCH  12  13
ATOM     13  C   UNL     1       6.560   4.925  14.456  0.00  0.00    +0.000 A 
ATOM     14  C   UNL     1       7.596   5.372  13.630  0.00  0.00    +0.000 A 
ATOM     15  C   UNL     1       7.746   4.836  12.347  0.00  0.00    +0.000 A 
ATOM     16  C   UNL     1       6.869   3.855  11.888  0.00  0.00    +0.000 A 
ATOM     17  C   UNL     1       5.832   3.409  12.705  0.00  0.00    +0.000 A 
ATOM     18  C   UNL     1       5.673   3.946  13.982  0.00  0.00    +0.000 A 
ENDBRANCH  12  13
ENDBRANCH   1  12
TORSDOF 3
ENDMDL
MODEL 7
REMARK VINA RESULT:      -6.3      3.049      6.637
REMARK  Name = 
REMARK  3 active torsions:
REMARK  status: ('A' for Active; 'I' for Inactive)
REMARK    1  A    between atoms: C_2  and  C_3
REMARK    2  A    between atoms: C_2  and  C_11
REMARK    3  A    between atoms: C_3  and  N_4
REMARK                            x       y       z     vdW  Elec       q    Type
REMARK                         _______ _______ _______ _____ _____    ______ ____
ROOT
ATOM      1  C   UNL     1       6.392   4.735  17.061  0.00  0.00    +0.000 C 
ENDROOT
BRANCH   1   2
ATOM      2  N   UNL     1       5.302   3.831  17.381  0.00  0.00    +0.000 N 
ATOM      3  C   UNL     1       4.472   4.040  18.434  0.00  0.00    +0.000 A 
ATOM      4  N   UNL     1       4.200   5.168  19.011  0.00  0.00    +0.000 NA
ATOM      5  N   UNL     1       3.331   4.953  20.039  0.00  0.00    +0.000 N 
ATOM      6  C   UNL     1       2.957   3.663  20.296  0.00  0.00    +0.000 A 
ATOM      7  S   UNL     1       1.979   3.207  21.551  0.00  0.00    +0.000 S 
ATOM      8  S   UNL     1       3.692   2.626  19.106  0.00  0.00    +0.000 S 
ATOM      9  H   UNL     1       5.446   2.863  17.107  0.00  0.00    +0.000 HD
ATOM     10  H   UNL     1       3.010   5.741  20.592  0.00  0.00    +0.000 HD
ENDBRANCH   1   2
BRANCH   1  12
ATOM     11  O   UNL     1       5.394   6.554  15.851  0.00  0.00    +0.000 OA
ATOM     12  C   UNL     1       6.035   5.500  15.794  0.00  0.00    +0.000 C 
BRANCH  12  13
ATOM     13  C   UNL     1       6.324   4.897  14.461  0.00  0.00    +0.000 A 
ATOM     14  C   UNL     1       5.471   3.974  13.846  0.00  0.00    +0.000 A 
ATOM     15  C   UNL     1       5.790   3.463  12.584  0.00  0.00    +0.000 A 
ATOM     16  C   UNL     1       6.952   3.872  11.933  0.00  0.00    +0.000 A 
ATOM     17  C   UNL     1       7.807   4.787  12.543  0.00  0.00    +0.000 A 
ATOM     18  C   UNL     1       7.499   5.294  13.805  0.00  0.00    +0.000 A 
ENDBRANCH  12  13
ENDBRANCH   1  12
TORSDOF 3
ENDMDL
MODEL 8
REMARK VINA RESULT:      -6.3      1.260      1.762
REMARK  Name = 
REMARK  3 active torsions:
REMARK  status: ('A' for Active; 'I' for Inactive)
REMARK    1  A    between atoms: C_2  and  C_3
REMARK    2  A    between atoms: C_2  and  C_11
REMARK    3  A    between atoms: C_3  and  N_4
REMARK                            x       y       z     vdW  Elec       q    Type
REMARK                         _______ _______ _______ _____ _____    ______ ____
ROOT
ATOM      1  C   UNL     1       4.459   6.319  18.743  0.00  0.00    +0.000 C 
ENDROOT
BRANCH   1   2
ATOM      2  N   UNL     1       5.135   5.201  18.109  0.00  0.00    +0.000 N 
ATOM      3  C   UNL     1       5.477   5.210  16.796  0.00  0.00    +0.000 A 
ATOM      4  N   UNL     1       5.684   6.243  16.043  0.00  0.00    +0.000 NA
ATOM      5  N   UNL     1       5.995   5.831  14.781  0.00  0.00    +0.000 N 
ATOM      6  C   UNL     1       5.989   4.485  14.534  0.00  0.00    +0.000 A 
ATOM      7  S   UNL     1       6.258   3.808  13.048  0.00  0.00    +0.000 S 
ATOM      8  S   UNL     1       5.639   3.651  16.022  0.00  0.00    +0.000 S 
ATOM      9  H   UNL     1       4.946   4.291  18.519  0.00  0.00    +0.000 HD
ATOM     10  H   UNL     1       6.194   6.522  14.066  0.00  0.00    +0.000 HD
ENDBRANCH   1   2
BRANCH   1  12
ATOM     11  O   UNL     1       2.368   7.188  17.945  0.00  0.00    +0.000 OA
ATOM     12  C   UNL     1       2.971   6.229  18.435  0.00  0.00    +0.000 C 
BRANCH  12  13
ATOM     13  C   UNL     1       2.198   5.032  18.873  0.00  0.00    +0.000 A 
ATOM     14  C   UNL     1       1.785   4.030  17.988  0.00  0.00    +0.000 A 
ATOM     15  C   UNL     1       1.083   2.921  18.468  0.00  0.00    +0.000 A 
ATOM     16  C   UNL     1       0.792   2.807  19.827  0.00  0.00    +0.000 A 
ATOM     17  C   UNL     1       1.196   3.804  20.712  0.00  0.00    +0.000 A 
ATOM     18  C   UNL     1       1.891   4.916  20.238  0.00  0.00    +0.000 A 
ENDBRANCH  12  13
ENDBRANCH   1  12
TORSDOF 3
ENDMDL
MODEL 9
REMARK VINA RESULT:      -6.3      3.419      7.061
REMARK  Name = 
REMARK  3 active torsions:
REMARK  status: ('A' for Active; 'I' for Inactive)
REMARK    1  A    between atoms: C_2  and  C_3
REMARK    2  A    between atoms: C_2  and  C_11
REMARK    3  A    between atoms: C_3  and  N_4
REMARK                            x       y       z     vdW  Elec       q    Type
REMARK                         _______ _______ _______ _____ _____    ______ ____
ROOT
ATOM      1  C   UNL     1       4.853   4.073  16.227  0.00  0.00    +0.000 C 
ENDROOT
BRANCH   1   2
ATOM      2  N   UNL     1       4.807   3.193  17.381  0.00  0.00    +0.000 N 
ATOM      3  C   UNL     1       3.734   3.141  18.211  0.00  0.00    +0.000 A 
ATOM      4  N   UNL     1       2.508   3.455  17.934  0.00  0.00    +0.000 NA
ATOM      5  N   UNL     1       1.733   3.277  19.042  0.00  0.00    +0.000 N 
ATOM      6  C   UNL     1       2.353   2.869  20.191  0.00  0.00    +0.000 A 
ATOM      7  S   UNL     1       1.589   2.682  21.647  0.00  0.00    +0.000 S 
ATOM      8  S   UNL     1       4.040   2.609  19.848  0.00  0.00    +0.000 S 
ATOM      9  H   UNL     1       5.707   2.973  17.796  0.00  0.00    +0.000 HD
ATOM     10  H   UNL     1       0.740   3.473  18.991  0.00  0.00    +0.000 HD
ENDBRANCH   1   2
BRANCH   1  12
ATOM     11  O   UNL     1       7.181   4.462  16.667  0.00  0.00    +0.000 OA
ATOM     12  C   UNL     1       6.306   4.267  15.818  0.00  0.00    +0.000 C 
BRANCH  12  13
ATOM     13  C   UNL     1       6.658   4.380  14.373  0.00  0.00    +0.000 A 
ATOM     14  C   UNL     1       7.608   5.288  13.893  0.00  0.00    +0.000 A 
ATOM     15  C   UNL     1       7.908   5.328  12.528  0.00  0.00    +0.000 A 
ATOM     16  C   UNL     1       7.266   4.464  11.642  0.00  0.00    +0.000 A 
ATOM     17  C   UNL     1       6.316   3.561  12.114  0.00  0.00    +0.000 A 
ATOM     18  C   UNL     1       6.007   3.523  13.473  0.00  0.00    +0.000 A 
ENDBRANCH  12  13
ENDBRANCH   1  12
TORSDOF 3
ENDMDL
