MODEL 1
REMARK VINA RESULT:      -6.9      0.000      0.000
REMARK  Name = 
REMARK  8 active torsions:
REMARK  status: ('A' for Active; 'I' for Inactive)
REMARK    1  A    between atoms: C_2  and  C_3
REMARK    2  A    between atoms: C_3  and  C_4
REMARK    3  A    between atoms: C_4  and  C_5
REMARK    4  A    between atoms: C_5  and  C_6
REMARK    5  A    between atoms: C_6  and  C_7
REMARK    6  A    between atoms: C_7  and  N_8
REMARK    7  A    between atoms: C_12  and  C_14
REMARK    8  A    between atoms: N_21  and  O_22
REMARK                            x       y       z     vdW  Elec       q    Type
REMARK                         _______ _______ _______ _____ _____    ______ ____
ROOT
ATOM      1  N   UNL     1       4.339   5.255  18.625  0.00  0.00    +0.000 N 
ATOM      2  C   UNL     1       5.228   4.252  18.374  0.00  0.00    +0.000 C 
ATOM      3  O   UNL     1       5.602   3.436  19.210  0.00  0.00    +0.000 OA
ATOM      4  N   UNL     1       5.712   4.197  17.085  0.00  0.00    +0.000 N 
ATOM      5  C   UNL     1       5.393   5.039  16.039  0.00  0.00    +0.000 C 
ATOM      6  O   UNL     1       4.589   5.966  16.132  0.00  0.00    +0.000 OA
ATOM      7  H   UNL     1       4.111   5.866  17.843  0.00  0.00    +0.000 HD
ATOM      8  H   UNL     1       6.411   3.478  16.970  0.00  0.00    +0.000 HD
ENDROOT
BRANCH   5   9
ATOM      9  C   UNL     1       6.071   4.824  14.737  0.00  0.00    +0.000 A 
ATOM     10  C   UNL     1       7.281   5.435  14.388  0.00  0.00    +0.000 A 
ATOM     11  C   UNL     1       7.892   5.115  13.170  0.00  0.00    +0.000 A 
ATOM     12  C   UNL     1       7.301   4.191  12.305  0.00  0.00    +0.000 A 
ATOM     13  C   UNL     1       6.096   3.588  12.656  0.00  0.00    +0.000 A 
ATOM     14 BR   UNL     1       5.299   2.323  11.501  0.00  0.00    +0.000 Br
ATOM     15  C   UNL     1       5.480   3.900  13.863  0.00  0.00    +0.000 A 
ENDBRANCH   5   9
BRANCH   1  16
ATOM     16  C   UNL     1       3.723   5.479  19.911  0.00  0.00    +0.000 C 
BRANCH  16  17
ATOM     17  C   UNL     1       2.200   5.604  19.825  0.00  0.00    +0.000 C 
BRANCH  17  18
ATOM     18  C   UNL     1       1.451   4.534  20.630  0.00  0.00    +0.000 C 
BRANCH  18  19
ATOM     19  C   UNL     1       0.641   3.611  19.713  0.00  0.00    +0.000 C 
BRANCH  19  20
ATOM     20  C   UNL     1       1.327   2.258  19.517  0.00  0.00    +0.000 C 
BRANCH  20  22
ATOM     21  O   UNL     1       2.177   2.981  17.353  0.00  0.00    +0.000 OA
ATOM     22  C   UNL     1       2.286   2.261  18.343  0.00  0.00    +0.000 C 
ATOM     23  N   UNL     1       3.317   1.365  18.480  0.00  0.00    +0.000 N 
ATOM     24  H   UNL     1       3.475   0.765  19.282  0.00  0.00    +0.000 HD
BRANCH  23  25
ATOM     25  O   UNL     1       4.262   1.313  17.432  0.00  0.00    +0.000 OA
ATOM     26  H   UNL     1       4.121   0.412  17.068  0.00  0.00    +0.000 HD
ENDBRANCH  23  25
ENDBRANCH  20  22
ENDBRANCH  19  20
ENDBRANCH  18  19
ENDBRANCH  17  18
ENDBRANCH  16  17
ENDBRANCH   1  16
TORSDOF 8
ENDMDL
MODEL 2
REMARK VINA RESULT:      -6.8      5.804      8.759
REMARK  Name = 
REMARK  8 active torsions:
REMARK  status: ('A' for Active; 'I' for Inactive)
REMARK    1  A    between atoms: C_2  and  C_3
REMARK    2  A    between atoms: C_3  and  C_4
REMARK    3  A    between atoms: C_4  and  C_5
REMARK    4  A    between atoms: C_5  and  C_6
REMARK    5  A    between atoms: C_6  and  C_7
REMARK    6  A    between atoms: C_7  and  N_8
REMARK    7  A    between atoms: C_12  and  C_14
REMARK    8  A    between atoms: N_21  and  O_22
REMARK                            x       y       z     vdW  Elec       q    Type
REMARK                         _______ _______ _______ _____ _____    ______ ____
ROOT
ATOM      1  N   UNL     1       7.372   6.762  18.328  0.00  0.00    +0.000 N 
ATOM      2  C   UNL     1       6.960   6.065  17.230  0.00  0.00    +0.000 C 
ATOM      3  O   UNL     1       7.430   6.207  16.106  0.00  0.00    +0.000 OA
ATOM      4  N   UNL     1       5.943   5.162  17.448  0.00  0.00    +0.000 N 
ATOM      5  C   UNL     1       5.311   4.892  18.645  0.00  0.00    +0.000 C 
ATOM      6  O   UNL     1       5.606   5.435  19.709  0.00  0.00    +0.000 OA
ATOM      7  H   UNL     1       6.899   6.549  19.204  0.00  0.00    +0.000 HD
ATOM      8  H   UNL     1       5.635   4.720  16.594  0.00  0.00    +0.000 HD
ENDROOT
BRANCH   5   9
ATOM      9  C   UNL     1       4.203   3.905  18.643  0.00  0.00    +0.000 A 
ATOM     10  C   UNL     1       3.922   3.063  17.561  0.00  0.00    +0.000 A 
ATOM     11  C   UNL     1       2.907   2.106  17.673  0.00  0.00    +0.000 A 
ATOM     12  C   UNL     1       2.177   1.988  18.858  0.00  0.00    +0.000 A 
ATOM     13  C   UNL     1       2.458   2.829  19.931  0.00  0.00    +0.000 A 
ATOM     14 BR   UNL     1       1.489   2.663  21.544  0.00  0.00    +0.000 Br
ATOM     15  C   UNL     1       3.464   3.784  19.829  0.00  0.00    +0.000 A 
ENDBRANCH   5   9
BRANCH   1  16
ATOM     16  C   UNL     1       8.421   7.752  18.303  0.00  0.00    +0.000 C 
BRANCH  16  17
ATOM     17  C   UNL     1       7.904   9.156  17.979  0.00  0.00    +0.000 C 
BRANCH  17  18
ATOM     18  C   UNL     1       9.020  10.193  17.794  0.00  0.00    +0.000 C 
BRANCH  18  19
ATOM     19  C   UNL     1       9.578  10.659  19.143  0.00  0.00    +0.000 C 
BRANCH  19  20
ATOM     20  C   UNL     1      10.842  11.505  18.975  0.00  0.00    +0.000 C 
BRANCH  20  22
ATOM     21  O   UNL     1       9.837  13.555  18.129  0.00  0.00    +0.000 OA
ATOM     22  C   UNL     1      10.650  12.643  17.993  0.00  0.00    +0.000 C 
ATOM     23  N   UNL     1      11.482  12.569  16.904  0.00  0.00    +0.000 N 
ATOM     24  H   UNL     1      12.189  11.859  16.748  0.00  0.00    +0.000 HD
BRANCH  23  25
ATOM     25  O   UNL     1      11.374  13.600  15.945  0.00  0.00    +0.000 OA
ATOM     26  H   UNL     1      10.504  13.999  16.165  0.00  0.00    +0.000 HD
ENDBRANCH  23  25
ENDBRANCH  20  22
ENDBRANCH  19  20
ENDBRANCH  18  19
ENDBRANCH  17  18
ENDBRANCH  16  17
ENDBRANCH   1  16
TORSDOF 8
ENDMDL
MODEL 3
REMARK VINA RESULT:      -6.7      4.385      7.523
REMARK  Name = 
REMARK  8 active torsions:
REMARK  status: ('A' for Active; 'I' for Inactive)
REMARK    1  A    between atoms: C_2  and  C_3
REMARK    2  A    between atoms: C_3  and  C_4
REMARK    3  A    between atoms: C_4  and  C_5
REMARK    4  A    between atoms: C_5  and  C_6
REMARK    5  A    between atoms: C_6  and  C_7
REMARK    6  A    between atoms: C_7  and  N_8
REMARK    7  A    between atoms: C_12  and  C_14
REMARK    8  A    between atoms: N_21  and  O_22
REMARK                            x       y       z     vdW  Elec       q    Type
REMARK                         _______ _______ _______ _____ _____    ______ ____
ROOT
ATOM      1  N   UNL     1       3.558   5.212  17.853  0.00  0.00    +0.000 N 
ATOM      2  C   UNL     1       2.777   5.182  18.970  0.00  0.00    +0.000 C 
ATOM      3  O   UNL     1       2.549   4.171  19.626  0.00  0.00    +0.000 OA
ATOM      4  N   UNL     1       2.225   6.389  19.341  0.00  0.00    +0.000 N 
ATOM      5  C   UNL     1       2.381   7.605  18.709  0.00  0.00    +0.000 C 
ATOM      6  O   UNL     1       3.078   7.768  17.708  0.00  0.00    +0.000 OA
ATOM      7  H   UNL     1       3.667   6.118  17.400  0.00  0.00    +0.000 HD
ATOM      8  H   UNL     1       1.607   6.299  20.134  0.00  0.00    +0.000 HD
ENDROOT
BRANCH   5   9
ATOM      9  C   UNL     1       1.655   8.777  19.257  0.00  0.00    +0.000 A 
ATOM     10  C   UNL     1       1.337   9.910  18.501  0.00  0.00    +0.000 A 
ATOM     11  C   UNL     1       0.580  10.937  19.076  0.00  0.00    +0.000 A 
ATOM     12  C   UNL     1       0.141  10.835  20.398  0.00  0.00    +0.000 A 
ATOM     13  C   UNL     1       0.462   9.706  21.148  0.00  0.00    +0.000 A 
ATOM     14 BR   UNL     1      -0.143   9.550  22.931  0.00  0.00    +0.000 Br
ATOM     15  C   UNL     1       1.214   8.681  20.586  0.00  0.00    +0.000 A 
ENDBRANCH   5   9
BRANCH   1  16
ATOM     16  C   UNL     1       4.221   4.053  17.306  0.00  0.00    +0.000 C 
BRANCH  16  17
ATOM     17  C   UNL     1       5.221   4.408  16.203  0.00  0.00    +0.000 C 
BRANCH  17  18
ATOM     18  C   UNL     1       5.438   5.917  16.035  0.00  0.00    +0.000 C 
BRANCH  18  19
ATOM     19  C   UNL     1       6.686   6.389  16.790  0.00  0.00    +0.000 C 
BRANCH  19  20
ATOM     20  C   UNL     1       7.358   5.244  17.551  0.00  0.00    +0.000 C 
BRANCH  20  22
ATOM     21  O   UNL     1       6.141   5.652  19.620  0.00  0.00    +0.000 OA
ATOM     22  C   UNL     1       7.195   5.375  19.052  0.00  0.00    +0.000 C 
ATOM     23  N   UNL     1       8.357   5.153  19.748  0.00  0.00    +0.000 N 
ATOM     24  H   UNL     1       9.249   4.895  19.340  0.00  0.00    +0.000 HD
BRANCH  23  25
ATOM     25  O   UNL     1       8.288   5.244  21.155  0.00  0.00    +0.000 OA
ATOM     26  H   UNL     1       7.328   5.389  21.308  0.00  0.00    +0.000 HD
ENDBRANCH  23  25
ENDBRANCH  20  22
ENDBRANCH  19  20
ENDBRANCH  18  19
ENDBRANCH  17  18
ENDBRANCH  16  17
ENDBRANCH   1  16
TORSDOF 8
ENDMDL
MODEL 4
REMARK VINA RESULT:      -6.6      4.345      7.766
REMARK  Name = 
REMARK  8 active torsions:
REMARK  status: ('A' for Active; 'I' for Inactive)
REMARK    1  A    between atoms: C_2  and  C_3
REMARK    2  A    between atoms: C_3  and  C_4
REMARK    3  A    between atoms: C_4  and  C_5
REMARK    4  A    between atoms: C_5  and  C_6
REMARK    5  A    between atoms: C_6  and  C_7
REMARK    6  A    between atoms: C_7  and  N_8
REMARK    7  A    between atoms: C_12  and  C_14
REMARK    8  A    between atoms: N_21  and  O_22
REMARK                            x       y       z     vdW  Elec       q    Type
REMARK                         _______ _______ _______ _____ _____    ______ ____
ROOT
ATOM      1  N   UNL     1       3.034   4.855  19.223  0.00  0.00    +0.000 N 
ATOM      2  C   UNL     1       2.377   4.873  20.418  0.00  0.00    +0.000 C 
ATOM      3  O   UNL     1       2.235   3.893  21.142  0.00  0.00    +0.000 OA
ATOM      4  N   UNL     1       1.852   6.091  20.788  0.00  0.00    +0.000 N 
ATOM      5  C   UNL     1       1.923   7.277  20.086  0.00  0.00    +0.000 C 
ATOM      6  O   UNL     1       2.506   7.397  19.009  0.00  0.00    +0.000 OA
ATOM      7  H   UNL     1       3.081   5.738  18.718  0.00  0.00    +0.000 HD
ATOM      8  H   UNL     1       1.324   6.035  21.647  0.00  0.00    +0.000 HD
ENDROOT
BRANCH   5   9
ATOM      9  C   UNL     1       1.243   8.467  20.653  0.00  0.00    +0.000 A 
ATOM     10  C   UNL     1       1.023   8.649  22.023  0.00  0.00    +0.000 A 
ATOM     11  C   UNL     1       0.444   9.840  22.479  0.00  0.00    +0.000 A 
ATOM     12  C   UNL     1       0.088  10.843  21.575  0.00  0.00    +0.000 A 
ATOM     13  C   UNL     1       0.308  10.657  20.213  0.00  0.00    +0.000 A 
ATOM     14 BR   UNL     1      -0.152  12.017  18.985  0.00  0.00    +0.000 Br
ATOM     15  C   UNL     1       0.881   9.478  19.749  0.00  0.00    +0.000 A 
ENDBRANCH   5   9
BRANCH   1  16
ATOM     16  C   UNL     1       3.650   3.676  18.663  0.00  0.00    +0.000 C 
BRANCH  16  17
ATOM     17  C   UNL     1       3.927   3.807  17.164  0.00  0.00    +0.000 C 
BRANCH  17  18
ATOM     18  C   UNL     1       5.394   4.113  16.835  0.00  0.00    +0.000 C 
BRANCH  18  19
ATOM     19  C   UNL     1       5.691   5.612  16.949  0.00  0.00    +0.000 C 
BRANCH  19  20
ATOM     20  C   UNL     1       7.043   5.877  17.614  0.00  0.00    +0.000 C 
BRANCH  20  22
ATOM     21  O   UNL     1       6.001   5.470  19.777  0.00  0.00    +0.000 OA
ATOM     22  C   UNL     1       7.022   5.591  19.102  0.00  0.00    +0.000 C 
ATOM     23  N   UNL     1       8.274   5.476  19.653  0.00  0.00    +0.000 N 
ATOM     24  H   UNL     1       9.149   5.539  19.146  0.00  0.00    +0.000 HD
BRANCH  23  25
ATOM     25  O   UNL     1       8.341   5.199  21.035  0.00  0.00    +0.000 OA
ATOM     26  H   UNL     1       7.399   5.040  21.263  0.00  0.00    +0.000 HD
ENDBRANCH  23  25
ENDBRANCH  20  22
ENDBRANCH  19  20
ENDBRANCH  18  19
ENDBRANCH  17  18
ENDBRANCH  16  17
ENDBRANCH   1  16
TORSDOF 8
ENDMDL
MODEL 5
REMARK VINA RESULT:      -6.6      1.289      1.477
REMARK  Name = 
REMARK  8 active torsions:
REMARK  status: ('A' for Active; 'I' for Inactive)
REMARK    1  A    between atoms: C_2  and  C_3
REMARK    2  A    between atoms: C_3  and  C_4
REMARK    3  A    between atoms: C_4  and  C_5
REMARK    4  A    between atoms: C_5  and  C_6
REMARK    5  A    between atoms: C_6  and  C_7
REMARK    6  A    between atoms: C_7  and  N_8
REMARK    7  A    between atoms: C_12  and  C_14
REMARK    8  A    between atoms: N_21  and  O_22
REMARK                            x       y       z     vdW  Elec       q    Type
REMARK                         _______ _______ _______ _____ _____    ______ ____
ROOT
ATOM      1  N   UNL     1       4.700   4.990  18.332  0.00  0.00    +0.000 N 
ATOM      2  C   UNL     1       3.982   4.479  17.291  0.00  0.00    +0.000 C 
ATOM      3  O   UNL     1       2.837   4.049  17.388  0.00  0.00    +0.000 OA
ATOM      4  N   UNL     1       4.629   4.462  16.075  0.00  0.00    +0.000 N 
ATOM      5  C   UNL     1       5.909   4.903  15.807  0.00  0.00    +0.000 C 
ATOM      6  O   UNL     1       6.648   5.405  16.653  0.00  0.00    +0.000 OA
ATOM      7  H   UNL     1       5.641   5.315  18.118  0.00  0.00    +0.000 HD
ATOM      8  H   UNL     1       4.078   4.019  15.355  0.00  0.00    +0.000 HD
ENDROOT
BRANCH   5   9
ATOM      9  C   UNL     1       6.426   4.748  14.425  0.00  0.00    +0.000 A 
ATOM     10  C   UNL     1       7.501   5.486  13.918  0.00  0.00    +0.000 A 
ATOM     11  C   UNL     1       7.976   5.220  12.628  0.00  0.00    +0.000 A 
ATOM     12  C   UNL     1       7.383   4.224  11.849  0.00  0.00    +0.000 A 
ATOM     13  C   UNL     1       6.312   3.494  12.357  0.00  0.00    +0.000 A 
ATOM     14 BR   UNL     1       5.516   2.132  11.319  0.00  0.00    +0.000 Br
ATOM     15  C   UNL     1       5.832   3.751  13.637  0.00  0.00    +0.000 A 
ENDBRANCH   5   9
BRANCH   1  16
ATOM     16  C   UNL     1       4.197   5.091  19.681  0.00  0.00    +0.000 C 
BRANCH  16  17
ATOM     17  C   UNL     1       2.981   6.013  19.793  0.00  0.00    +0.000 C 
BRANCH  17  18
ATOM     18  C   UNL     1       1.716   5.302  20.293  0.00  0.00    +0.000 C 
BRANCH  18  19
ATOM     19  C   UNL     1       2.053   4.233  21.338  0.00  0.00    +0.000 C 
BRANCH  19  20
ATOM     20  C   UNL     1       1.192   2.980  21.170  0.00  0.00    +0.000 C 
BRANCH  20  22
ATOM     21  O   UNL     1       0.341   2.352  18.976  0.00  0.00    +0.000 OA
ATOM     22  C   UNL     1       1.277   2.403  19.771  0.00  0.00    +0.000 C 
ATOM     23  N   UNL     1       2.525   1.924  19.455  0.00  0.00    +0.000 N 
ATOM     24  H   UNL     1       3.341   1.961  20.055  0.00  0.00    +0.000 HD
BRANCH  23  25
ATOM     25  O   UNL     1       2.692   1.379  18.163  0.00  0.00    +0.000 OA
ATOM     26  H   UNL     1       3.048   2.143  17.659  0.00  0.00    +0.000 HD
ENDBRANCH  23  25
ENDBRANCH  20  22
ENDBRANCH  19  20
ENDBRANCH  18  19
ENDBRANCH  17  18
ENDBRANCH  16  17
ENDBRANCH   1  16
TORSDOF 8
ENDMDL
MODEL 6
REMARK VINA RESULT:      -6.5      0.974      1.228
REMARK  Name = 
REMARK  8 active torsions:
REMARK  status: ('A' for Active; 'I' for Inactive)
REMARK    1  A    between atoms: C_2  and  C_3
REMARK    2  A    between atoms: C_3  and  C_4
REMARK    3  A    between atoms: C_4  and  C_5
REMARK    4  A    between atoms: C_5  and  C_6
REMARK    5  A    between atoms: C_6  and  C_7
REMARK    6  A    between atoms: C_7  and  N_8
REMARK    7  A    between atoms: C_12  and  C_14
REMARK    8  A    between atoms: N_21  and  O_22
REMARK                            x       y       z     vdW  Elec       q    Type
REMARK                         _______ _______ _______ _____ _____    ______ ____
ROOT
ATOM      1  N   UNL     1       4.675   5.586  18.294  0.00  0.00    +0.000 N 
ATOM      2  C   UNL     1       5.602   4.607  18.088  0.00  0.00    +0.000 C 
ATOM      3  O   UNL     1       6.045   3.881  18.972  0.00  0.00    +0.000 OA
ATOM      4  N   UNL     1       6.042   4.469  16.791  0.00  0.00    +0.000 N 
ATOM      5  C   UNL     1       5.646   5.207  15.694  0.00  0.00    +0.000 C 
ATOM      6  O   UNL     1       4.801   6.100  15.743  0.00  0.00    +0.000 OA
ATOM      7  H   UNL     1       4.389   6.119  17.474  0.00  0.00    +0.000 HD
ATOM      8  H   UNL     1       6.770   3.776  16.706  0.00  0.00    +0.000 HD
ENDROOT
BRANCH   5   9
ATOM      9  C   UNL     1       6.287   4.918  14.388  0.00  0.00    +0.000 A 
ATOM     10  C   UNL     1       7.444   5.562  13.937  0.00  0.00    +0.000 A 
ATOM     11  C   UNL     1       8.028   5.172  12.726  0.00  0.00    +0.000 A 
ATOM     12  C   UNL     1       7.461   4.144  11.969  0.00  0.00    +0.000 A 
ATOM     13  C   UNL     1       6.308   3.507  12.420  0.00  0.00    +0.000 A 
ATOM     14 BR   UNL     1       5.546   2.103  11.412  0.00  0.00    +0.000 Br
ATOM     15  C   UNL     1       5.720   3.888  13.621  0.00  0.00    +0.000 A 
ENDBRANCH   5   9
BRANCH   1  16
ATOM     16  C   UNL     1       4.094   5.886  19.580  0.00  0.00    +0.000 C 
BRANCH  16  17
ATOM     17  C   UNL     1       2.643   5.415  19.700  0.00  0.00    +0.000 C 
BRANCH  17  18
ATOM     18  C   UNL     1       1.908   5.346  18.355  0.00  0.00    +0.000 C 
BRANCH  18  19
ATOM     19  C   UNL     1       1.792   3.901  17.857  0.00  0.00    +0.000 C 
BRANCH  19  20
ATOM     20  C   UNL     1       1.872   2.893  19.005  0.00  0.00    +0.000 C 
BRANCH  20  22
ATOM     21  O   UNL     1       3.494   1.367  18.020  0.00  0.00    +0.000 OA
ATOM     22  C   UNL     1       3.145   2.072  18.964  0.00  0.00    +0.000 C 
ATOM     23  N   UNL     1       3.900   2.181  20.106  0.00  0.00    +0.000 N 
ATOM     24  H   UNL     1       3.681   2.765  20.905  0.00  0.00    +0.000 HD
BRANCH  23  25
ATOM     25  O   UNL     1       5.110   1.454  20.144  0.00  0.00    +0.000 OA
ATOM     26  H   UNL     1       5.610   1.841  19.393  0.00  0.00    +0.000 HD
ENDBRANCH  23  25
ENDBRANCH  20  22
ENDBRANCH  19  20
ENDBRANCH  18  19
ENDBRANCH  17  18
ENDBRANCH  16  17
ENDBRANCH   1  16
TORSDOF 8
ENDMDL
MODEL 7
REMARK VINA RESULT:      -6.5      6.051      6.895
REMARK  Name = 
REMARK  8 active torsions:
REMARK  status: ('A' for Active; 'I' for Inactive)
REMARK    1  A    between atoms: C_2  and  C_3
REMARK    2  A    between atoms: C_3  and  C_4
REMARK    3  A    between atoms: C_4  and  C_5
REMARK    4  A    between atoms: C_5  and  C_6
REMARK    5  A    between atoms: C_6  and  C_7
REMARK    6  A    between atoms: C_7  and  N_8
REMARK    7  A    between atoms: C_12  and  C_14
REMARK    8  A    between atoms: N_21  and  O_22
REMARK                            x       y       z     vdW  Elec       q    Type
REMARK                         _______ _______ _______ _____ _____    ______ ____
ROOT
ATOM      1  N   UNL     1       7.013   7.329  17.479  0.00  0.00    +0.000 N 
ATOM      2  C   UNL     1       7.949   7.135  18.452  0.00  0.00    +0.000 C 
ATOM      3  O   UNL     1       8.163   6.058  18.999  0.00  0.00    +0.000 OA
ATOM      4  N   UNL     1       8.669   8.252  18.814  0.00  0.00    +0.000 N 
ATOM      5  C   UNL     1       8.543   9.527  18.299  0.00  0.00    +0.000 C 
ATOM      6  O   UNL     1       7.755   9.825  17.403  0.00  0.00    +0.000 OA
ATOM      7  H   UNL     1       6.935   8.273  17.106  0.00  0.00    +0.000 HD
ATOM      8  H   UNL     1       9.301   8.068  19.579  0.00  0.00    +0.000 HD
ENDROOT
BRANCH   5   9
ATOM      9  C   UNL     1       9.396  10.598  18.870  0.00  0.00    +0.000 A 
ATOM     10  C   UNL     1       9.478  10.869  20.240  0.00  0.00    +0.000 A 
ATOM     11  C   UNL     1      10.368  11.847  20.700  0.00  0.00    +0.000 A 
ATOM     12  C   UNL     1      11.172  12.550  19.800  0.00  0.00    +0.000 A 
ATOM     13  C   UNL     1      11.084  12.279  18.437  0.00  0.00    +0.000 A 
ATOM     14 BR   UNL     1      12.181  13.211  17.213  0.00  0.00    +0.000 Br
ATOM     15  C   UNL     1      10.203  11.310  17.970  0.00  0.00    +0.000 A 
ENDBRANCH   5   9
BRANCH   1  16
ATOM     16  C   UNL     1       6.160   6.284  16.966  0.00  0.00    +0.000 C 
BRANCH  16  17
ATOM     17  C   UNL     1       5.065   5.875  17.954  0.00  0.00    +0.000 C 
BRANCH  17  18
ATOM     18  C   UNL     1       3.982   4.982  17.334  0.00  0.00    +0.000 C 
BRANCH  18  19
ATOM     19  C   UNL     1       2.600   5.291  17.921  0.00  0.00    +0.000 C 
BRANCH  19  20
ATOM     20  C   UNL     1       1.582   4.198  17.590  0.00  0.00    +0.000 C 
BRANCH  20  22
ATOM     21  O   UNL     1       0.705   2.246  18.751  0.00  0.00    +0.000 OA
ATOM     22  C   UNL     1       1.220   3.361  18.800  0.00  0.00    +0.000 C 
ATOM     23  N   UNL     1       1.522   3.968  19.994  0.00  0.00    +0.000 N 
ATOM     24  H   UNL     1       1.970   4.871  20.099  0.00  0.00    +0.000 HD
BRANCH  23  25
ATOM     25  O   UNL     1       1.226   3.248  21.171  0.00  0.00    +0.000 OA
ATOM     26  H   UNL     1       2.102   2.876  21.415  0.00  0.00    +0.000 HD
ENDBRANCH  23  25
ENDBRANCH  20  22
ENDBRANCH  19  20
ENDBRANCH  18  19
ENDBRANCH  17  18
ENDBRANCH  16  17
ENDBRANCH   1  16
TORSDOF 8
ENDMDL
MODEL 8
REMARK VINA RESULT:      -6.4      1.175      1.522
REMARK  Name = 
REMARK  8 active torsions:
REMARK  status: ('A' for Active; 'I' for Inactive)
REMARK    1  A    between atoms: C_2  and  C_3
REMARK    2  A    between atoms: C_3  and  C_4
REMARK    3  A    between atoms: C_4  and  C_5
REMARK    4  A    between atoms: C_5  and  C_6
REMARK    5  A    between atoms: C_6  and  C_7
REMARK    6  A    between atoms: C_7  and  N_8
REMARK    7  A    between atoms: C_12  and  C_14
REMARK    8  A    between atoms: N_21  and  O_22
REMARK                            x       y       z     vdW  Elec       q    Type
REMARK                         _______ _______ _______ _____ _____    ______ ____
ROOT
ATOM      1  N   UNL     1       3.611   5.592  18.166  0.00  0.00    +0.000 N 
ATOM      2  C   UNL     1       4.047   6.609  17.369  0.00  0.00    +0.000 C 
ATOM      3  O   UNL     1       3.804   7.795  17.570  0.00  0.00    +0.000 OA
ATOM      4  N   UNL     1       4.798   6.229  16.279  0.00  0.00    +0.000 N 
ATOM      5  C   UNL     1       5.150   4.945  15.917  0.00  0.00    +0.000 C 
ATOM      6  O   UNL     1       4.839   3.946  16.564  0.00  0.00    +0.000 OA
ATOM      7  H   UNL     1       3.882   4.650  17.888  0.00  0.00    +0.000 HD
ATOM      8  H   UNL     1       5.041   7.012  15.691  0.00  0.00    +0.000 HD
ENDROOT
BRANCH   5   9
ATOM      9  C   UNL     1       5.931   4.760  14.670  0.00  0.00    +0.000 A 
ATOM     10  C   UNL     1       7.118   5.447  14.395  0.00  0.00    +0.000 A 
ATOM     11  C   UNL     1       7.835   5.154  13.229  0.00  0.00    +0.000 A 
ATOM     12  C   UNL     1       7.371   4.180  12.342  0.00  0.00    +0.000 A 
ATOM     13  C   UNL     1       6.188   3.499  12.618  0.00  0.00    +0.000 A 
ATOM     14 BR   UNL     1       5.563   2.166  11.435  0.00  0.00    +0.000 Br
ATOM     15  C   UNL     1       5.469   3.784  13.774  0.00  0.00    +0.000 A 
ENDBRANCH   5   9
BRANCH   1  16
ATOM     16  C   UNL     1       2.812   5.786  19.352  0.00  0.00    +0.000 C 
BRANCH  16  17
ATOM     17  C   UNL     1       3.003   4.674  20.385  0.00  0.00    +0.000 C 
BRANCH  17  18
ATOM     18  C   UNL     1       1.695   4.222  21.049  0.00  0.00    +0.000 C 
BRANCH  18  19
ATOM     19  C   UNL     1       1.331   2.788  20.646  0.00  0.00    +0.000 C 
BRANCH  19  20
ATOM     20  C   UNL     1       0.869   2.706  19.190  0.00  0.00    +0.000 C 
BRANCH  20  22
ATOM     21  O   UNL     1       2.162   2.793  17.128  0.00  0.00    +0.000 OA
ATOM     22  C   UNL     1       1.991   2.316  18.248  0.00  0.00    +0.000 C 
ATOM     23  N   UNL     1       2.824   1.355  18.763  0.00  0.00    +0.000 N 
ATOM     24  H   UNL     1       2.751   0.944  19.687  0.00  0.00    +0.000 HD
BRANCH  23  25
ATOM     25  O   UNL     1       3.904   0.943  17.952  0.00  0.00    +0.000 OA
ATOM     26  H   UNL     1       3.683   1.353  17.087  0.00  0.00    +0.000 HD
ENDBRANCH  23  25
ENDBRANCH  20  22
ENDBRANCH  19  20
ENDBRANCH  18  19
ENDBRANCH  17  18
ENDBRANCH  16  17
ENDBRANCH   1  16
TORSDOF 8
ENDMDL
MODEL 9
REMARK VINA RESULT:      -6.4      5.636      6.602
REMARK  Name = 
REMARK  8 active torsions:
REMARK  status: ('A' for Active; 'I' for Inactive)
REMARK    1  A    between atoms: C_2  and  C_3
REMARK    2  A    between atoms: C_3  and  C_4
REMARK    3  A    between atoms: C_4  and  C_5
REMARK    4  A    between atoms: C_5  and  C_6
REMARK    5  A    between atoms: C_6  and  C_7
REMARK    6  A    between atoms: C_7  and  N_8
REMARK    7  A    between atoms: C_12  and  C_14
REMARK    8  A    between atoms: N_21  and  O_22
REMARK                            x       y       z     vdW  Elec       q    Type
REMARK                         _______ _______ _______ _____ _____    ______ ____
ROOT
ATOM      1  N   UNL     1       7.091   6.476  17.619  0.00  0.00    +0.000 N 
ATOM      2  C   UNL     1       7.930   6.473  18.694  0.00  0.00    +0.000 C 
ATOM      3  O   UNL     1       8.157   5.487  19.388  0.00  0.00    +0.000 OA
ATOM      4  N   UNL     1       8.530   7.678  18.982  0.00  0.00    +0.000 N 
ATOM      5  C   UNL     1       8.373   8.870  18.303  0.00  0.00    +0.000 C 
ATOM      6  O   UNL     1       7.665   8.997  17.305  0.00  0.00    +0.000 OA
ATOM      7  H   UNL     1       6.988   7.361  17.126  0.00  0.00    +0.000 HD
ATOM      8  H   UNL     1       9.090   7.636  19.821  0.00  0.00    +0.000 HD
ENDROOT
BRANCH   5   9
ATOM      9  C   UNL     1       9.086  10.065  18.816  0.00  0.00    +0.000 A 
ATOM     10  C   UNL     1       9.244  10.343  20.178  0.00  0.00    +0.000 A 
ATOM     11  C   UNL     1       9.999  11.453  20.576  0.00  0.00    +0.000 A 
ATOM     12  C   UNL     1      10.594  12.280  19.621  0.00  0.00    +0.000 A 
ATOM     13  C   UNL     1      10.433  12.001  18.267  0.00  0.00    +0.000 A 
ATOM     14 BR   UNL     1      11.250  13.103  16.968  0.00  0.00    +0.000 Br
ATOM     15  C   UNL     1       9.684  10.902  17.861  0.00  0.00    +0.000 A 
ENDBRANCH   5   9
BRANCH   1  16
ATOM     16  C   UNL     1       6.369   5.313  17.160  0.00  0.00    +0.000 C 
BRANCH  16  17
ATOM     17  C   UNL     1       4.921   5.628  16.777  0.00  0.00    +0.000 C 
BRANCH  17  18
ATOM     18  C   UNL     1       4.279   6.716  17.648  0.00  0.00    +0.000 C 
BRANCH  18  19
ATOM     19  C   UNL     1       2.843   6.346  18.035  0.00  0.00    +0.000 C 
BRANCH  19  20
ATOM     20  C   UNL     1       2.775   5.695  19.418  0.00  0.00    +0.000 C 
BRANCH  20  22
ATOM     21  O   UNL     1       1.066   4.291  20.437  0.00  0.00    +0.000 OA
ATOM     22  C   UNL     1       1.779   4.553  19.471  0.00  0.00    +0.000 C 
ATOM     23  N   UNL     1       1.739   3.811  18.317  0.00  0.00    +0.000 N 
ATOM     24  H   UNL     1       2.281   3.993  17.480  0.00  0.00    +0.000 HD
BRANCH  23  25
ATOM     25  O   UNL     1       0.828   2.734  18.281  0.00  0.00    +0.000 OA
ATOM     26  H   UNL     1       0.121   3.077  17.690  0.00  0.00    +0.000 HD
ENDBRANCH  23  25
ENDBRANCH  20  22
ENDBRANCH  19  20
ENDBRANCH  18  19
ENDBRANCH  17  18
ENDBRANCH  16  17
ENDBRANCH   1  16
TORSDOF 8
ENDMDL
