MODEL 1
REMARK VINA RESULT:      -7.9      0.000      0.000
REMARK  Name = 
REMARK  5 active torsions:
REMARK  status: ('A' for Active; 'I' for Inactive)
REMARK    1  A    between atoms: C_2  and  C_3
REMARK    2  A    between atoms: C_4  and  N_5
REMARK    3  A    between atoms: C_8  and  C_9
REMARK    4  A    between atoms: N_21  and  C_22
REMARK    5  A    between atoms: C_22  and  C_23
REMARK                            x       y       z     vdW  Elec       q    Type
REMARK                         _______ _______ _______ _____ _____    ______ ____
ROOT
ATOM      1  N   UNL     1       4.139   5.812  17.971  0.00  0.00    +0.000 N 
ATOM      2  C   UNL     1       3.599   4.722  17.138  0.00  0.00    +0.000 C 
ATOM      3  C   UNL     1       4.538   3.516  17.146  0.00  0.00    +0.000 C 
ATOM      4  C   UNL     1       5.977   3.875  16.720  0.00  0.00    +0.000 C 
ATOM      5  C   UNL     1       6.457   5.044  17.601  0.00  0.00    +0.000 C 
ATOM      6  C   UNL     1       5.497   6.231  17.563  0.00  0.00    +0.000 C 
ENDROOT
BRANCH   4   7
ATOM      7  C   UNL     1       6.203   4.099  15.222  0.00  0.00    +0.000 A 
ATOM      8  C   UNL     1       5.387   3.532  14.228  0.00  0.00    +0.000 A 
ATOM      9  C   UNL     1       5.654   3.736  12.873  0.00  0.00    +0.000 A 
ATOM     10  F   UNL     1       4.842   3.186  11.960  0.00  0.00    +0.000 F 
ATOM     11  C   UNL     1       6.739   4.485  12.458  0.00  0.00    +0.000 A 
ATOM     12  C   UNL     1       7.568   5.028  13.426  0.00  0.00    +0.000 A 
ATOM     13  F   UNL     1       8.637   5.741  13.048  0.00  0.00    +0.000 F 
ATOM     14  C   UNL     1       7.315   4.841  14.788  0.00  0.00    +0.000 A 
ENDBRANCH   4   7
BRANCH   1  16
ATOM     15  C   UNL     1       2.533   6.691  19.579  0.00  0.00    +0.000 A 
ATOM     16  C   UNL     1       3.264   6.802  18.451  0.00  0.00    +0.000 A 
ATOM     17  C   UNL     1       3.123   8.014  17.651  0.00  0.00    +0.000 A 
ATOM     18  C   UNL     1       2.196   8.933  17.937  0.00  0.00    +0.000 A 
ATOM     19  N   UNL     1       1.407   8.823  19.069  0.00  0.00    +0.000 N 
ATOM     20  C   UNL     1       1.661   7.825  20.020  0.00  0.00    +0.000 A 
ATOM     21  O   UNL     1       1.211   7.852  21.163  0.00  0.00    +0.000 OA
BRANCH  15  23
ATOM     22  N   UNL     1       2.469   4.509  20.966  0.00  0.00    +0.000 NA
ATOM     23  C   UNL     1       2.518   5.498  20.359  0.00  0.00    +0.000 C 
ENDBRANCH  15  23
BRANCH  19  24
ATOM     24  C   UNL     1       0.489   9.904  19.432  0.00  0.00    +0.000 C 
BRANCH  24  25
ATOM     25  C   UNL     1      -0.230  10.522  18.261  0.00  0.00    +0.000 C 
ATOM     26  C   UNL     1      -1.591  10.073  17.780  0.00  0.00    +0.000 C 
ATOM     27  C   UNL     1      -1.455  11.369  18.529  0.00  0.00    +0.000 C 
ENDBRANCH  24  25
ENDBRANCH  19  24
ENDBRANCH   1  16
TORSDOF 5
ENDMDL
MODEL 2
REMARK VINA RESULT:      -7.7      0.207      1.588
REMARK  Name = 
REMARK  5 active torsions:
REMARK  status: ('A' for Active; 'I' for Inactive)
REMARK    1  A    between atoms: C_2  and  C_3
REMARK    2  A    between atoms: C_4  and  N_5
REMARK    3  A    between atoms: C_8  and  C_9
REMARK    4  A    between atoms: N_21  and  C_22
REMARK    5  A    between atoms: C_22  and  C_23
REMARK                            x       y       z     vdW  Elec       q    Type
REMARK                         _______ _______ _______ _____ _____    ______ ____
ROOT
ATOM      1  N   UNL     1       4.014   5.785  18.103  0.00  0.00    +0.000 N 
ATOM      2  C   UNL     1       3.474   4.743  17.211  0.00  0.00    +0.000 C 
ATOM      3  C   UNL     1       4.352   3.492  17.243  0.00  0.00    +0.000 C 
ATOM      4  C   UNL     1       5.829   3.789  16.911  0.00  0.00    +0.000 C 
ATOM      5  C   UNL     1       6.310   4.912  17.851  0.00  0.00    +0.000 C 
ATOM      6  C   UNL     1       5.412   6.146  17.787  0.00  0.00    +0.000 C 
ENDROOT
BRANCH   4   7
ATOM      7  C   UNL     1       6.156   4.038  15.437  0.00  0.00    +0.000 A 
ATOM      8  C   UNL     1       7.260   4.798  15.012  0.00  0.00    +0.000 A 
ATOM      9  C   UNL     1       7.498   5.028  13.656  0.00  0.00    +0.000 A 
ATOM     10  F   UNL     1       8.570   5.747  13.297  0.00  0.00    +0.000 F 
ATOM     11  C   UNL     1       6.649   4.536  12.682  0.00  0.00    +0.000 A 
ATOM     12  C   UNL     1       5.542   3.807  13.087  0.00  0.00    +0.000 A 
ATOM     13  F   UNL     1       4.695   3.337  12.162  0.00  0.00    +0.000 F 
ATOM     14  C   UNL     1       5.290   3.561  14.439  0.00  0.00    +0.000 A 
ENDBRANCH   4   7
BRANCH   1  16
ATOM     15  C   UNL     1       2.421   6.735  19.682  0.00  0.00    +0.000 A 
ATOM     16  C   UNL     1       3.160   6.805  18.556  0.00  0.00    +0.000 A 
ATOM     17  C   UNL     1       3.052   8.002  17.730  0.00  0.00    +0.000 A 
ATOM     18  C   UNL     1       2.145   8.949  17.991  0.00  0.00    +0.000 A 
ATOM     19  N   UNL     1       1.348   8.882  19.120  0.00  0.00    +0.000 N 
ATOM     20  C   UNL     1       1.573   7.899  20.094  0.00  0.00    +0.000 A 
ATOM     21  O   UNL     1       1.117   7.962  21.234  0.00  0.00    +0.000 OA
BRANCH  15  23
ATOM     22  N   UNL     1       2.290   4.593  21.125  0.00  0.00    +0.000 NA
ATOM     23  C   UNL     1       2.373   5.560  20.488  0.00  0.00    +0.000 C 
ENDBRANCH  15  23
BRANCH  19  24
ATOM     24  C   UNL     1       0.453   9.991  19.455  0.00  0.00    +0.000 C 
BRANCH  24  25
ATOM     25  C   UNL     1      -0.259  10.589  18.269  0.00  0.00    +0.000 C 
ATOM     26  C   UNL     1      -1.494   9.985  17.641  0.00  0.00    +0.000 C 
ATOM     27  C   UNL     1      -1.615  11.224  18.484  0.00  0.00    +0.000 C 
ENDBRANCH  24  25
ENDBRANCH  19  24
ENDBRANCH   1  16
TORSDOF 5
ENDMDL
MODEL 3
REMARK VINA RESULT:      -7.4      0.760      1.869
REMARK  Name = 
REMARK  5 active torsions:
REMARK  status: ('A' for Active; 'I' for Inactive)
REMARK    1  A    between atoms: C_2  and  C_3
REMARK    2  A    between atoms: C_4  and  N_5
REMARK    3  A    between atoms: C_8  and  C_9
REMARK    4  A    between atoms: N_21  and  C_22
REMARK    5  A    between atoms: C_22  and  C_23
REMARK                            x       y       z     vdW  Elec       q    Type
REMARK                         _______ _______ _______ _____ _____    ______ ____
ROOT
ATOM      1  N   UNL     1       4.086   5.819  18.017  0.00  0.00    +0.000 N 
ATOM      2  C   UNL     1       3.549   4.759  17.143  0.00  0.00    +0.000 C 
ATOM      3  C   UNL     1       4.437   3.515  17.191  0.00  0.00    +0.000 C 
ATOM      4  C   UNL     1       5.910   3.817  16.849  0.00  0.00    +0.000 C 
ATOM      5  C   UNL     1       6.387   4.958  17.769  0.00  0.00    +0.000 C 
ATOM      6  C   UNL     1       5.480   6.184  17.690  0.00  0.00    +0.000 C 
ENDROOT
BRANCH   4   7
ATOM      7  C   UNL     1       6.229   4.045  15.369  0.00  0.00    +0.000 A 
ATOM      8  C   UNL     1       7.314   4.824  14.928  0.00  0.00    +0.000 A 
ATOM      9  C   UNL     1       7.545   5.033  13.567  0.00  0.00    +0.000 A 
ATOM     10  F   UNL     1       8.598   5.772  13.192  0.00  0.00    +0.000 F 
ATOM     11  C   UNL     1       6.707   4.501  12.605  0.00  0.00    +0.000 A 
ATOM     12  C   UNL     1       5.619   3.753  13.025  0.00  0.00    +0.000 A 
ATOM     13  F   UNL     1       4.782   3.244  12.111  0.00  0.00    +0.000 F 
ATOM     14  C   UNL     1       5.374   3.527  14.382  0.00  0.00    +0.000 A 
ENDBRANCH   4   7
BRANCH   1  16
ATOM     15  C   UNL     1       2.477   6.774  19.577  0.00  0.00    +0.000 A 
ATOM     16  C   UNL     1       3.226   6.839  18.458  0.00  0.00    +0.000 A 
ATOM     17  C   UNL     1       3.124   8.032  17.624  0.00  0.00    +0.000 A 
ATOM     18  C   UNL     1       2.213   8.979  17.873  0.00  0.00    +0.000 A 
ATOM     19  N   UNL     1       1.406   8.916  18.995  0.00  0.00    +0.000 N 
ATOM     20  C   UNL     1       1.624   7.937  19.976  0.00  0.00    +0.000 A 
ATOM     21  O   UNL     1       1.158   8.005  21.111  0.00  0.00    +0.000 OA
BRANCH  15  23
ATOM     22  N   UNL     1       2.332   4.647  21.043  0.00  0.00    +0.000 NA
ATOM     23  C   UNL     1       2.424   5.602  20.388  0.00  0.00    +0.000 C 
ENDBRANCH  15  23
BRANCH  19  24
ATOM     24  C   UNL     1       0.506  10.026  19.317  0.00  0.00    +0.000 C 
BRANCH  24  25
ATOM     25  C   UNL     1       1.140  11.387  19.199  0.00  0.00    +0.000 C 
ATOM     26  C   UNL     1       0.353  12.676  19.148  0.00  0.00    +0.000 C 
ATOM     27  C   UNL     1       1.101  12.309  20.398  0.00  0.00    +0.000 C 
ENDBRANCH  24  25
ENDBRANCH  19  24
ENDBRANCH   1  16
TORSDOF 5
ENDMDL
MODEL 4
REMARK VINA RESULT:      -7.2      4.485      8.514
REMARK  Name = 
REMARK  5 active torsions:
REMARK  status: ('A' for Active; 'I' for Inactive)
REMARK    1  A    between atoms: C_2  and  C_3
REMARK    2  A    between atoms: C_4  and  N_5
REMARK    3  A    between atoms: C_8  and  C_9
REMARK    4  A    between atoms: N_21  and  C_22
REMARK    5  A    between atoms: C_22  and  C_23
REMARK                            x       y       z     vdW  Elec       q    Type
REMARK                         _______ _______ _______ _____ _____    ______ ____
ROOT
ATOM      1  N   UNL     1       1.956   8.170  19.372  0.00  0.00    +0.000 N 
ATOM      2  C   UNL     1       1.673   8.591  17.987  0.00  0.00    +0.000 C 
ATOM      3  C   UNL     1       1.733  10.114  17.860  0.00  0.00    +0.000 C 
ATOM      4  C   UNL     1       0.802  10.835  18.856  0.00  0.00    +0.000 C 
ATOM      5  C   UNL     1       1.125  10.315  20.270  0.00  0.00    +0.000 C 
ATOM      6  C   UNL     1       1.050   8.793  20.360  0.00  0.00    +0.000 C 
ENDROOT
BRANCH   4   7
ATOM      7  C   UNL     1      -0.692  10.819  18.520  0.00  0.00    +0.000 A 
ATOM      8  C   UNL     1      -1.240  10.031  17.494  0.00  0.00    +0.000 A 
ATOM      9  C   UNL     1      -2.604  10.076  17.200  0.00  0.00    +0.000 A 
ATOM     10  F   UNL     1      -3.085   9.298  16.221  0.00  0.00    +0.000 F 
ATOM     11  C   UNL     1      -3.462  10.910  17.893  0.00  0.00    +0.000 A 
ATOM     12  C   UNL     1      -2.932  11.712  18.890  0.00  0.00    +0.000 A 
ATOM     13  F   UNL     1      -3.740  12.542  19.562  0.00  0.00    +0.000 F 
ATOM     14  C   UNL     1      -1.570  11.677  19.203  0.00  0.00    +0.000 A 
ENDBRANCH   4   7
BRANCH   1  16
ATOM     15  C   UNL     1       3.424   6.264  18.989  0.00  0.00    +0.000 A 
ATOM     16  C   UNL     1       2.381   6.852  19.610  0.00  0.00    +0.000 A 
ATOM     17  C   UNL     1       1.617   6.068  20.575  0.00  0.00    +0.000 A 
ATOM     18  C   UNL     1       1.843   4.761  20.744  0.00  0.00    +0.000 A 
ATOM     19  N   UNL     1       2.883   4.126  20.090  0.00  0.00    +0.000 N 
ATOM     20  C   UNL     1       3.816   4.865  19.349  0.00  0.00    +0.000 A 
ATOM     21  O   UNL     1       4.908   4.418  19.003  0.00  0.00    +0.000 OA
BRANCH  15  23
ATOM     22  N   UNL     1       4.756   7.396  17.083  0.00  0.00    +0.000 NA
ATOM     23  C   UNL     1       4.153   6.912  17.950  0.00  0.00    +0.000 C 
ENDBRANCH  15  23
BRANCH  19  24
ATOM     24  C   UNL     1       3.191   2.725  20.387  0.00  0.00    +0.000 C 
BRANCH  24  25
ATOM     25  C   UNL     1       2.667   1.749  19.366  0.00  0.00    +0.000 C 
ATOM     26  C   UNL     1       2.360   2.118  17.933  0.00  0.00    +0.000 C 
ATOM     27  C   UNL     1       3.587   1.309  18.248  0.00  0.00    +0.000 C 
ENDBRANCH  24  25
ENDBRANCH  19  24
ENDBRANCH   1  16
TORSDOF 5
ENDMDL
MODEL 5
REMARK VINA RESULT:      -7.1      4.466      8.542
REMARK  Name = 
REMARK  5 active torsions:
REMARK  status: ('A' for Active; 'I' for Inactive)
REMARK    1  A    between atoms: C_2  and  C_3
REMARK    2  A    between atoms: C_4  and  N_5
REMARK    3  A    between atoms: C_8  and  C_9
REMARK    4  A    between atoms: N_21  and  C_22
REMARK    5  A    between atoms: C_22  and  C_23
REMARK                            x       y       z     vdW  Elec       q    Type
REMARK                         _______ _______ _______ _____ _____    ______ ____
ROOT
ATOM      1  N   UNL     1       1.947   8.226  19.380  0.00  0.00    +0.000 N 
ATOM      2  C   UNL     1       1.675   8.650  17.994  0.00  0.00    +0.000 C 
ATOM      3  C   UNL     1       1.764  10.171  17.864  0.00  0.00    +0.000 C 
ATOM      4  C   UNL     1       0.845  10.912  18.857  0.00  0.00    +0.000 C 
ATOM      5  C   UNL     1       1.156  10.389  20.273  0.00  0.00    +0.000 C 
ATOM      6  C   UNL     1       1.051   8.868  20.365  0.00  0.00    +0.000 C 
ENDROOT
BRANCH   4   7
ATOM      7  C   UNL     1      -0.648  10.924  18.519  0.00  0.00    +0.000 A 
ATOM      8  C   UNL     1      -1.592  11.675  19.240  0.00  0.00    +0.000 A 
ATOM      9  C   UNL     1      -2.950  11.627  18.918  0.00  0.00    +0.000 A 
ATOM     10  F   UNL     1      -3.813  12.369  19.624  0.00  0.00    +0.000 F 
ATOM     11  C   UNL     1      -3.418  10.826  17.893  0.00  0.00    +0.000 A 
ATOM     12  C   UNL     1      -2.502  10.060  17.190  0.00  0.00    +0.000 A 
ATOM     13  F   UNL     1      -2.935   9.262  16.205  0.00  0.00    +0.000 F 
ATOM     14  C   UNL     1      -1.139  10.099  17.493  0.00  0.00    +0.000 A 
ENDBRANCH   4   7
BRANCH   1  16
ATOM     15  C   UNL     1       3.380   6.292  19.006  0.00  0.00    +0.000 A 
ATOM     16  C   UNL     1       2.346   6.901  19.622  0.00  0.00    +0.000 A 
ATOM     17  C   UNL     1       1.564   6.133  20.585  0.00  0.00    +0.000 A 
ATOM     18  C   UNL     1       1.764   4.823  20.757  0.00  0.00    +0.000 A 
ATOM     19  N   UNL     1       2.794   4.166  20.107  0.00  0.00    +0.000 N 
ATOM     20  C   UNL     1       3.744   4.886  19.369  0.00  0.00    +0.000 A 
ATOM     21  O   UNL     1       4.828   4.418  19.027  0.00  0.00    +0.000 OA
BRANCH  15  23
ATOM     22  N   UNL     1       4.739   7.396  17.102  0.00  0.00    +0.000 NA
ATOM     23  C   UNL     1       4.124   6.925  17.967  0.00  0.00    +0.000 C 
ENDBRANCH  15  23
BRANCH  19  24
ATOM     24  C   UNL     1       3.075   2.761  20.407  0.00  0.00    +0.000 C 
BRANCH  24  25
ATOM     25  C   UNL     1       2.553   1.794  19.376  0.00  0.00    +0.000 C 
ATOM     26  C   UNL     1       2.243   2.179  17.948  0.00  0.00    +0.000 C 
ATOM     27  C   UNL     1       3.473   1.371  18.252  0.00  0.00    +0.000 C 
ENDBRANCH  24  25
ENDBRANCH  19  24
ENDBRANCH   1  16
TORSDOF 5
ENDMDL
MODEL 6
REMARK VINA RESULT:      -6.9      4.294      6.574
REMARK  Name = 
REMARK  5 active torsions:
REMARK  status: ('A' for Active; 'I' for Inactive)
REMARK    1  A    between atoms: C_2  and  C_3
REMARK    2  A    between atoms: C_4  and  N_5
REMARK    3  A    between atoms: C_8  and  C_9
REMARK    4  A    between atoms: N_21  and  C_22
REMARK    5  A    between atoms: C_22  and  C_23
REMARK                            x       y       z     vdW  Elec       q    Type
REMARK                         _______ _______ _______ _____ _____    ______ ____
ROOT
ATOM      1  N   UNL     1       0.245   9.535  19.318  0.00  0.00    +0.000 N 
ATOM      2  C   UNL     1       0.362   8.719  20.540  0.00  0.00    +0.000 C 
ATOM      3  C   UNL     1       1.819   8.337  20.800  0.00  0.00    +0.000 C 
ATOM      4  C   UNL     1       2.476   7.627  19.599  0.00  0.00    +0.000 C 
ATOM      5  C   UNL     1       2.278   8.516  18.355  0.00  0.00    +0.000 C 
ATOM      6  C   UNL     1       0.811   8.871  18.125  0.00  0.00    +0.000 C 
ENDROOT
BRANCH   4   7
ATOM      7  C   UNL     1       2.084   6.164  19.379  0.00  0.00    +0.000 A 
ATOM      8  C   UNL     1       1.574   5.344  20.400  0.00  0.00    +0.000 A 
ATOM      9  C   UNL     1       1.263   4.004  20.161  0.00  0.00    +0.000 A 
ATOM     10  F   UNL     1       0.767   3.263  21.162  0.00  0.00    +0.000 F 
ATOM     11  C   UNL     1       1.463   3.429  18.920  0.00  0.00    +0.000 A 
ATOM     12  C   UNL     1       1.990   4.218  17.911  0.00  0.00    +0.000 A 
ATOM     13  F   UNL     1       2.212   3.677  16.705  0.00  0.00    +0.000 F 
ATOM     14  C   UNL     1       2.302   5.563  18.128  0.00  0.00    +0.000 A 
ENDBRANCH   4   7
BRANCH   1  16
ATOM     15  C   UNL     1      -1.187  11.419  19.897  0.00  0.00    +0.000 A 
ATOM     16  C   UNL     1      -0.893  10.341  19.142  0.00  0.00    +0.000 A 
ATOM     17  C   UNL     1      -1.825   9.959  18.088  0.00  0.00    +0.000 A 
ATOM     18  C   UNL     1      -3.011  10.563  17.954  0.00  0.00    +0.000 A 
ATOM     19  N   UNL     1      -3.352  11.647  18.743  0.00  0.00    +0.000 N 
ATOM     20  C   UNL     1      -2.408  12.232  19.598  0.00  0.00    +0.000 A 
ATOM     21  O   UNL     1      -2.543  13.352  20.086  0.00  0.00    +0.000 OA
BRANCH  15  23
ATOM     22  N   UNL     1       0.207  12.102  21.966  0.00  0.00    +0.000 NA
ATOM     23  C   UNL     1      -0.396  11.797  21.022  0.00  0.00    +0.000 C 
ENDBRANCH  15  23
BRANCH  19  24
ATOM     24  C   UNL     1      -4.600  12.372  18.494  0.00  0.00    +0.000 C 
BRANCH  24  25
ATOM     25  C   UNL     1      -5.653  11.562  17.784  0.00  0.00    +0.000 C 
ATOM     26  C   UNL     1      -6.739  10.790  18.499  0.00  0.00    +0.000 C 
ATOM     27  C   UNL     1      -7.079  12.069  17.788  0.00  0.00    +0.000 C 
ENDBRANCH  24  25
ENDBRANCH  19  24
ENDBRANCH   1  16
TORSDOF 5
ENDMDL
MODEL 7
REMARK VINA RESULT:      -6.9      4.289      6.529
REMARK  Name = 
REMARK  5 active torsions:
REMARK  status: ('A' for Active; 'I' for Inactive)
REMARK    1  A    between atoms: C_2  and  C_3
REMARK    2  A    between atoms: C_4  and  N_5
REMARK    3  A    between atoms: C_8  and  C_9
REMARK    4  A    between atoms: N_21  and  C_22
REMARK    5  A    between atoms: C_22  and  C_23
REMARK                            x       y       z     vdW  Elec       q    Type
REMARK                         _______ _______ _______ _____ _____    ______ ____
ROOT
ATOM      1  N   UNL     1       0.285   9.458  19.260  0.00  0.00    +0.000 N 
ATOM      2  C   UNL     1       0.353   8.625  20.474  0.00  0.00    +0.000 C 
ATOM      3  C   UNL     1       1.801   8.267  20.807  0.00  0.00    +0.000 C 
ATOM      4  C   UNL     1       2.536   7.589  19.632  0.00  0.00    +0.000 C 
ATOM      5  C   UNL     1       2.387   8.494  18.394  0.00  0.00    +0.000 C 
ATOM      6  C   UNL     1       0.928   8.824  18.089  0.00  0.00    +0.000 C 
ENDROOT
BRANCH   4   7
ATOM      7  C   UNL     1       2.186   6.122  19.369  0.00  0.00    +0.000 A 
ATOM      8  C   UNL     1       2.314   5.516  18.108  0.00  0.00    +0.000 A 
ATOM      9  C   UNL     1       1.948   4.184  17.907  0.00  0.00    +0.000 A 
ATOM     10  F   UNL     1       2.099   3.644  16.690  0.00  0.00    +0.000 F 
ATOM     11  C   UNL     1       1.428   3.418  18.934  0.00  0.00    +0.000 A 
ATOM     12  C   UNL     1       1.270   4.010  20.176  0.00  0.00    +0.000 A 
ATOM     13  F   UNL     1       0.750   3.293  21.182  0.00  0.00    +0.000 F 
ATOM     14  C   UNL     1       1.637   5.340  20.399  0.00  0.00    +0.000 A 
ENDBRANCH   4   7
BRANCH   1  16
ATOM     15  C   UNL     1      -1.225  11.290  19.803  0.00  0.00    +0.000 A 
ATOM     16  C   UNL     1      -0.857  10.245  19.035  0.00  0.00    +0.000 A 
ATOM     17  C   UNL     1      -1.710   9.878  17.910  0.00  0.00    +0.000 A 
ATOM     18  C   UNL     1      -2.898  10.461  17.717  0.00  0.00    +0.000 A 
ATOM     19  N   UNL     1      -3.316  11.510  18.516  0.00  0.00    +0.000 N 
ATOM     20  C   UNL     1      -2.443  12.087  19.450  0.00  0.00    +0.000 A 
ATOM     21  O   UNL     1      -2.636  13.186  19.964  0.00  0.00    +0.000 OA
BRANCH  15  23
ATOM     22  N   UNL     1       0.084  11.899  21.949  0.00  0.00    +0.000 NA
ATOM     23  C   UNL     1      -0.519  11.647  20.990  0.00  0.00    +0.000 C 
ENDBRANCH  15  23
BRANCH  19  24
ATOM     24  C   UNL     1      -4.561  12.217  18.208  0.00  0.00    +0.000 C 
BRANCH  24  25
ATOM     25  C   UNL     1      -5.703  11.313  17.822  0.00  0.00    +0.000 C 
ATOM     26  C   UNL     1      -6.478  10.473  18.810  0.00  0.00    +0.000 C 
ATOM     27  C   UNL     1      -7.106  11.707  18.228  0.00  0.00    +0.000 C 
ENDBRANCH  24  25
ENDBRANCH  19  24
ENDBRANCH   1  16
TORSDOF 5
ENDMDL
MODEL 8
REMARK VINA RESULT:      -6.7      4.071      8.422
REMARK  Name = 
REMARK  5 active torsions:
REMARK  status: ('A' for Active; 'I' for Inactive)
REMARK    1  A    between atoms: C_2  and  C_3
REMARK    2  A    between atoms: C_4  and  N_5
REMARK    3  A    between atoms: C_8  and  C_9
REMARK    4  A    between atoms: N_21  and  C_22
REMARK    5  A    between atoms: C_22  and  C_23
REMARK                            x       y       z     vdW  Elec       q    Type
REMARK                         _______ _______ _______ _____ _____    ______ ____
ROOT
ATOM      1  N   UNL     1       1.936   7.946  18.792  0.00  0.00    +0.000 N 
ATOM      2  C   UNL     1       1.894   8.405  20.193  0.00  0.00    +0.000 C 
ATOM      3  C   UNL     1       0.525   8.997  20.529  0.00  0.00    +0.000 C 
ATOM      4  C   UNL     1       0.109  10.127  19.565  0.00  0.00    +0.000 C 
ATOM      5  C   UNL     1       0.218   9.589  18.125  0.00  0.00    +0.000 C 
ATOM      6  C   UNL     1       1.599   9.012  17.826  0.00  0.00    +0.000 C 
ENDROOT
BRANCH   4   7
ATOM      7  C   UNL     1       0.795  11.480  19.771  0.00  0.00    +0.000 A 
ATOM      8  C   UNL     1       0.615  12.266  20.922  0.00  0.00    +0.000 A 
ATOM      9  C   UNL     1       1.235  13.510  21.049  0.00  0.00    +0.000 A 
ATOM     10  F   UNL     1       1.045  14.220  22.170  0.00  0.00    +0.000 F 
ATOM     11  C   UNL     1       2.031  14.025  20.043  0.00  0.00    +0.000 A 
ATOM     12  C   UNL     1       2.196  13.273  18.891  0.00  0.00    +0.000 A 
ATOM     13  F   UNL     1       2.947  13.760  17.894  0.00  0.00    +0.000 F 
ATOM     14  C   UNL     1       1.590  12.023  18.746  0.00  0.00    +0.000 A 
ENDBRANCH   4   7
BRANCH   1  16
ATOM     15  C   UNL     1       2.935   5.724  18.855  0.00  0.00    +0.000 A 
ATOM     16  C   UNL     1       2.904   6.999  18.414  0.00  0.00    +0.000 A 
ATOM     17  C   UNL     1       3.955   7.444  17.507  0.00  0.00    +0.000 A 
ATOM     18  C   UNL     1       5.006   6.667  17.224  0.00  0.00    +0.000 A 
ATOM     19  N   UNL     1       5.081   5.369  17.695  0.00  0.00    +0.000 N 
ATOM     20  C   UNL     1       3.989   4.786  18.356  0.00  0.00    +0.000 A 
ATOM     21  O   UNL     1       3.874   3.575  18.527  0.00  0.00    +0.000 OA
BRANCH  15  23
ATOM     22  N   UNL     1       1.237   4.845  20.596  0.00  0.00    +0.000 NA
ATOM     23  C   UNL     1       2.019   5.236  19.832  0.00  0.00    +0.000 C 
ENDBRANCH  15  23
BRANCH  19  24
ATOM     24  C   UNL     1       6.175   4.494  17.269  0.00  0.00    +0.000 C 
BRANCH  24  25
ATOM     25  C   UNL     1       6.004   3.922  15.886  0.00  0.00    +0.000 C 
ATOM     26  C   UNL     1       5.399   4.688  14.731  0.00  0.00    +0.000 C 
ATOM     27  C   UNL     1       6.882   4.450  14.772  0.00  0.00    +0.000 C 
ENDBRANCH  24  25
ENDBRANCH  19  24
ENDBRANCH   1  16
TORSDOF 5
ENDMDL
MODEL 9
REMARK VINA RESULT:      -6.7      4.063      8.418
REMARK  Name = 
REMARK  5 active torsions:
REMARK  status: ('A' for Active; 'I' for Inactive)
REMARK    1  A    between atoms: C_2  and  C_3
REMARK    2  A    between atoms: C_4  and  N_5
REMARK    3  A    between atoms: C_8  and  C_9
REMARK    4  A    between atoms: N_21  and  C_22
REMARK    5  A    between atoms: C_22  and  C_23
REMARK                            x       y       z     vdW  Elec       q    Type
REMARK                         _______ _______ _______ _____ _____    ______ ____
ROOT
ATOM      1  N   UNL     1       1.954   7.955  18.740  0.00  0.00    +0.000 N 
ATOM      2  C   UNL     1       1.937   8.441  20.131  0.00  0.00    +0.000 C 
ATOM      3  C   UNL     1       0.573   9.037  20.482  0.00  0.00    +0.000 C 
ATOM      4  C   UNL     1       0.137  10.149  19.504  0.00  0.00    +0.000 C 
ATOM      5  C   UNL     1       0.220   9.583  18.073  0.00  0.00    +0.000 C 
ATOM      6  C   UNL     1       1.597   9.002  17.759  0.00  0.00    +0.000 C 
ENDROOT
BRANCH   4   7
ATOM      7  C   UNL     1       0.825  11.506  19.671  0.00  0.00    +0.000 A 
ATOM      8  C   UNL     1       1.749  12.017  18.743  0.00  0.00    +0.000 A 
ATOM      9  C   UNL     1       2.379  13.245  18.955  0.00  0.00    +0.000 A 
ATOM     10  F   UNL     1       3.243  13.700  18.038  0.00  0.00    +0.000 F 
ATOM     11  C   UNL     1       2.134  13.993  20.091  0.00  0.00    +0.000 A 
ATOM     12  C   UNL     1       1.246  13.489  21.028  0.00  0.00    +0.000 A 
ATOM     13  F   UNL     1       1.007  14.187  22.146  0.00  0.00    +0.000 F 
ATOM     14  C   UNL     1       0.600  12.266  20.831  0.00  0.00    +0.000 A 
ENDBRANCH   4   7
BRANCH   1  16
ATOM     15  C   UNL     1       2.941   5.729  18.806  0.00  0.00    +0.000 A 
ATOM     16  C   UNL     1       2.915   7.002  18.362  0.00  0.00    +0.000 A 
ATOM     17  C   UNL     1       3.967   7.440  17.451  0.00  0.00    +0.000 A 
ATOM     18  C   UNL     1       5.013   6.657  17.168  0.00  0.00    +0.000 A 
ATOM     19  N   UNL     1       5.082   5.359  17.642  0.00  0.00    +0.000 N 
ATOM     20  C   UNL     1       3.990   4.784  18.306  0.00  0.00    +0.000 A 
ATOM     21  O   UNL     1       3.868   3.573  18.481  0.00  0.00    +0.000 OA
BRANCH  15  23
ATOM     22  N   UNL     1       1.251   4.894  20.576  0.00  0.00    +0.000 NA
ATOM     23  C   UNL     1       2.025   5.247  19.786  0.00  0.00    +0.000 C 
ENDBRANCH  15  23
BRANCH  19  24
ATOM     24  C   UNL     1       6.171   4.478  17.215  0.00  0.00    +0.000 C 
BRANCH  24  25
ATOM     25  C   UNL     1       5.987   3.890  15.841  0.00  0.00    +0.000 C 
ATOM     26  C   UNL     1       5.349   4.635  14.690  0.00  0.00    +0.000 C 
ATOM     27  C   UNL     1       6.837   4.422  14.707  0.00  0.00    +0.000 C 
ENDBRANCH  24  25
ENDBRANCH  19  24
ENDBRANCH   1  16
TORSDOF 5
ENDMDL
