MODEL 1
REMARK VINA RESULT:      -7.9      0.000      0.000
REMARK  Name = 
REMARK  3 active torsions:
REMARK  status: ('A' for Active; 'I' for Inactive)
REMARK    1  A    between atoms: C_1  and  C_2
REMARK    2  A    between atoms: N_4  and  C_5
REMARK    3  A    between atoms: N_18  and  O_19
REMARK                            x       y       z     vdW  Elec       q    Type
REMARK                         _______ _______ _______ _____ _____    ______ ____
ROOT
ATOM      1  C   UNL     1       4.340   7.285  16.240  0.00  0.00    +0.000 C 
ATOM      2  C   UNL     1       3.533   7.028  17.454  0.00  0.00    +0.000 A 
ATOM      3  N   UNL     1       3.468   5.801  17.985  0.00  0.00    +0.000 NA
ATOM      4  N   UNL     1       2.585   5.915  19.025  0.00  0.00    +0.000 N 
ATOM      5  C   UNL     1       2.160   7.224  19.197  0.00  0.00    +0.000 A 
ATOM      6  N   UNL     1       1.330   7.728  20.155  0.00  0.00    +0.000 NA
ATOM      7  C   UNL     1       1.189   9.052  20.004  0.00  0.00    +0.000 A 
ATOM      8  C   UNL     1       1.792   9.796  18.999  0.00  0.00    +0.000 A 
ATOM      9  N   UNL     1       2.594   9.310  18.030  0.00  0.00    +0.000 NA
ATOM     10  C   UNL     1       2.771   7.962  18.180  0.00  0.00    +0.000 A 
ATOM     11  C   UNL     1       1.422  11.210  19.231  0.00  0.00    +0.000 C 
ATOM     12  N   UNL     1       1.731  12.297  18.597  0.00  0.00    +0.000 NA
ATOM     13  C   UNL     1       0.556  11.218  20.436  0.00  0.00    +0.000 A 
ATOM     14  C   UNL     1      -0.049  12.280  21.079  0.00  0.00    +0.000 A 
ATOM     15  C   UNL     1      -0.807  11.993  22.216  0.00  0.00    +0.000 A 
ATOM     16  C   UNL     1      -0.937  10.671  22.681  0.00  0.00    +0.000 A 
ATOM     17  C   UNL     1      -0.312   9.609  22.016  0.00  0.00    +0.000 A 
ATOM     18  C   UNL     1       0.434   9.898  20.886  0.00  0.00    +0.000 A 
ENDROOT
BRANCH   4  19
ATOM     19  C   UNL     1       2.197   4.767  19.771  0.00  0.00    +0.000 A 
ATOM     20  C   UNL     1       1.338   3.821  19.195  0.00  0.00    +0.000 A 
ATOM     21  C   UNL     1       0.932   2.706  19.935  0.00  0.00    +0.000 A 
ATOM     22  C   UNL     1       1.374   2.535  21.245  0.00  0.00    +0.000 A 
ATOM     23  C   UNL     1       2.228   3.465  21.822  0.00  0.00    +0.000 A 
ATOM     24  C   UNL     1       2.643   4.574  21.086  0.00  0.00    +0.000 A 
ENDBRANCH   4  19
BRANCH  12  25
ATOM     25  O   UNL     1       2.561  12.031  17.508  0.00  0.00    +0.000 OA
ATOM     26  H   UNL     1       1.964  12.149  16.750  0.00  0.00    +0.000 HD
ENDBRANCH  12  25
TORSDOF 2
ENDMDL
MODEL 2
REMARK VINA RESULT:      -7.7      0.892      1.013
REMARK  Name = 
REMARK  3 active torsions:
REMARK  status: ('A' for Active; 'I' for Inactive)
REMARK    1  A    between atoms: C_1  and  C_2
REMARK    2  A    between atoms: N_4  and  C_5
REMARK    3  A    between atoms: N_18  and  O_19
REMARK                            x       y       z     vdW  Elec       q    Type
REMARK                         _______ _______ _______ _____ _____    ______ ____
ROOT
ATOM      1  C   UNL     1       4.601   6.998  16.134  0.00  0.00    +0.000 C 
ATOM      2  C   UNL     1       3.902   6.702  17.406  0.00  0.00    +0.000 A 
ATOM      3  N   UNL     1       4.014   5.499  17.983  0.00  0.00    +0.000 NA
ATOM      4  N   UNL     1       3.187   5.555  19.072  0.00  0.00    +0.000 N 
ATOM      5  C   UNL     1       2.621   6.813  19.225  0.00  0.00    +0.000 A 
ATOM      6  N   UNL     1       1.795   7.258  20.215  0.00  0.00    +0.000 NA
ATOM      7  C   UNL     1       1.490   8.549  20.026  0.00  0.00    +0.000 A 
ATOM      8  C   UNL     1       1.941   9.314  18.958  0.00  0.00    +0.000 A 
ATOM      9  N   UNL     1       2.736   8.883  17.959  0.00  0.00    +0.000 NA
ATOM     10  C   UNL     1       3.079   7.572  18.145  0.00  0.00    +0.000 A 
ATOM     11  C   UNL     1       1.421  10.685  19.163  0.00  0.00    +0.000 C 
ATOM     12  N   UNL     1       1.562  11.772  18.472  0.00  0.00    +0.000 NA
ATOM     13  C   UNL     1       0.633  10.644  20.419  0.00  0.00    +0.000 A 
ATOM     14  C   UNL     1      -0.054  11.656  21.062  0.00  0.00    +0.000 A 
ATOM     15  C   UNL     1      -0.704  11.332  22.254  0.00  0.00    +0.000 A 
ATOM     16  C   UNL     1      -0.649  10.025  22.774  0.00  0.00    +0.000 A 
ATOM     17  C   UNL     1       0.056   9.015  22.108  0.00  0.00    +0.000 A 
ATOM     18  C   UNL     1       0.695   9.339  20.924  0.00  0.00    +0.000 A 
ENDROOT
BRANCH   4  19
ATOM     19  C   UNL     1       2.981   4.403  19.882  0.00  0.00    +0.000 A 
ATOM     20  C   UNL     1       1.905   4.367  20.780  0.00  0.00    +0.000 A 
ATOM     21  C   UNL     1       1.716   3.248  21.597  0.00  0.00    +0.000 A 
ATOM     22  C   UNL     1       2.596   2.170  21.525  0.00  0.00    +0.000 A 
ATOM     23  C   UNL     1       3.662   2.196  20.636  0.00  0.00    +0.000 A 
ATOM     24  C   UNL     1       3.850   3.305  19.813  0.00  0.00    +0.000 A 
ENDBRANCH   4  19
BRANCH  12  25
ATOM     25  O   UNL     1       2.352  11.556  17.343  0.00  0.00    +0.000 OA
ATOM     26  H   UNL     1       2.215  10.611  17.164  0.00  0.00    +0.000 HD
ENDBRANCH  12  25
TORSDOF 2
ENDMDL
MODEL 3
REMARK VINA RESULT:      -7.4      2.151      4.282
REMARK  Name = 
REMARK  3 active torsions:
REMARK  status: ('A' for Active; 'I' for Inactive)
REMARK    1  A    between atoms: C_1  and  C_2
REMARK    2  A    between atoms: N_4  and  C_5
REMARK    3  A    between atoms: N_18  and  O_19
REMARK                            x       y       z     vdW  Elec       q    Type
REMARK                         _______ _______ _______ _____ _____    ______ ____
ROOT
ATOM      1  C   UNL     1       1.839   3.817  21.481  0.00  0.00    +0.000 C 
ATOM      2  C   UNL     1       2.216   4.770  20.412  0.00  0.00    +0.000 A 
ATOM      3  N   UNL     1       2.944   4.367  19.363  0.00  0.00    +0.000 NA
ATOM      4  N   UNL     1       3.171   5.504  18.636  0.00  0.00    +0.000 N 
ATOM      5  C   UNL     1       2.520   6.601  19.181  0.00  0.00    +0.000 A 
ATOM      6  N   UNL     1       2.468   7.879  18.707  0.00  0.00    +0.000 NA
ATOM      7  C   UNL     1       1.707   8.644  19.502  0.00  0.00    +0.000 A 
ATOM      8  C   UNL     1       1.077   8.193  20.655  0.00  0.00    +0.000 A 
ATOM      9  N   UNL     1       1.138   6.941  21.150  0.00  0.00    +0.000 NA
ATOM     10  C   UNL     1       1.892   6.138  20.340  0.00  0.00    +0.000 A 
ATOM     11  C   UNL     1       0.301   9.334  21.192  0.00  0.00    +0.000 C 
ATOM     12  N   UNL     1      -0.467   9.440  22.230  0.00  0.00    +0.000 NA
ATOM     13  C   UNL     1       0.541  10.469  20.269  0.00  0.00    +0.000 A 
ATOM     14  C   UNL     1       0.047  11.758  20.310  0.00  0.00    +0.000 A 
ATOM     15  C   UNL     1       0.434  12.626  19.287  0.00  0.00    +0.000 A 
ATOM     16  C   UNL     1       1.289  12.190  18.256  0.00  0.00    +0.000 A 
ATOM     17  C   UNL     1       1.776  10.878  18.232  0.00  0.00    +0.000 A 
ATOM     18  C   UNL     1       1.394  10.022  19.251  0.00  0.00    +0.000 A 
ENDROOT
BRANCH   4  19
ATOM     19  C   UNL     1       4.003   5.469  17.482  0.00  0.00    +0.000 A 
ATOM     20  C   UNL     1       4.339   4.238  16.903  0.00  0.00    +0.000 A 
ATOM     21  C   UNL     1       5.179   4.198  15.786  0.00  0.00    +0.000 A 
ATOM     22  C   UNL     1       5.688   5.378  15.249  0.00  0.00    +0.000 A 
ATOM     23  C   UNL     1       5.357   6.603  15.814  0.00  0.00    +0.000 A 
ATOM     24  C   UNL     1       4.513   6.649  16.922  0.00  0.00    +0.000 A 
ENDBRANCH   4  19
BRANCH  12  25
ATOM     25  O   UNL     1      -0.541   8.236  22.932  0.00  0.00    +0.000 OA
ATOM     26  H   UNL     1      -1.490   8.161  23.127  0.00  0.00    +0.000 HD
ENDBRANCH  12  25
TORSDOF 2
ENDMDL
MODEL 4
REMARK VINA RESULT:      -7.3      2.441      4.507
REMARK  Name = 
REMARK  3 active torsions:
REMARK  status: ('A' for Active; 'I' for Inactive)
REMARK    1  A    between atoms: C_1  and  C_2
REMARK    2  A    between atoms: N_4  and  C_5
REMARK    3  A    between atoms: N_18  and  O_19
REMARK                            x       y       z     vdW  Elec       q    Type
REMARK                         _______ _______ _______ _____ _____    ______ ____
ROOT
ATOM      1  C   UNL     1       1.823   3.305  21.601  0.00  0.00    +0.000 C 
ATOM      2  C   UNL     1       2.390   4.181  20.551  0.00  0.00    +0.000 A 
ATOM      3  N   UNL     1       3.257   3.697  19.653  0.00  0.00    +0.000 NA
ATOM      4  N   UNL     1       3.629   4.782  18.905  0.00  0.00    +0.000 N 
ATOM      5  C   UNL     1       2.938   5.926  19.279  0.00  0.00    +0.000 A 
ATOM      6  N   UNL     1       3.001   7.173  18.731  0.00  0.00    +0.000 NA
ATOM      7  C   UNL     1       2.152   8.002  19.353  0.00  0.00    +0.000 A 
ATOM      8  C   UNL     1       1.338   7.638  20.418  0.00  0.00    +0.000 A 
ATOM      9  N   UNL     1       1.282   6.417  20.987  0.00  0.00    +0.000 NA
ATOM     10  C   UNL     1       2.125   5.549  20.351  0.00  0.00    +0.000 A 
ATOM     11  C   UNL     1       0.526   8.827  20.762  0.00  0.00    +0.000 C 
ATOM     12  N   UNL     1      -0.389   9.014  21.660  0.00  0.00    +0.000 NA
ATOM     13  C   UNL     1       0.941   9.897  19.823  0.00  0.00    +0.000 A 
ATOM     14  C   UNL     1       0.488  11.197  19.713  0.00  0.00    +0.000 A 
ATOM     15  C   UNL     1       1.055  11.991  18.715  0.00  0.00    +0.000 A 
ATOM     16  C   UNL     1       2.044  11.474  17.856  0.00  0.00    +0.000 A 
ATOM     17  C   UNL     1       2.486  10.151  17.983  0.00  0.00    +0.000 A 
ATOM     18  C   UNL     1       1.925   9.369  18.977  0.00  0.00    +0.000 A 
ENDROOT
BRANCH   4  19
ATOM     19  C   UNL     1       4.627   4.657  17.899  0.00  0.00    +0.000 A 
ATOM     20  C   UNL     1       5.967   4.920  18.211  0.00  0.00    +0.000 A 
ATOM     21  C   UNL     1       6.947   4.825  17.218  0.00  0.00    +0.000 A 
ATOM     22  C   UNL     1       6.595   4.475  15.917  0.00  0.00    +0.000 A 
ATOM     23  C   UNL     1       5.270   4.209  15.599  0.00  0.00    +0.000 A 
ATOM     24  C   UNL     1       4.290   4.293  16.587  0.00  0.00    +0.000 A 
ENDBRANCH   4  19
BRANCH  12  25
ATOM     25  O   UNL     1      -0.608   7.858  22.410  0.00  0.00    +0.000 OA
ATOM     26  H   UNL     1      -1.571   7.741  22.344  0.00  0.00    +0.000 HD
ENDBRANCH  12  25
TORSDOF 2
ENDMDL
MODEL 5
REMARK VINA RESULT:      -7.3      5.472      8.386
REMARK  Name = 
REMARK  3 active torsions:
REMARK  status: ('A' for Active; 'I' for Inactive)
REMARK    1  A    between atoms: C_1  and  C_2
REMARK    2  A    between atoms: N_4  and  C_5
REMARK    3  A    between atoms: N_18  and  O_19
REMARK                            x       y       z     vdW  Elec       q    Type
REMARK                         _______ _______ _______ _____ _____    ______ ____
ROOT
ATOM      1  C   UNL     1       7.981   6.627  18.929  0.00  0.00    +0.000 C 
ATOM      2  C   UNL     1       6.873   5.851  18.326  0.00  0.00    +0.000 A 
ATOM      3  N   UNL     1       5.817   5.483  19.062  0.00  0.00    +0.000 NA
ATOM      4  N   UNL     1       5.049   4.727  18.218  0.00  0.00    +0.000 N 
ATOM      5  C   UNL     1       5.578   4.687  16.937  0.00  0.00    +0.000 A 
ATOM      6  N   UNL     1       5.067   4.084  15.825  0.00  0.00    +0.000 NA
ATOM      7  C   UNL     1       5.860   4.302  14.767  0.00  0.00    +0.000 A 
ATOM      8  C   UNL     1       7.043   5.028  14.809  0.00  0.00    +0.000 A 
ATOM      9  N   UNL     1       7.574   5.609  15.903  0.00  0.00    +0.000 NA
ATOM     10  C   UNL     1       6.768   5.417  16.991  0.00  0.00    +0.000 A 
ATOM     11  C   UNL     1       7.567   5.073  13.425  0.00  0.00    +0.000 C 
ATOM     12  N   UNL     1       8.622   5.631  12.921  0.00  0.00    +0.000 NA
ATOM     13  C   UNL     1       6.602   4.314  12.593  0.00  0.00    +0.000 A 
ATOM     14  C   UNL     1       6.618   4.061  11.235  0.00  0.00    +0.000 A 
ATOM     15  C   UNL     1       5.558   3.320  10.709  0.00  0.00    +0.000 A 
ATOM     16  C   UNL     1       4.518   2.860  11.538  0.00  0.00    +0.000 A 
ATOM     17  C   UNL     1       4.520   3.130  12.912  0.00  0.00    +0.000 A 
ATOM     18  C   UNL     1       5.575   3.861  13.430  0.00  0.00    +0.000 A 
ENDROOT
BRANCH   4  19
ATOM     19  C   UNL     1       3.874   4.082  18.696  0.00  0.00    +0.000 A 
ATOM     20  C   UNL     1       2.620   4.469  18.206  0.00  0.00    +0.000 A 
ATOM     21  C   UNL     1       1.461   3.856  18.693  0.00  0.00    +0.000 A 
ATOM     22  C   UNL     1       1.548   2.865  19.668  0.00  0.00    +0.000 A 
ATOM     23  C   UNL     1       2.787   2.473  20.157  0.00  0.00    +0.000 A 
ATOM     24  C   UNL     1       3.946   3.074  19.668  0.00  0.00    +0.000 A 
ENDBRANCH   4  19
BRANCH  12  25
ATOM     25  O   UNL     1       9.363   6.293  13.901  0.00  0.00    +0.000 OA
ATOM     26  H   UNL     1       9.740   5.559  14.415  0.00  0.00    +0.000 HD
ENDBRANCH  12  25
TORSDOF 2
ENDMDL
MODEL 6
REMARK VINA RESULT:      -6.9      3.695      8.965
REMARK  Name = 
REMARK  3 active torsions:
REMARK  status: ('A' for Active; 'I' for Inactive)
REMARK    1  A    between atoms: C_1  and  C_2
REMARK    2  A    between atoms: N_4  and  C_5
REMARK    3  A    between atoms: N_18  and  O_19
REMARK                            x       y       z     vdW  Elec       q    Type
REMARK                         _______ _______ _______ _____ _____    ______ ____
ROOT
ATOM      1  C   UNL     1      -1.333  14.806  23.999  0.00  0.00    +0.000 C 
ATOM      2  C   UNL     1      -0.740  14.657  22.651  0.00  0.00    +0.000 A 
ATOM      3  N   UNL     1      -0.526  15.728  21.876  0.00  0.00    +0.000 NA
ATOM      4  N   UNL     1      -0.057  15.218  20.695  0.00  0.00    +0.000 N 
ATOM      5  C   UNL     1       0.100  13.841  20.755  0.00  0.00    +0.000 A 
ATOM      6  N   UNL     1       0.591  13.000  19.801  0.00  0.00    +0.000 NA
ATOM      7  C   UNL     1       0.615  11.739  20.254  0.00  0.00    +0.000 A 
ATOM      8  C   UNL     1       0.181  11.350  21.514  0.00  0.00    +0.000 A 
ATOM      9  N   UNL     1      -0.330  12.164  22.459  0.00  0.00    +0.000 NA
ATOM     10  C   UNL     1      -0.341  13.460  22.025  0.00  0.00    +0.000 A 
ATOM     11  C   UNL     1       0.434   9.895  21.624  0.00  0.00    +0.000 C 
ATOM     12  N   UNL     1       0.229   9.056  22.589  0.00  0.00    +0.000 NA
ATOM     13  C   UNL     1       1.034   9.481  20.332  0.00  0.00    +0.000 A 
ATOM     14  C   UNL     1       1.462   8.235  19.919  0.00  0.00    +0.000 A 
ATOM     15  C   UNL     1       2.008   8.138  18.638  0.00  0.00    +0.000 A 
ATOM     16  C   UNL     1       2.119   9.273  17.812  0.00  0.00    +0.000 A 
ATOM     17  C   UNL     1       1.682  10.528  18.253  0.00  0.00    +0.000 A 
ATOM     18  C   UNL     1       1.136  10.619  19.522  0.00  0.00    +0.000 A 
ENDROOT
BRANCH   4  19
ATOM     19  C   UNL     1       0.194  16.076  19.588  0.00  0.00    +0.000 A 
ATOM     20  C   UNL     1       1.514  16.358  19.211  0.00  0.00    +0.000 A 
ATOM     21  C   UNL     1       1.764  17.222  18.140  0.00  0.00    +0.000 A 
ATOM     22  C   UNL     1       0.706  17.808  17.450  0.00  0.00    +0.000 A 
ATOM     23  C   UNL     1      -0.605  17.531  17.814  0.00  0.00    +0.000 A 
ATOM     24  C   UNL     1      -0.861  16.663  18.874  0.00  0.00    +0.000 A 
ENDBRANCH   4  19
BRANCH  12  25
ATOM     25  O   UNL     1      -0.334   9.686  23.699  0.00  0.00    +0.000 OA
ATOM     26  H   UNL     1       0.042  10.582  23.649  0.00  0.00    +0.000 HD
ENDBRANCH  12  25
TORSDOF 2
ENDMDL
MODEL 7
REMARK VINA RESULT:      -6.9      4.408      6.942
REMARK  Name = 
REMARK  3 active torsions:
REMARK  status: ('A' for Active; 'I' for Inactive)
REMARK    1  A    between atoms: C_1  and  C_2
REMARK    2  A    between atoms: N_4  and  C_5
REMARK    3  A    between atoms: N_18  and  O_19
REMARK                            x       y       z     vdW  Elec       q    Type
REMARK                         _______ _______ _______ _____ _____    ______ ____
ROOT
ATOM      1  C   UNL     1       1.022   9.559  21.550  0.00  0.00    +0.000 C 
ATOM      2  C   UNL     1       0.297  10.452  20.617  0.00  0.00    +0.000 A 
ATOM      3  N   UNL     1      -0.714   9.988  19.873  0.00  0.00    +0.000 NA
ATOM      4  N   UNL     1      -1.084  11.045  19.086  0.00  0.00    +0.000 N 
ATOM      5  C   UNL     1      -0.364  12.191  19.391  0.00  0.00    +0.000 A 
ATOM      6  N   UNL     1      -0.491  13.441  18.860  0.00  0.00    +0.000 NA
ATOM      7  C   UNL     1       0.368  14.288  19.444  0.00  0.00    +0.000 A 
ATOM      8  C   UNL     1       1.270  13.931  20.437  0.00  0.00    +0.000 A 
ATOM      9  N   UNL     1       1.425  12.696  20.955  0.00  0.00    +0.000 NA
ATOM     10  C   UNL     1       0.541  11.820  20.389  0.00  0.00    +0.000 A 
ATOM     11  C   UNL     1       1.977  15.168  20.838  0.00  0.00    +0.000 C 
ATOM     12  N   UNL     1       2.896  15.385  21.726  0.00  0.00    +0.000 NA
ATOM     13  C   UNL     1       1.421  16.254  19.995  0.00  0.00    +0.000 A 
ATOM     14  C   UNL     1       1.731  17.600  19.975  0.00  0.00    +0.000 A 
ATOM     15  C   UNL     1       1.029  18.405  19.076  0.00  0.00    +0.000 A 
ATOM     16  C   UNL     1       0.044  17.857  18.233  0.00  0.00    +0.000 A 
ATOM     17  C   UNL     1      -0.257  16.490  18.273  0.00  0.00    +0.000 A 
ATOM     18  C   UNL     1       0.445  15.694  19.162  0.00  0.00    +0.000 A 
ENDROOT
BRANCH   4  19
ATOM     19  C   UNL     1      -2.086  10.886  18.089  0.00  0.00    +0.000 A 
ATOM     20  C   UNL     1      -1.818  10.117  16.948  0.00  0.00    +0.000 A 
ATOM     21  C   UNL     1      -2.791   9.981  15.953  0.00  0.00    +0.000 A 
ATOM     22  C   UNL     1      -4.025  10.612  16.088  0.00  0.00    +0.000 A 
ATOM     23  C   UNL     1      -4.301  11.373  17.217  0.00  0.00    +0.000 A 
ATOM     24  C   UNL     1      -3.339  11.505  18.216  0.00  0.00    +0.000 A 
ENDBRANCH   4  19
BRANCH  12  25
ATOM     25  O   UNL     1       3.245  14.211  22.394  0.00  0.00    +0.000 OA
ATOM     26  H   UNL     1       3.122  14.452  23.327  0.00  0.00    +0.000 HD
ENDBRANCH  12  25
TORSDOF 2
ENDMDL
MODEL 8
REMARK VINA RESULT:      -6.7      3.583      6.000
REMARK  Name = 
REMARK  3 active torsions:
REMARK  status: ('A' for Active; 'I' for Inactive)
REMARK    1  A    between atoms: C_1  and  C_2
REMARK    2  A    between atoms: N_4  and  C_5
REMARK    3  A    between atoms: N_18  and  O_19
REMARK                            x       y       z     vdW  Elec       q    Type
REMARK                         _______ _______ _______ _____ _____    ______ ____
ROOT
ATOM      1  C   UNL     1      -3.107  11.876  19.076  0.00  0.00    +0.000 C 
ATOM      2  C   UNL     1      -1.650  11.625  18.985  0.00  0.00    +0.000 A 
ATOM      3  N   UNL     1      -1.174  10.375  18.942  0.00  0.00    +0.000 NA
ATOM      4  N   UNL     1       0.188  10.519  18.945  0.00  0.00    +0.000 N 
ATOM      5  C   UNL     1       0.564  11.853  18.908  0.00  0.00    +0.000 A 
ATOM      6  N   UNL     1       1.821  12.380  18.846  0.00  0.00    +0.000 NA
ATOM      7  C   UNL     1       1.767  13.717  18.792  0.00  0.00    +0.000 A 
ATOM      8  C   UNL     1       0.592  14.457  18.814  0.00  0.00    +0.000 A 
ATOM      9  N   UNL     1      -0.655  13.954  18.900  0.00  0.00    +0.000 NA
ATOM     10  C   UNL     1      -0.624  12.587  18.933  0.00  0.00    +0.000 A 
ATOM     11  C   UNL     1       0.979  15.880  18.677  0.00  0.00    +0.000 C 
ATOM     12  N   UNL     1       0.271  16.963  18.627  0.00  0.00    +0.000 NA
ATOM     13  C   UNL     1       2.459  15.899  18.586  0.00  0.00    +0.000 A 
ATOM     14  C   UNL     1       3.319  16.969  18.441  0.00  0.00    +0.000 A 
ATOM     15  C   UNL     1       4.685  16.689  18.367  0.00  0.00    +0.000 A 
ATOM     16  C   UNL     1       5.154  15.363  18.432  0.00  0.00    +0.000 A 
ATOM     17  C   UNL     1       4.264  14.292  18.576  0.00  0.00    +0.000 A 
ATOM     18  C   UNL     1       2.911  14.575  18.654  0.00  0.00    +0.000 A 
ENDROOT
BRANCH   4  19
ATOM     19  C   UNL     1       1.034   9.376  18.999  0.00  0.00    +0.000 A 
ATOM     20  C   UNL     1       1.741   8.979  17.856  0.00  0.00    +0.000 A 
ATOM     21  C   UNL     1       2.552   7.840  17.898  0.00  0.00    +0.000 A 
ATOM     22  C   UNL     1       2.656   7.096  19.071  0.00  0.00    +0.000 A 
ATOM     23  C   UNL     1       1.962   7.484  20.209  0.00  0.00    +0.000 A 
ATOM     24  C   UNL     1       1.159   8.623  20.176  0.00  0.00    +0.000 A 
ENDBRANCH   4  19
BRANCH  12  25
ATOM     25  O   UNL     1      -1.093  16.684  18.723  0.00  0.00    +0.000 OA
ATOM     26  H   UNL     1      -1.115  15.713  18.678  0.00  0.00    +0.000 HD
ENDBRANCH  12  25
TORSDOF 2
ENDMDL
MODEL 9
REMARK VINA RESULT:      -6.6      2.547      7.455
REMARK  Name = 
REMARK  3 active torsions:
REMARK  status: ('A' for Active; 'I' for Inactive)
REMARK    1  A    between atoms: C_1  and  C_2
REMARK    2  A    between atoms: N_4  and  C_5
REMARK    3  A    between atoms: N_18  and  O_19
REMARK                            x       y       z     vdW  Elec       q    Type
REMARK                         _______ _______ _______ _____ _____    ______ ____
ROOT
ATOM      1  C   UNL     1      -0.520   8.653  22.953  0.00  0.00    +0.000 C 
ATOM      2  C   UNL     1       0.177   9.104  21.727  0.00  0.00    +0.000 A 
ATOM      3  N   UNL     1       0.096  10.378  21.324  0.00  0.00    +0.000 NA
ATOM      4  N   UNL     1       0.778  10.414  20.138  0.00  0.00    +0.000 N 
ATOM      5  C   UNL     1       1.354   9.188  19.838  0.00  0.00    +0.000 A 
ATOM      6  N   UNL     1       2.146   8.858  18.777  0.00  0.00    +0.000 NA
ATOM      7  C   UNL     1       2.533   7.579  18.861  0.00  0.00    +0.000 A 
ATOM      8  C   UNL     1       2.161   6.711  19.879  0.00  0.00    +0.000 A 
ATOM      9  N   UNL     1       1.360   7.013  20.920  0.00  0.00    +0.000 NA
ATOM     10  C   UNL     1       0.971   8.323  20.866  0.00  0.00    +0.000 A 
ATOM     11  C   UNL     1       2.849   5.426  19.620  0.00  0.00    +0.000 C 
ATOM     12  N   UNL     1       2.853   4.305  20.270  0.00  0.00    +0.000 NA
ATOM     13  C   UNL     1       3.633   5.620  18.376  0.00  0.00    +0.000 A 
ATOM     14  C   UNL     1       4.455   4.736  17.706  0.00  0.00    +0.000 A 
ATOM     15  C   UNL     1       5.088   5.200  16.551  0.00  0.00    +0.000 A 
ATOM     16  C   UNL     1       4.892   6.519  16.100  0.00  0.00    +0.000 A 
ATOM     17  C   UNL     1       4.056   7.400  16.797  0.00  0.00    +0.000 A 
ATOM     18  C   UNL     1       3.426   6.935  17.939  0.00  0.00    +0.000 A 
ENDROOT
BRANCH   4  19
ATOM     19  C   UNL     1       0.820  11.608  19.366  0.00  0.00    +0.000 A 
ATOM     20  C   UNL     1       2.057  12.157  18.999  0.00  0.00    +0.000 A 
ATOM     21  C   UNL     1       2.103  13.346  18.263  0.00  0.00    +0.000 A 
ATOM     22  C   UNL     1       0.923  13.990  17.898  0.00  0.00    +0.000 A 
ATOM     23  C   UNL     1      -0.307  13.452  18.254  0.00  0.00    +0.000 A 
ATOM     24  C   UNL     1      -0.358  12.262  18.979  0.00  0.00    +0.000 A 
ENDBRANCH   4  19
BRANCH  12  25
ATOM     25  O   UNL     1       2.050   4.375  21.408  0.00  0.00    +0.000 OA
ATOM     26  H   UNL     1       1.152   4.348  21.037  0.00  0.00    +0.000 HD
ENDBRANCH  12  25
TORSDOF 2
ENDMDL
