MODEL 1
REMARK VINA RESULT:      -5.8      0.000      0.000
REMARK  Name = 
REMARK  16 active torsions:
REMARK  status: ('A' for Active; 'I' for Inactive)
REMARK    1  A    between atoms: C_1  and  C_2
REMARK    2  A    between atoms: C_2  and  C_3
REMARK    3  A    between atoms: C_3  and  C_4
REMARK    4  A    between atoms: C_4  and  C_5
REMARK    5  A    between atoms: C_5  and  C_6
REMARK    6  A    between atoms: C_6  and  C_7
REMARK    7  A    between atoms: C_7  and  C_8
REMARK    8  A    between atoms: C_8  and  C_9
REMARK    9  A    between atoms: C_9  and  C_10
REMARK   10  A    between atoms: C_10  and  C_11
REMARK   11  A    between atoms: C_11  and  C_12
REMARK   12  A    between atoms: C_12  and  C_13
REMARK   13  A    between atoms: C_13  and  C_14
REMARK   14  A    between atoms: C_14  and  C_15
REMARK   15  A    between atoms: C_15  and  C_16
REMARK   16  A    between atoms: N_18  and  C_19
REMARK                            x       y       z     vdW  Elec       q    Type
REMARK                         _______ _______ _______ _____ _____    ______ ____
ROOT
ATOM      1  C   UNL     1       4.656   5.389  19.434  0.00  0.00    +0.000 C 
ENDROOT
BRANCH   1   2
ATOM      2  C   UNL     1       3.314   5.852  18.897  0.00  0.00    +0.000 C 
BRANCH   2   3
ATOM      3  C   UNL     1       2.586   6.657  19.957  0.00  0.00    +0.000 C 
BRANCH   3   4
ATOM      4  C   UNL     1       1.525   5.799  20.621  0.00  0.00    +0.000 C 
BRANCH   4   5
ATOM      5  C   UNL     1       1.479   4.433  19.962  0.00  0.00    +0.000 C 
BRANCH   5   6
ATOM      6  C   UNL     1       1.186   3.368  21.003  0.00  0.00    +0.000 C 
BRANCH   6   7
ATOM      7  C   UNL     1       2.485   2.828  21.573  0.00  0.00    +0.000 C 
BRANCH   7   8
ATOM      8  C   UNL     1       3.447   2.489  20.447  0.00  0.00    +0.000 C 
BRANCH   8   9
ATOM      9  C   UNL     1       2.740   1.649  19.397  0.00  0.00    +0.000 C 
BRANCH   9  11
ATOM     10  C   UNL     1       2.492   2.558  17.090  0.00  0.00    +0.000 C 
ATOM     11  C   UNL     1       3.411   1.821  18.044  0.00  0.00    +0.000 C 
ENDBRANCH   9  11
ENDBRANCH   8   9
ENDBRANCH   7   8
ENDBRANCH   6   7
ENDBRANCH   5   6
ENDBRANCH   4   5
ENDBRANCH   3   4
ENDBRANCH   2   3
ENDBRANCH   1   2
BRANCH   1  12
ATOM     12  C   UNL     1       5.673   5.320  18.312  0.00  0.00    +0.000 C 
BRANCH  12  13
ATOM     13  C   UNL     1       4.958   5.245  16.970  0.00  0.00    +0.000 C 
BRANCH  13  14
ATOM     14  C   UNL     1       5.617   4.201  16.086  0.00  0.00    +0.000 C 
BRANCH  14  15
ATOM     15  C   UNL     1       6.944   4.696  15.535  0.00  0.00    +0.000 C 
BRANCH  15  16
ATOM     16  C   UNL     1       6.923   4.578  14.025  0.00  0.00    +0.000 C 
ATOM     17  O   UNL     1       7.593   5.324  13.331  0.00  0.00    +0.000 OA
ATOM     18  N   UNL     1       6.055   3.630  13.515  0.00  0.00    +0.000 N 
ATOM     19  H   UNL     1       5.595   2.987  14.148  0.00  0.00    +0.000 HD
BRANCH  18  20
ATOM     20  C   UNL     1       5.915   3.432  12.100  0.00  0.00    +0.000 C 
ATOM     21  C   UNL     1       5.542   2.085  11.541  0.00  0.00    +0.000 C 
ATOM     22  C   UNL     1       4.554   3.215  11.485  0.00  0.00    +0.000 C 
ENDBRANCH  18  20
ENDBRANCH  15  16
ENDBRANCH  14  15
ENDBRANCH  13  14
ENDBRANCH  12  13
ENDBRANCH   1  12
TORSDOF 15
ENDMDL
MODEL 2
REMARK VINA RESULT:      -5.6      1.696      2.360
REMARK  Name = 
REMARK  16 active torsions:
REMARK  status: ('A' for Active; 'I' for Inactive)
REMARK    1  A    between atoms: C_1  and  C_2
REMARK    2  A    between atoms: C_2  and  C_3
REMARK    3  A    between atoms: C_3  and  C_4
REMARK    4  A    between atoms: C_4  and  C_5
REMARK    5  A    between atoms: C_5  and  C_6
REMARK    6  A    between atoms: C_6  and  C_7
REMARK    7  A    between atoms: C_7  and  C_8
REMARK    8  A    between atoms: C_8  and  C_9
REMARK    9  A    between atoms: C_9  and  C_10
REMARK   10  A    between atoms: C_10  and  C_11
REMARK   11  A    between atoms: C_11  and  C_12
REMARK   12  A    between atoms: C_12  and  C_13
REMARK   13  A    between atoms: C_13  and  C_14
REMARK   14  A    between atoms: C_14  and  C_15
REMARK   15  A    between atoms: C_15  and  C_16
REMARK   16  A    between atoms: N_18  and  C_19
REMARK                            x       y       z     vdW  Elec       q    Type
REMARK                         _______ _______ _______ _____ _____    ______ ____
ROOT
ATOM      1  C   UNL     1       2.510   7.340  19.214  0.00  0.00    +0.000 C 
ENDROOT
BRANCH   1   2
ATOM      2  C   UNL     1       2.632   5.857  19.515  0.00  0.00    +0.000 C 
BRANCH   2   3
ATOM      3  C   UNL     1       1.719   5.491  20.672  0.00  0.00    +0.000 C 
BRANCH   3   4
ATOM      4  C   UNL     1       0.818   4.337  20.274  0.00  0.00    +0.000 C 
BRANCH   4   5
ATOM      5  C   UNL     1       1.166   3.104  21.090  0.00  0.00    +0.000 C 
BRANCH   5   6
ATOM      6  C   UNL     1       2.586   3.214  21.612  0.00  0.00    +0.000 C 
BRANCH   6   7
ATOM      7  C   UNL     1       3.465   2.168  20.951  0.00  0.00    +0.000 C 
BRANCH   7   8
ATOM      8  C   UNL     1       4.244   2.792  19.806  0.00  0.00    +0.000 C 
BRANCH   8   9
ATOM      9  C   UNL     1       4.038   1.983  18.536  0.00  0.00    +0.000 C 
BRANCH   9  11
ATOM     10  C   UNL     1       2.463   3.247  17.077  0.00  0.00    +0.000 C 
ATOM     11  C   UNL     1       2.599   2.103  18.062  0.00  0.00    +0.000 C 
ENDBRANCH   9  11
ENDBRANCH   8   9
ENDBRANCH   7   8
ENDBRANCH   6   7
ENDBRANCH   5   6
ENDBRANCH   4   5
ENDBRANCH   3   4
ENDBRANCH   2   3
ENDBRANCH   1   2
BRANCH   1  12
ATOM     12  C   UNL     1       3.130   7.652  17.867  0.00  0.00    +0.000 C 
BRANCH  12  13
ATOM     13  C   UNL     1       4.081   6.534  17.463  0.00  0.00    +0.000 C 
BRANCH  13  14
ATOM     14  C   UNL     1       5.408   7.116  17.010  0.00  0.00    +0.000 C 
BRANCH  14  15
ATOM     15  C   UNL     1       6.580   6.415  17.675  0.00  0.00    +0.000 C 
BRANCH  15  16
ATOM     16  C   UNL     1       7.100   5.338  16.744  0.00  0.00    +0.000 C 
ATOM     17  O   UNL     1       7.853   4.470  17.152  0.00  0.00    +0.000 OA
ATOM     18  N   UNL     1       6.715   5.461  15.421  0.00  0.00    +0.000 N 
ATOM     19  H   UNL     1       6.020   6.152  15.168  0.00  0.00    +0.000 HD
BRANCH  18  20
ATOM     20  C   UNL     1       7.159   4.525  14.427  0.00  0.00    +0.000 C 
ATOM     21  C   UNL     1       6.183   3.895  13.469  0.00  0.00    +0.000 C 
ATOM     22  C   UNL     1       7.174   4.904  12.966  0.00  0.00    +0.000 C 
ENDBRANCH  18  20
ENDBRANCH  15  16
ENDBRANCH  14  15
ENDBRANCH  13  14
ENDBRANCH  12  13
ENDBRANCH   1  12
TORSDOF 15
ENDMDL
MODEL 3
REMARK VINA RESULT:      -5.6      2.955      5.599
REMARK  Name = 
REMARK  16 active torsions:
REMARK  status: ('A' for Active; 'I' for Inactive)
REMARK    1  A    between atoms: C_1  and  C_2
REMARK    2  A    between atoms: C_2  and  C_3
REMARK    3  A    between atoms: C_3  and  C_4
REMARK    4  A    between atoms: C_4  and  C_5
REMARK    5  A    between atoms: C_5  and  C_6
REMARK    6  A    between atoms: C_6  and  C_7
REMARK    7  A    between atoms: C_7  and  C_8
REMARK    8  A    between atoms: C_8  and  C_9
REMARK    9  A    between atoms: C_9  and  C_10
REMARK   10  A    between atoms: C_10  and  C_11
REMARK   11  A    between atoms: C_11  and  C_12
REMARK   12  A    between atoms: C_12  and  C_13
REMARK   13  A    between atoms: C_13  and  C_14
REMARK   14  A    between atoms: C_14  and  C_15
REMARK   15  A    between atoms: C_15  and  C_16
REMARK   16  A    between atoms: N_18  and  C_19
REMARK                            x       y       z     vdW  Elec       q    Type
REMARK                         _______ _______ _______ _____ _____    ______ ____
ROOT
ATOM      1  C   UNL     1       1.001   2.812  20.258  0.00  0.00    +0.000 C 
ENDROOT
BRANCH   1   2
ATOM      2  C   UNL     1       1.959   3.362  21.300  0.00  0.00    +0.000 C 
BRANCH   2   3
ATOM      3  C   UNL     1       2.610   4.631  20.780  0.00  0.00    +0.000 C 
BRANCH   3   4
ATOM      4  C   UNL     1       1.669   5.807  20.965  0.00  0.00    +0.000 C 
BRANCH   4   5
ATOM      5  C   UNL     1       1.711   6.701  19.739  0.00  0.00    +0.000 C 
BRANCH   5   6
ATOM      6  C   UNL     1       3.135   6.809  19.227  0.00  0.00    +0.000 C 
BRANCH   6   7
ATOM      7  C   UNL     1       3.147   7.479  17.865  0.00  0.00    +0.000 C 
BRANCH   7   8
ATOM      8  C   UNL     1       1.943   8.396  17.725  0.00  0.00    +0.000 C 
BRANCH   8   9
ATOM      9  C   UNL     1       2.368   9.842  17.909  0.00  0.00    +0.000 C 
BRANCH   9  11
ATOM     10  C   UNL     1      -0.014   9.841  18.637  0.00  0.00    +0.000 C 
ATOM     11  C   UNL     1       1.284  10.623  18.633  0.00  0.00    +0.000 C 
ENDBRANCH   9  11
ENDBRANCH   8   9
ENDBRANCH   7   8
ENDBRANCH   6   7
ENDBRANCH   5   6
ENDBRANCH   4   5
ENDBRANCH   3   4
ENDBRANCH   2   3
ENDBRANCH   1   2
BRANCH   1  12
ATOM     12  C   UNL     1       1.766   2.375  19.024  0.00  0.00    +0.000 C 
BRANCH  12  13
ATOM     13  C   UNL     1       1.418   3.282  17.852  0.00  0.00    +0.000 C 
BRANCH  13  14
ATOM     14  C   UNL     1       2.686   3.834  17.226  0.00  0.00    +0.000 C 
BRANCH  14  15
ATOM     15  C   UNL     1       3.918   3.094  17.718  0.00  0.00    +0.000 C 
BRANCH  15  16
ATOM     16  C   UNL     1       5.153   3.871  17.310  0.00  0.00    +0.000 C 
ATOM     17  O   UNL     1       5.389   4.097  16.135  0.00  0.00    +0.000 OA
ATOM     18  N   UNL     1       5.997   4.230  18.345  0.00  0.00    +0.000 N 
ATOM     19  H   UNL     1       5.698   4.088  19.302  0.00  0.00    +0.000 HD
BRANCH  18  20
ATOM     20  C   UNL     1       7.217   4.946  18.097  0.00  0.00    +0.000 C 
ATOM     21  C   UNL     1       7.227   6.449  18.013  0.00  0.00    +0.000 C 
ATOM     22  C   UNL     1       7.863   5.764  19.188  0.00  0.00    +0.000 C 
ENDBRANCH  18  20
ENDBRANCH  15  16
ENDBRANCH  14  15
ENDBRANCH  13  14
ENDBRANCH  12  13
ENDBRANCH   1  12
TORSDOF 15
ENDMDL
MODEL 4
REMARK VINA RESULT:      -5.6      2.924      7.084
REMARK  Name = 
REMARK  16 active torsions:
REMARK  status: ('A' for Active; 'I' for Inactive)
REMARK    1  A    between atoms: C_1  and  C_2
REMARK    2  A    between atoms: C_2  and  C_3
REMARK    3  A    between atoms: C_3  and  C_4
REMARK    4  A    between atoms: C_4  and  C_5
REMARK    5  A    between atoms: C_5  and  C_6
REMARK    6  A    between atoms: C_6  and  C_7
REMARK    7  A    between atoms: C_7  and  C_8
REMARK    8  A    between atoms: C_8  and  C_9
REMARK    9  A    between atoms: C_9  and  C_10
REMARK   10  A    between atoms: C_10  and  C_11
REMARK   11  A    between atoms: C_11  and  C_12
REMARK   12  A    between atoms: C_12  and  C_13
REMARK   13  A    between atoms: C_13  and  C_14
REMARK   14  A    between atoms: C_14  and  C_15
REMARK   15  A    between atoms: C_15  and  C_16
REMARK   16  A    between atoms: N_18  and  C_19
REMARK                            x       y       z     vdW  Elec       q    Type
REMARK                         _______ _______ _______ _____ _____    ______ ____
ROOT
ATOM      1  C   UNL     1       4.304   6.308  16.932  0.00  0.00    +0.000 C 
ENDROOT
BRANCH   1   2
ATOM      2  C   UNL     1       5.646   5.974  17.556  0.00  0.00    +0.000 C 
BRANCH   2   3
ATOM      3  C   UNL     1       5.989   4.519  17.292  0.00  0.00    +0.000 C 
BRANCH   3   4
ATOM      4  C   UNL     1       6.786   4.402  16.007  0.00  0.00    +0.000 C 
BRANCH   4   5
ATOM      5  C   UNL     1       6.028   3.552  15.003  0.00  0.00    +0.000 C 
BRANCH   5   6
ATOM      6  C   UNL     1       5.821   4.333  13.718  0.00  0.00    +0.000 C 
BRANCH   6   7
ATOM      7  C   UNL     1       6.457   3.595  12.554  0.00  0.00    +0.000 C 
BRANCH   7   8
ATOM      8  C   UNL     1       5.409   2.768  11.827  0.00  0.00    +0.000 C 
BRANCH   8   9
ATOM      9  C   UNL     1       4.123   3.565  11.691  0.00  0.00    +0.000 C 
BRANCH   9  11
ATOM     10  C   UNL     1       2.992   4.284   9.591  0.00  0.00    +0.000 C 
ATOM     11  C   UNL     1       3.341   3.102  10.473  0.00  0.00    +0.000 C 
ENDBRANCH   9  11
ENDBRANCH   8   9
ENDBRANCH   7   8
ENDBRANCH   6   7
ENDBRANCH   5   6
ENDBRANCH   4   5
ENDBRANCH   3   4
ENDBRANCH   2   3
ENDBRANCH   1   2
BRANCH   1  12
ATOM     12  C   UNL     1       3.634   7.432  17.699  0.00  0.00    +0.000 C 
BRANCH  12  13
ATOM     13  C   UNL     1       2.393   6.907  18.405  0.00  0.00    +0.000 C 
BRANCH  13  14
ATOM     14  C   UNL     1       2.724   6.547  19.843  0.00  0.00    +0.000 C 
BRANCH  14  15
ATOM     15  C   UNL     1       1.547   5.881  20.536  0.00  0.00    +0.000 C 
BRANCH  15  16
ATOM     16  C   UNL     1       1.611   4.388  20.286  0.00  0.00    +0.000 C 
ATOM     17  O   UNL     1       0.958   3.613  20.964  0.00  0.00    +0.000 OA
ATOM     18  N   UNL     1       2.496   3.988  19.302  0.00  0.00    +0.000 N 
ATOM     19  H   UNL     1       2.940   4.688  18.719  0.00  0.00    +0.000 HD
BRANCH  18  20
ATOM     20  C   UNL     1       2.677   2.600  18.981  0.00  0.00    +0.000 C 
ATOM     21  C   UNL     1       3.427   2.184  17.744  0.00  0.00    +0.000 C 
ATOM     22  C   UNL     1       4.036   1.955  19.098  0.00  0.00    +0.000 C 
ENDBRANCH  18  20
ENDBRANCH  15  16
ENDBRANCH  14  15
ENDBRANCH  13  14
ENDBRANCH  12  13
ENDBRANCH   1  12
TORSDOF 15
ENDMDL
MODEL 5
REMARK VINA RESULT:      -5.5      1.360      3.324
REMARK  Name = 
REMARK  16 active torsions:
REMARK  status: ('A' for Active; 'I' for Inactive)
REMARK    1  A    between atoms: C_1  and  C_2
REMARK    2  A    between atoms: C_2  and  C_3
REMARK    3  A    between atoms: C_3  and  C_4
REMARK    4  A    between atoms: C_4  and  C_5
REMARK    5  A    between atoms: C_5  and  C_6
REMARK    6  A    between atoms: C_6  and  C_7
REMARK    7  A    between atoms: C_7  and  C_8
REMARK    8  A    between atoms: C_8  and  C_9
REMARK    9  A    between atoms: C_9  and  C_10
REMARK   10  A    between atoms: C_10  and  C_11
REMARK   11  A    between atoms: C_11  and  C_12
REMARK   12  A    between atoms: C_12  and  C_13
REMARK   13  A    between atoms: C_13  and  C_14
REMARK   14  A    between atoms: C_14  and  C_15
REMARK   15  A    between atoms: C_15  and  C_16
REMARK   16  A    between atoms: N_18  and  C_19
REMARK                            x       y       z     vdW  Elec       q    Type
REMARK                         _______ _______ _______ _____ _____    ______ ____
ROOT
ATOM      1  C   UNL     1       3.428   2.973  17.311  0.00  0.00    +0.000 C 
ENDROOT
BRANCH   1   2
ATOM      2  C   UNL     1       2.537   2.202  18.268  0.00  0.00    +0.000 C 
BRANCH   2   3
ATOM      3  C   UNL     1       2.863   2.590  19.699  0.00  0.00    +0.000 C 
BRANCH   3   4
ATOM      4  C   UNL     1       1.589   2.649  20.521  0.00  0.00    +0.000 C 
BRANCH   4   5
ATOM      5  C   UNL     1       0.936   4.011  20.366  0.00  0.00    +0.000 C 
BRANCH   5   6
ATOM      6  C   UNL     1       1.948   5.104  20.654  0.00  0.00    +0.000 C 
BRANCH   6   7
ATOM      7  C   UNL     1       1.885   6.167  19.572  0.00  0.00    +0.000 C 
BRANCH   7   8
ATOM      8  C   UNL     1       3.289   6.611  19.197  0.00  0.00    +0.000 C 
BRANCH   8   9
ATOM      9  C   UNL     1       3.242   7.483  17.954  0.00  0.00    +0.000 C 
BRANCH   9  11
ATOM     10  C   UNL     1       1.943   9.609  17.954  0.00  0.00    +0.000 C 
ATOM     11  C   UNL     1       1.864   8.103  17.796  0.00  0.00    +0.000 C 
ENDBRANCH   9  11
ENDBRANCH   8   9
ENDBRANCH   7   8
ENDBRANCH   6   7
ENDBRANCH   5   6
ENDBRANCH   4   5
ENDBRANCH   3   4
ENDBRANCH   2   3
ENDBRANCH   1   2
BRANCH   1  12
ATOM     12  C   UNL     1       4.417   3.821  18.086  0.00  0.00    +0.000 C 
BRANCH  12  13
ATOM     13  C   UNL     1       5.768   3.809  17.385  0.00  0.00    +0.000 C 
BRANCH  13  14
ATOM     14  C   UNL     1       5.645   4.431  16.005  0.00  0.00    +0.000 C 
BRANCH  14  15
ATOM     15  C   UNL     1       6.989   4.922  15.493  0.00  0.00    +0.000 C 
BRANCH  15  16
ATOM     16  C   UNL     1       7.044   4.725  13.992  0.00  0.00    +0.000 C 
ATOM     17  O   UNL     1       7.690   5.481  13.286  0.00  0.00    +0.000 OA
ATOM     18  N   UNL     1       6.268   3.691  13.500  0.00  0.00    +0.000 N 
ATOM     19  H   UNL     1       5.827   3.050  14.148  0.00  0.00    +0.000 HD
BRANCH  18  20
ATOM     20  C   UNL     1       6.206   3.411  12.093  0.00  0.00    +0.000 C 
ATOM     21  C   UNL     1       7.066   2.338  11.480  0.00  0.00    +0.000 C 
ATOM     22  C   UNL     1       5.583   2.131  11.591  0.00  0.00    +0.000 C 
ENDBRANCH  18  20
ENDBRANCH  15  16
ENDBRANCH  14  15
ENDBRANCH  13  14
ENDBRANCH  12  13
ENDBRANCH   1  12
TORSDOF 15
ENDMDL
MODEL 6
REMARK VINA RESULT:      -5.4      3.181      7.568
REMARK  Name = 
REMARK  16 active torsions:
REMARK  status: ('A' for Active; 'I' for Inactive)
REMARK    1  A    between atoms: C_1  and  C_2
REMARK    2  A    between atoms: C_2  and  C_3
REMARK    3  A    between atoms: C_3  and  C_4
REMARK    4  A    between atoms: C_4  and  C_5
REMARK    5  A    between atoms: C_5  and  C_6
REMARK    6  A    between atoms: C_6  and  C_7
REMARK    7  A    between atoms: C_7  and  C_8
REMARK    8  A    between atoms: C_8  and  C_9
REMARK    9  A    between atoms: C_9  and  C_10
REMARK   10  A    between atoms: C_10  and  C_11
REMARK   11  A    between atoms: C_11  and  C_12
REMARK   12  A    between atoms: C_12  and  C_13
REMARK   13  A    between atoms: C_13  and  C_14
REMARK   14  A    between atoms: C_14  and  C_15
REMARK   15  A    between atoms: C_15  and  C_16
REMARK   16  A    between atoms: N_18  and  C_19
REMARK                            x       y       z     vdW  Elec       q    Type
REMARK                         _______ _______ _______ _____ _____    ______ ____
ROOT
ATOM      1  C   UNL     1       3.176   1.899  18.736  0.00  0.00    +0.000 C 
ENDROOT
BRANCH   1   2
ATOM      2  C   UNL     1       4.402   2.508  19.393  0.00  0.00    +0.000 C 
BRANCH   2   3
ATOM      3  C   UNL     1       4.704   3.857  18.765  0.00  0.00    +0.000 C 
BRANCH   3   4
ATOM      4  C   UNL     1       4.582   3.763  17.256  0.00  0.00    +0.000 C 
BRANCH   4   5
ATOM      5  C   UNL     1       4.352   5.144  16.669  0.00  0.00    +0.000 C 
BRANCH   5   6
ATOM      6  C   UNL     1       5.638   5.666  16.056  0.00  0.00    +0.000 C 
BRANCH   6   7
ATOM      7  C   UNL     1       6.461   4.511  15.514  0.00  0.00    +0.000 C 
BRANCH   7   8
ATOM      8  C   UNL     1       6.809   4.759  14.056  0.00  0.00    +0.000 C 
BRANCH   8   9
ATOM      9  C   UNL     1       6.351   3.586  13.206  0.00  0.00    +0.000 C 
BRANCH   9  11
ATOM     10  C   UNL     1       4.657   3.075  11.452  0.00  0.00    +0.000 C 
ATOM     11  C   UNL     1       4.908   3.783  12.769  0.00  0.00    +0.000 C 
ENDBRANCH   9  11
ENDBRANCH   8   9
ENDBRANCH   7   8
ENDBRANCH   6   7
ENDBRANCH   5   6
ENDBRANCH   4   5
ENDBRANCH   3   4
ENDBRANCH   2   3
ENDBRANCH   1   2
BRANCH   1  12
ATOM     12  C   UNL     1       1.970   2.044  19.642  0.00  0.00    +0.000 C 
BRANCH  12  13
ATOM     13  C   UNL     1       1.106   3.205  19.170  0.00  0.00    +0.000 C 
BRANCH  13  14
ATOM     14  C   UNL     1       0.803   4.135  20.331  0.00  0.00    +0.000 C 
BRANCH  14  15
ATOM     15  C   UNL     1       2.047   4.877  20.791  0.00  0.00    +0.000 C 
BRANCH  15  16
ATOM     16  C   UNL     1       1.960   6.316  20.326  0.00  0.00    +0.000 C 
ATOM     17  O   UNL     1       2.357   6.640  19.219  0.00  0.00    +0.000 OA
ATOM     18  N   UNL     1       1.473   7.213  21.259  0.00  0.00    +0.000 N 
ATOM     19  H   UNL     1       1.081   6.865  22.125  0.00  0.00    +0.000 HD
BRANCH  18  20
ATOM     20  C   UNL     1       1.364   8.614  20.959  0.00  0.00    +0.000 C 
ATOM     21  C   UNL     1       0.020   9.291  20.912  0.00  0.00    +0.000 C 
ATOM     22  C   UNL     1       0.971   9.600  22.032  0.00  0.00    +0.000 C 
ENDBRANCH  18  20
ENDBRANCH  15  16
ENDBRANCH  14  15
ENDBRANCH  13  14
ENDBRANCH  12  13
ENDBRANCH   1  12
TORSDOF 15
ENDMDL
MODEL 7
REMARK VINA RESULT:      -5.4      1.359      3.280
REMARK  Name = 
REMARK  16 active torsions:
REMARK  status: ('A' for Active; 'I' for Inactive)
REMARK    1  A    between atoms: C_1  and  C_2
REMARK    2  A    between atoms: C_2  and  C_3
REMARK    3  A    between atoms: C_3  and  C_4
REMARK    4  A    between atoms: C_4  and  C_5
REMARK    5  A    between atoms: C_5  and  C_6
REMARK    6  A    between atoms: C_6  and  C_7
REMARK    7  A    between atoms: C_7  and  C_8
REMARK    8  A    between atoms: C_8  and  C_9
REMARK    9  A    between atoms: C_9  and  C_10
REMARK   10  A    between atoms: C_10  and  C_11
REMARK   11  A    between atoms: C_11  and  C_12
REMARK   12  A    between atoms: C_12  and  C_13
REMARK   13  A    between atoms: C_13  and  C_14
REMARK   14  A    between atoms: C_14  and  C_15
REMARK   15  A    between atoms: C_15  and  C_16
REMARK   16  A    between atoms: N_18  and  C_19
REMARK                            x       y       z     vdW  Elec       q    Type
REMARK                         _______ _______ _______ _____ _____    ______ ____
ROOT
ATOM      1  C   UNL     1       4.190   3.283  18.413  0.00  0.00    +0.000 C 
ENDROOT
BRANCH   1   2
ATOM      2  C   UNL     1       2.934   2.917  17.642  0.00  0.00    +0.000 C 
BRANCH   2   3
ATOM      3  C   UNL     1       1.904   2.328  18.589  0.00  0.00    +0.000 C 
BRANCH   3   4
ATOM      4  C   UNL     1       2.460   2.292  20.000  0.00  0.00    +0.000 C 
BRANCH   4   5
ATOM      5  C   UNL     1       1.528   3.029  20.944  0.00  0.00    +0.000 C 
BRANCH   5   6
ATOM      6  C   UNL     1       0.918   4.225  20.237  0.00  0.00    +0.000 C 
BRANCH   6   7
ATOM      7  C   UNL     1       1.562   5.507  20.733  0.00  0.00    +0.000 C 
BRANCH   7   8
ATOM      8  C   UNL     1       2.410   6.122  19.633  0.00  0.00    +0.000 C 
BRANCH   8   9
ATOM      9  C   UNL     1       2.157   7.618  19.559  0.00  0.00    +0.000 C 
BRANCH   9  11
ATOM     10  C   UNL     1       1.667   9.346  17.831  0.00  0.00    +0.000 C 
ATOM     11  C   UNL     1       2.528   8.149  18.184  0.00  0.00    +0.000 C 
ENDBRANCH   9  11
ENDBRANCH   8   9
ENDBRANCH   7   8
ENDBRANCH   6   7
ENDBRANCH   5   6
ENDBRANCH   4   5
ENDBRANCH   3   4
ENDBRANCH   2   3
ENDBRANCH   1   2
BRANCH   1  12
ATOM     12  C   UNL     1       4.715   4.627  17.949  0.00  0.00    +0.000 C 
BRANCH  12  13
ATOM     13  C   UNL     1       6.151   4.812  18.420  0.00  0.00    +0.000 C 
BRANCH  13  14
ATOM     14  C   UNL     1       6.977   5.467  17.328  0.00  0.00    +0.000 C 
BRANCH  14  15
ATOM     15  C   UNL     1       6.141   5.755  16.092  0.00  0.00    +0.000 C 
BRANCH  15  16
ATOM     16  C   UNL     1       6.773   5.067  14.900  0.00  0.00    +0.000 C 
ATOM     17  O   UNL     1       7.909   5.343  14.550  0.00  0.00    +0.000 OA
ATOM     18  N   UNL     1       5.955   4.181  14.224  0.00  0.00    +0.000 N 
ATOM     19  H   UNL     1       5.056   3.935  14.619  0.00  0.00    +0.000 HD
BRANCH  18  20
ATOM     20  C   UNL     1       6.418   3.481  13.059  0.00  0.00    +0.000 C 
ATOM     21  C   UNL     1       5.475   3.139  11.937  0.00  0.00    +0.000 C 
ATOM     22  C   UNL     1       6.529   4.188  11.730  0.00  0.00    +0.000 C 
ENDBRANCH  18  20
ENDBRANCH  15  16
ENDBRANCH  14  15
ENDBRANCH  13  14
ENDBRANCH  12  13
ENDBRANCH   1  12
TORSDOF 15
ENDMDL
MODEL 8
REMARK VINA RESULT:      -5.3      3.866      5.546
REMARK  Name = 
REMARK  16 active torsions:
REMARK  status: ('A' for Active; 'I' for Inactive)
REMARK    1  A    between atoms: C_1  and  C_2
REMARK    2  A    between atoms: C_2  and  C_3
REMARK    3  A    between atoms: C_3  and  C_4
REMARK    4  A    between atoms: C_4  and  C_5
REMARK    5  A    between atoms: C_5  and  C_6
REMARK    6  A    between atoms: C_6  and  C_7
REMARK    7  A    between atoms: C_7  and  C_8
REMARK    8  A    between atoms: C_8  and  C_9
REMARK    9  A    between atoms: C_9  and  C_10
REMARK   10  A    between atoms: C_10  and  C_11
REMARK   11  A    between atoms: C_11  and  C_12
REMARK   12  A    between atoms: C_12  and  C_13
REMARK   13  A    between atoms: C_13  and  C_14
REMARK   14  A    between atoms: C_14  and  C_15
REMARK   15  A    between atoms: C_15  and  C_16
REMARK   16  A    between atoms: N_18  and  C_19
REMARK                            x       y       z     vdW  Elec       q    Type
REMARK                         _______ _______ _______ _____ _____    ______ ____
ROOT
ATOM      1  C   UNL     1       4.948   6.122  17.370  0.00  0.00    +0.000 C 
ENDROOT
BRANCH   1   2
ATOM      2  C   UNL     1       3.447   6.006  17.567  0.00  0.00    +0.000 C 
BRANCH   2   3
ATOM      3  C   UNL     1       2.875   7.356  17.958  0.00  0.00    +0.000 C 
BRANCH   3   4
ATOM      4  C   UNL     1       2.330   7.296  19.373  0.00  0.00    +0.000 C 
BRANCH   4   5
ATOM      5  C   UNL     1       2.812   6.030  20.060  0.00  0.00    +0.000 C 
BRANCH   5   6
ATOM      6  C   UNL     1       1.636   5.302  20.684  0.00  0.00    +0.000 C 
BRANCH   6   7
ATOM      7  C   UNL     1       1.869   3.803  20.635  0.00  0.00    +0.000 C 
BRANCH   7   8
ATOM      8  C   UNL     1       0.698   3.116  19.953  0.00  0.00    +0.000 C 
BRANCH   8   9
ATOM      9  C   UNL     1       1.198   2.253  18.807  0.00  0.00    +0.000 C 
BRANCH   9  11
ATOM     10  C   UNL     1       3.500   1.565  18.148  0.00  0.00    +0.000 C 
ATOM     11  C   UNL     1       2.559   2.739  18.336  0.00  0.00    +0.000 C 
ENDBRANCH   9  11
ENDBRANCH   8   9
ENDBRANCH   7   8
ENDBRANCH   6   7
ENDBRANCH   5   6
ENDBRANCH   4   5
ENDBRANCH   3   4
ENDBRANCH   2   3
ENDBRANCH   1   2
BRANCH   1  12
ATOM     12  C   UNL     1       5.630   4.831  17.778  0.00  0.00    +0.000 C 
BRANCH  12  13
ATOM     13  C   UNL     1       7.138   4.974  17.628  0.00  0.00    +0.000 C 
BRANCH  13  14
ATOM     14  C   UNL     1       7.498   6.418  17.326  0.00  0.00    +0.000 C 
BRANCH  14  15
ATOM     15  C   UNL     1       8.115   7.103  18.534  0.00  0.00    +0.000 C 
BRANCH  15  16
ATOM     16  C   UNL     1       8.221   8.588  18.255  0.00  0.00    +0.000 C 
ATOM     17  O   UNL     1       7.624   9.091  17.318  0.00  0.00    +0.000 OA
ATOM     18  N   UNL     1       9.078   9.288  19.084  0.00  0.00    +0.000 N 
ATOM     19  H   UNL     1       9.472   8.826  19.895  0.00  0.00    +0.000 HD
BRANCH  18  20
ATOM     20  C   UNL     1       9.294  10.697  18.913  0.00  0.00    +0.000 C 
ATOM     21  C   UNL     1      10.328  11.425  19.731  0.00  0.00    +0.000 C 
ATOM     22  C   UNL     1      10.556  11.208  18.262  0.00  0.00    +0.000 C 
ENDBRANCH  18  20
ENDBRANCH  15  16
ENDBRANCH  14  15
ENDBRANCH  13  14
ENDBRANCH  12  13
ENDBRANCH   1  12
TORSDOF 15
ENDMDL
MODEL 9
REMARK VINA RESULT:      -5.3      2.036      5.369
REMARK  Name = 
REMARK  16 active torsions:
REMARK  status: ('A' for Active; 'I' for Inactive)
REMARK    1  A    between atoms: C_1  and  C_2
REMARK    2  A    between atoms: C_2  and  C_3
REMARK    3  A    between atoms: C_3  and  C_4
REMARK    4  A    between atoms: C_4  and  C_5
REMARK    5  A    between atoms: C_5  and  C_6
REMARK    6  A    between atoms: C_6  and  C_7
REMARK    7  A    between atoms: C_7  and  C_8
REMARK    8  A    between atoms: C_8  and  C_9
REMARK    9  A    between atoms: C_9  and  C_10
REMARK   10  A    between atoms: C_10  and  C_11
REMARK   11  A    between atoms: C_11  and  C_12
REMARK   12  A    between atoms: C_12  and  C_13
REMARK   13  A    between atoms: C_13  and  C_14
REMARK   14  A    between atoms: C_14  and  C_15
REMARK   15  A    between atoms: C_15  and  C_16
REMARK   16  A    between atoms: N_18  and  C_19
REMARK                            x       y       z     vdW  Elec       q    Type
REMARK                         _______ _______ _______ _____ _____    ______ ____
ROOT
ATOM      1  C   UNL     1       1.118   3.839  20.431  0.00  0.00    +0.000 C 
ENDROOT
BRANCH   1   2
ATOM      2  C   UNL     1       2.087   2.921  21.153  0.00  0.00    +0.000 C 
BRANCH   2   3
ATOM      3  C   UNL     1       3.093   2.358  20.165  0.00  0.00    +0.000 C 
BRANCH   3   4
ATOM      4  C   UNL     1       2.439   2.175  18.809  0.00  0.00    +0.000 C 
BRANCH   4   5
ATOM      5  C   UNL     1       3.501   2.118  17.726  0.00  0.00    +0.000 C 
BRANCH   5   6
ATOM      6  C   UNL     1       4.243   3.439  17.660  0.00  0.00    +0.000 C 
BRANCH   6   7
ATOM      7  C   UNL     1       4.538   3.798  16.215  0.00  0.00    +0.000 C 
BRANCH   7   8
ATOM      8  C   UNL     1       6.001   3.531  15.901  0.00  0.00    +0.000 C 
BRANCH   8   9
ATOM      9  C   UNL     1       6.381   4.200  14.591  0.00  0.00    +0.000 C 
BRANCH   9  11
ATOM     10  C   UNL     1       6.041   3.145  12.359  0.00  0.00    +0.000 C 
ATOM     11  C   UNL     1       5.365   3.862  13.512  0.00  0.00    +0.000 C 
ENDBRANCH   9  11
ENDBRANCH   8   9
ENDBRANCH   7   8
ENDBRANCH   6   7
ENDBRANCH   5   6
ENDBRANCH   4   5
ENDBRANCH   3   4
ENDBRANCH   2   3
ENDBRANCH   1   2
BRANCH   1  12
ATOM     12  C   UNL     1       1.646   5.260  20.431  0.00  0.00    +0.000 C 
BRANCH  12  13
ATOM     13  C   UNL     1       1.966   5.693  19.007  0.00  0.00    +0.000 C 
BRANCH  13  14
ATOM     14  C   UNL     1       3.082   6.722  19.013  0.00  0.00    +0.000 C 
BRANCH  14  15
ATOM     15  C   UNL     1       3.213   7.409  17.664  0.00  0.00    +0.000 C 
BRANCH  15  16
ATOM     16  C   UNL     1       4.593   7.130  17.104  0.00  0.00    +0.000 C 
ATOM     17  O   UNL     1       4.769   7.025  15.902  0.00  0.00    +0.000 OA
ATOM     18  N   UNL     1       5.589   6.943  18.044  0.00  0.00    +0.000 N 
ATOM     19  H   UNL     1       5.393   7.131  19.020  0.00  0.00    +0.000 HD
BRANCH  18  20
ATOM     20  C   UNL     1       6.937   6.644  17.652  0.00  0.00    +0.000 C 
ATOM     21  C   UNL     1       8.089   6.902  18.586  0.00  0.00    +0.000 C 
ATOM     22  C   UNL     1       7.683   5.490  18.277  0.00  0.00    +0.000 C 
ENDBRANCH  18  20
ENDBRANCH  15  16
ENDBRANCH  14  15
ENDBRANCH  13  14
ENDBRANCH  12  13
ENDBRANCH   1  12
TORSDOF 15
ENDMDL
