MODEL 1
REMARK VINA RESULT:      -7.2      0.000      0.000
REMARK  Name = 
REMARK  6 active torsions:
REMARK  status: ('A' for Active; 'I' for Inactive)
REMARK    1  A    between atoms: C_1  and  C_2
REMARK    2  A    between atoms: N_4  and  C_5
REMARK    3  A    between atoms: C_6  and  C_7
REMARK    4  A    between atoms: C_8  and  N_9
REMARK    5  A    between atoms: N_12  and  C_13
REMARK    6  A    between atoms: C_17  and  C_18
REMARK                            x       y       z     vdW  Elec       q    Type
REMARK                         _______ _______ _______ _____ _____    ______ ____
ROOT
ATOM      1  N   UNL     1       3.254   5.607  20.236  0.00  0.00    +0.000 N 
ATOM      2  C   UNL     1       2.234   6.461  19.825  0.00  0.00    +0.000 C 
ATOM      3  O   UNL     1       1.255   6.125  19.178  0.00  0.00    +0.000 OA
ATOM      4  N   UNL     1       2.455   7.756  20.283  0.00  0.00    +0.000 N 
ATOM      5  H   UNL     1       3.613   5.822  21.155  0.00  0.00    +0.000 HD
ATOM      6  H   UNL     1       3.405   8.051  20.076  0.00  0.00    +0.000 HD
ENDROOT
BRANCH   4   7
ATOM      7  C   UNL     1       1.472   8.782  20.058  0.00  0.00    +0.000 A 
ATOM      8  C   UNL     1       1.337   9.295  18.760  0.00  0.00    +0.000 A 
ATOM      9 CL   UNL     1       2.307   8.704  17.454  0.00  0.00    +0.000 Cl
ATOM     10  C   UNL     1       0.382  10.268  18.481  0.00  0.00    +0.000 A 
ATOM     11  C   UNL     1      -0.435  10.772  19.503  0.00  0.00    +0.000 A 
ATOM     12  C   UNL     1      -1.471  11.819  19.175  0.00  0.00    +0.000 C 
ATOM     13  C   UNL     1      -0.297  10.317  20.819  0.00  0.00    +0.000 A 
ATOM     14  N   UNL     1      -1.080  10.866  21.768  0.00  0.00    +0.000 NA
ATOM     15  C   UNL     1      -0.932  10.469  23.048  0.00  0.00    +0.000 A 
ATOM     16  C   UNL     1      -0.009   9.532  23.449  0.00  0.00    +0.000 A 
ATOM     17  C   UNL     1       0.797   8.957  22.472  0.00  0.00    +0.000 A 
ATOM     18  C   UNL     1       0.670   9.317  21.110  0.00  0.00    +0.000 A 
ENDBRANCH   4   7
BRANCH   1  26
ATOM     19  C   UNL     1       1.863   3.144  21.873  0.00  0.00    +0.000 C 
ATOM     20  C   UNL     1       2.643   3.159  20.611  0.00  0.00    +0.000 A 
ATOM     21  N   UNL     1       2.803   2.012  19.938  0.00  0.00    +0.000 NA
ATOM     22  N   UNL     1       3.489   2.361  18.840  0.00  0.00    +0.000 N 
ATOM     23  C   UNL     1       3.911   1.317  17.936  0.00  0.00    +0.000 C 
ATOM     24  C   UNL     1       3.718   3.713  18.739  0.00  0.00    +0.000 A 
ATOM     25  C   UNL     1       4.477   4.328  17.620  0.00  0.00    +0.000 C 
ATOM     26  C   UNL     1       3.204   4.256  19.902  0.00  0.00    +0.000 A 
ENDBRANCH   1  26
TORSDOF 2
ENDMDL
MODEL 2
REMARK VINA RESULT:      -6.9      1.952      7.628
REMARK  Name = 
REMARK  6 active torsions:
REMARK  status: ('A' for Active; 'I' for Inactive)
REMARK    1  A    between atoms: C_1  and  C_2
REMARK    2  A    between atoms: N_4  and  C_5
REMARK    3  A    between atoms: C_6  and  C_7
REMARK    4  A    between atoms: C_8  and  N_9
REMARK    5  A    between atoms: N_12  and  C_13
REMARK    6  A    between atoms: C_17  and  C_18
REMARK                            x       y       z     vdW  Elec       q    Type
REMARK                         _______ _______ _______ _____ _____    ______ ____
ROOT
ATOM      1  N   UNL     1       1.988   8.169  20.688  0.00  0.00    +0.000 N 
ATOM      2  C   UNL     1       2.002   6.985  19.957  0.00  0.00    +0.000 C 
ATOM      3  O   UNL     1       1.217   6.699  19.069  0.00  0.00    +0.000 OA
ATOM      4  N   UNL     1       3.064   6.174  20.346  0.00  0.00    +0.000 N 
ATOM      5  H   UNL     1       2.909   8.521  20.906  0.00  0.00    +0.000 HD
ATOM      6  H   UNL     1       3.093   6.084  21.358  0.00  0.00    +0.000 HD
ENDROOT
BRANCH   4   7
ATOM      7  C   UNL     1       3.329   4.943  19.651  0.00  0.00    +0.000 A 
ATOM      8  C   UNL     1       2.947   3.742  20.265  0.00  0.00    +0.000 A 
ATOM      9 CL   UNL     1       2.162   3.731  21.808  0.00  0.00    +0.000 Cl
ATOM     10  C   UNL     1       3.153   2.524  19.625  0.00  0.00    +0.000 A 
ATOM     11  C   UNL     1       3.776   2.481  18.369  0.00  0.00    +0.000 A 
ATOM     12  C   UNL     1       3.979   1.150  17.688  0.00  0.00    +0.000 C 
ATOM     13  C   UNL     1       4.211   3.656  17.746  0.00  0.00    +0.000 A 
ATOM     14  N   UNL     1       4.841   3.552  16.559  0.00  0.00    +0.000 NA
ATOM     15  C   UNL     1       5.304   4.669  15.964  0.00  0.00    +0.000 A 
ATOM     16  C   UNL     1       5.179   5.926  16.511  0.00  0.00    +0.000 A 
ATOM     17  C   UNL     1       4.523   6.039  17.732  0.00  0.00    +0.000 A 
ATOM     18  C   UNL     1       3.996   4.904  18.391  0.00  0.00    +0.000 A 
ENDBRANCH   4   7
BRANCH   1  26
ATOM     19  C   UNL     1      -0.474   9.159  22.597  0.00  0.00    +0.000 C 
ATOM     20  C   UNL     1      -0.087   9.557  21.221  0.00  0.00    +0.000 A 
ATOM     21  N   UNL     1      -0.784  10.520  20.607  0.00  0.00    +0.000 NA
ATOM     22  N   UNL     1      -0.166  10.682  19.428  0.00  0.00    +0.000 N 
ATOM     23  C   UNL     1      -0.741  11.602  18.474  0.00  0.00    +0.000 C 
ATOM     24  C   UNL     1       0.959   9.906  19.283  0.00  0.00    +0.000 A 
ATOM     25  C   UNL     1       1.792   9.901  18.054  0.00  0.00    +0.000 C 
ATOM     26  C   UNL     1       1.016   9.133  20.429  0.00  0.00    +0.000 A 
ENDBRANCH   1  26
TORSDOF 2
ENDMDL
MODEL 3
REMARK VINA RESULT:      -6.8      1.985      7.841
REMARK  Name = 
REMARK  6 active torsions:
REMARK  status: ('A' for Active; 'I' for Inactive)
REMARK    1  A    between atoms: C_1  and  C_2
REMARK    2  A    between atoms: N_4  and  C_5
REMARK    3  A    between atoms: C_6  and  C_7
REMARK    4  A    between atoms: C_8  and  N_9
REMARK    5  A    between atoms: N_12  and  C_13
REMARK    6  A    between atoms: C_17  and  C_18
REMARK                            x       y       z     vdW  Elec       q    Type
REMARK                         _______ _______ _______ _____ _____    ______ ____
ROOT
ATOM      1  N   UNL     1       1.966   8.164  20.733  0.00  0.00    +0.000 N 
ATOM      2  C   UNL     1       2.022   7.020  19.942  0.00  0.00    +0.000 C 
ATOM      3  O   UNL     1       1.372   6.837  18.926  0.00  0.00    +0.000 OA
ATOM      4  N   UNL     1       2.955   6.116  20.441  0.00  0.00    +0.000 N 
ATOM      5  H   UNL     1       2.862   8.436  21.113  0.00  0.00    +0.000 HD
ATOM      6  H   UNL     1       2.816   5.973  21.437  0.00  0.00    +0.000 HD
ENDROOT
BRANCH   4   7
ATOM      7  C   UNL     1       3.248   4.906  19.721  0.00  0.00    +0.000 A 
ATOM      8  C   UNL     1       2.851   3.687  20.287  0.00  0.00    +0.000 A 
ATOM      9 CL   UNL     1       2.013   3.629  21.801  0.00  0.00    +0.000 Cl
ATOM     10  C   UNL     1       3.084   2.488  19.620  0.00  0.00    +0.000 A 
ATOM     11  C   UNL     1       3.750   2.483  18.386  0.00  0.00    +0.000 A 
ATOM     12  C   UNL     1       3.982   1.173  17.675  0.00  0.00    +0.000 C 
ATOM     13  C   UNL     1       4.201   3.676  17.812  0.00  0.00    +0.000 A 
ATOM     14  N   UNL     1       4.872   3.608  16.645  0.00  0.00    +0.000 NA
ATOM     15  C   UNL     1       5.351   4.743  16.098  0.00  0.00    +0.000 A 
ATOM     16  C   UNL     1       5.202   5.983  16.675  0.00  0.00    +0.000 A 
ATOM     17  C   UNL     1       4.504   6.060  17.876  0.00  0.00    +0.000 A 
ATOM     18  C   UNL     1       3.959   4.905  18.484  0.00  0.00    +0.000 A 
ENDBRANCH   4   7
BRANCH   1  26
ATOM     19  C   UNL     1       1.896   9.925  17.980  0.00  0.00    +0.000 C 
ATOM     20  C   UNL     1       1.080  10.015  19.217  0.00  0.00    +0.000 A 
ATOM     21  N   UNL     1       0.088  10.912  19.272  0.00  0.00    +0.000 NA
ATOM     22  N   UNL     1      -0.480  10.711  20.470  0.00  0.00    +0.000 N 
ATOM     23  C   UNL     1      -1.542  11.599  20.882  0.00  0.00    +0.000 C 
ATOM     24  C   UNL     1       0.064   9.660  21.169  0.00  0.00    +0.000 A 
ATOM     25  C   UNL     1      -0.389   9.265  22.527  0.00  0.00    +0.000 C 
ATOM     26  C   UNL     1       1.111   9.207  20.387  0.00  0.00    +0.000 A 
ENDBRANCH   1  26
TORSDOF 2
ENDMDL
MODEL 4
REMARK VINA RESULT:      -6.5      0.618      1.823
REMARK  Name = 
REMARK  6 active torsions:
REMARK  status: ('A' for Active; 'I' for Inactive)
REMARK    1  A    between atoms: C_1  and  C_2
REMARK    2  A    between atoms: N_4  and  C_5
REMARK    3  A    between atoms: C_6  and  C_7
REMARK    4  A    between atoms: C_8  and  N_9
REMARK    5  A    between atoms: N_12  and  C_13
REMARK    6  A    between atoms: C_17  and  C_18
REMARK                            x       y       z     vdW  Elec       q    Type
REMARK                         _______ _______ _______ _____ _____    ______ ____
ROOT
ATOM      1  N   UNL     1       3.486   5.968  19.833  0.00  0.00    +0.000 N 
ATOM      2  C   UNL     1       2.470   6.830  19.428  0.00  0.00    +0.000 C 
ATOM      3  O   UNL     1       1.681   6.610  18.523  0.00  0.00    +0.000 OA
ATOM      4  N   UNL     1       2.444   7.974  20.220  0.00  0.00    +0.000 N 
ATOM      5  H   UNL     1       3.633   5.960  20.831  0.00  0.00    +0.000 HD
ATOM      6  H   UNL     1       3.375   8.374  20.301  0.00  0.00    +0.000 HD
ENDROOT
BRANCH   4   7
ATOM      7  C   UNL     1       1.409   8.956  20.042  0.00  0.00    +0.000 A 
ATOM      8  C   UNL     1       1.229   9.501  18.762  0.00  0.00    +0.000 A 
ATOM      9 CL   UNL     1       2.207   9.000  17.425  0.00  0.00    +0.000 Cl
ATOM     10  C   UNL     1       0.223  10.434  18.527  0.00  0.00    +0.000 A 
ATOM     11  C   UNL     1      -0.602  10.865  19.575  0.00  0.00    +0.000 A 
ATOM     12  C   UNL     1      -1.694  11.868  19.294  0.00  0.00    +0.000 C 
ATOM     13  C   UNL     1      -0.423  10.377  20.874  0.00  0.00    +0.000 A 
ATOM     14  N   UNL     1      -1.217  10.856  21.850  0.00  0.00    +0.000 NA
ATOM     15  C   UNL     1      -1.031  10.428  23.115  0.00  0.00    +0.000 A 
ATOM     16  C   UNL     1      -0.057   9.526  23.473  0.00  0.00    +0.000 A 
ATOM     17  C   UNL     1       0.761   9.022  22.468  0.00  0.00    +0.000 A 
ATOM     18  C   UNL     1       0.597   9.418  21.120  0.00  0.00    +0.000 A 
ENDBRANCH   4   7
BRANCH   1  26
ATOM     19  C   UNL     1       4.914   5.371  16.954  0.00  0.00    +0.000 C 
ATOM     20  C   UNL     1       4.242   4.463  17.916  0.00  0.00    +0.000 A 
ATOM     21  N   UNL     1       4.223   3.150  17.658  0.00  0.00    +0.000 NA
ATOM     22  N   UNL     1       3.606   2.609  18.719  0.00  0.00    +0.000 N 
ATOM     23  C   UNL     1       3.339   1.190  18.706  0.00  0.00    +0.000 C 
ATOM     24  C   UNL     1       3.287   3.521  19.697  0.00  0.00    +0.000 A 
ATOM     25  C   UNL     1       2.581   3.157  20.951  0.00  0.00    +0.000 C 
ATOM     26  C   UNL     1       3.662   4.749  19.182  0.00  0.00    +0.000 A 
ENDBRANCH   1  26
TORSDOF 2
ENDMDL
MODEL 5
REMARK VINA RESULT:      -6.5      5.848      8.612
REMARK  Name = 
REMARK  6 active torsions:
REMARK  status: ('A' for Active; 'I' for Inactive)
REMARK    1  A    between atoms: C_1  and  C_2
REMARK    2  A    between atoms: N_4  and  C_5
REMARK    3  A    between atoms: C_6  and  C_7
REMARK    4  A    between atoms: C_8  and  N_9
REMARK    5  A    between atoms: N_12  and  C_13
REMARK    6  A    between atoms: C_17  and  C_18
REMARK                            x       y       z     vdW  Elec       q    Type
REMARK                         _______ _______ _______ _____ _____    ______ ____
ROOT
ATOM      1  N   UNL     1      -1.697  13.330  19.196  0.00  0.00    +0.000 N 
ATOM      2  C   UNL     1      -2.572  12.990  20.224  0.00  0.00    +0.000 C 
ATOM      3  O   UNL     1      -2.364  12.135  21.069  0.00  0.00    +0.000 OA
ATOM      4  N   UNL     1      -3.713  13.787  20.189  0.00  0.00    +0.000 N 
ATOM      5  H   UNL     1      -1.684  14.318  18.987  0.00  0.00    +0.000 HD
ATOM      6  H   UNL     1      -4.103  13.812  19.250  0.00  0.00    +0.000 HD
ENDROOT
BRANCH   4   7
ATOM      7  C   UNL     1      -4.707  13.674  21.222  0.00  0.00    +0.000 A 
ATOM      8  C   UNL     1      -4.574  14.485  22.358  0.00  0.00    +0.000 A 
ATOM      9 CL   UNL     1      -3.264  15.606  22.515  0.00  0.00    +0.000 Cl
ATOM     10  C   UNL     1      -5.522  14.438  23.375  0.00  0.00    +0.000 A 
ATOM     11  C   UNL     1      -6.607  13.553  23.291  0.00  0.00    +0.000 A 
ATOM     12  C   UNL     1      -7.630  13.527  24.400  0.00  0.00    +0.000 C 
ATOM     13  C   UNL     1      -6.748  12.697  22.193  0.00  0.00    +0.000 A 
ATOM     14  N   UNL     1      -7.786  11.838  22.184  0.00  0.00    +0.000 NA
ATOM     15  C   UNL     1      -7.915  10.978  21.155  0.00  0.00    +0.000 A 
ATOM     16  C   UNL     1      -7.029  10.916  20.104  0.00  0.00    +0.000 A 
ATOM     17  C   UNL     1      -5.959  11.805  20.105  0.00  0.00    +0.000 A 
ATOM     18  C   UNL     1      -5.788  12.746  21.147  0.00  0.00    +0.000 A 
ENDBRANCH   4   7
BRANCH   1  26
ATOM     19  C   UNL     1       1.286  14.350  20.057  0.00  0.00    +0.000 C 
ATOM     20  C   UNL     1       0.835  13.097  19.401  0.00  0.00    +0.000 A 
ATOM     21  N   UNL     1       1.740  12.148  19.134  0.00  0.00    +0.000 NA
ATOM     22  N   UNL     1       1.025  11.144  18.605  0.00  0.00    +0.000 N 
ATOM     23  C   UNL     1       1.733   9.984  18.115  0.00  0.00    +0.000 C 
ATOM     24  C   UNL     1      -0.329  11.379  18.589  0.00  0.00    +0.000 A 
ATOM     25  C   UNL     1      -1.315  10.419  18.031  0.00  0.00    +0.000 C 
ATOM     26  C   UNL     1      -0.479  12.666  19.073  0.00  0.00    +0.000 A 
ENDBRANCH   1  26
TORSDOF 2
ENDMDL
MODEL 6
REMARK VINA RESULT:      -6.4      5.601      9.682
REMARK  Name = 
REMARK  6 active torsions:
REMARK  status: ('A' for Active; 'I' for Inactive)
REMARK    1  A    between atoms: C_1  and  C_2
REMARK    2  A    between atoms: N_4  and  C_5
REMARK    3  A    between atoms: C_6  and  C_7
REMARK    4  A    between atoms: C_8  and  N_9
REMARK    5  A    between atoms: N_12  and  C_13
REMARK    6  A    between atoms: C_17  and  C_18
REMARK                            x       y       z     vdW  Elec       q    Type
REMARK                         _______ _______ _______ _____ _____    ______ ____
ROOT
ATOM      1  N   UNL     1      -4.467  13.403  20.059  0.00  0.00    +0.000 N 
ATOM      2  C   UNL     1      -3.249  12.730  20.097  0.00  0.00    +0.000 C 
ATOM      3  O   UNL     1      -2.730  12.274  21.103  0.00  0.00    +0.000 OA
ATOM      4  N   UNL     1      -2.708  12.608  18.821  0.00  0.00    +0.000 N 
ATOM      5  H   UNL     1      -5.016  13.198  19.237  0.00  0.00    +0.000 HD
ATOM      6  H   UNL     1      -2.717  13.505  18.342  0.00  0.00    +0.000 HD
ENDROOT
BRANCH   4   7
ATOM      7  C   UNL     1      -1.499  11.858  18.615  0.00  0.00    +0.000 A 
ATOM      8  C   UNL     1      -1.612  10.522  18.204  0.00  0.00    +0.000 A 
ATOM      9 CL   UNL     1      -3.158   9.792  17.932  0.00  0.00    +0.000 Cl
ATOM     10  C   UNL     1      -0.475   9.758  17.963  0.00  0.00    +0.000 A 
ATOM     11  C   UNL     1       0.801  10.306  18.159  0.00  0.00    +0.000 A 
ATOM     12  C   UNL     1       2.021   9.464  17.880  0.00  0.00    +0.000 C 
ATOM     13  C   UNL     1       0.953  11.621  18.611  0.00  0.00    +0.000 A 
ATOM     14  N   UNL     1       2.200  12.084  18.822  0.00  0.00    +0.000 NA
ATOM     15  C   UNL     1       2.364  13.334  19.297  0.00  0.00    +0.000 A 
ATOM     16  C   UNL     1       1.316  14.174  19.594  0.00  0.00    +0.000 A 
ATOM     17  C   UNL     1       0.026  13.705  19.371  0.00  0.00    +0.000 A 
ATOM     18  C   UNL     1      -0.205  12.410  18.852  0.00  0.00    +0.000 A 
ENDBRANCH   4   7
BRANCH   1  26
ATOM     19  C   UNL     1      -3.984  15.634  22.399  0.00  0.00    +0.000 C 
ATOM     20  C   UNL     1      -4.978  14.537  22.287  0.00  0.00    +0.000 A 
ATOM     21  N   UNL     1      -5.905  14.407  23.243  0.00  0.00    +0.000 NA
ATOM     22  N   UNL     1      -6.668  13.383  22.833  0.00  0.00    +0.000 N 
ATOM     23  C   UNL     1      -7.721  12.921  23.707  0.00  0.00    +0.000 C 
ATOM     24  C   UNL     1      -6.312  12.889  21.601  0.00  0.00    +0.000 A 
ATOM     25  C   UNL     1      -6.999  11.742  20.954  0.00  0.00    +0.000 C 
ATOM     26  C   UNL     1      -5.186  13.604  21.235  0.00  0.00    +0.000 A 
ENDBRANCH   1  26
TORSDOF 2
ENDMDL
MODEL 7
REMARK VINA RESULT:      -6.3      1.449      7.447
REMARK  Name = 
REMARK  6 active torsions:
REMARK  status: ('A' for Active; 'I' for Inactive)
REMARK    1  A    between atoms: C_1  and  C_2
REMARK    2  A    between atoms: N_4  and  C_5
REMARK    3  A    between atoms: C_6  and  C_7
REMARK    4  A    between atoms: C_8  and  N_9
REMARK    5  A    between atoms: N_12  and  C_13
REMARK    6  A    between atoms: C_17  and  C_18
REMARK                            x       y       z     vdW  Elec       q    Type
REMARK                         _______ _______ _______ _____ _____    ______ ____
ROOT
ATOM      1  N   UNL     1       1.574   9.392  21.171  0.00  0.00    +0.000 N 
ATOM      2  C   UNL     1       1.478   8.339  20.266  0.00  0.00    +0.000 C 
ATOM      3  O   UNL     1       0.635   8.241  19.389  0.00  0.00    +0.000 OA
ATOM      4  N   UNL     1       2.502   7.418  20.465  0.00  0.00    +0.000 N 
ATOM      5  H   UNL     1       2.525   9.652  21.389  0.00  0.00    +0.000 HD
ATOM      6  H   UNL     1       2.572   7.168  21.448  0.00  0.00    +0.000 HD
ENDROOT
BRANCH   4   7
ATOM      7  C   UNL     1       2.654   6.300  19.574  0.00  0.00    +0.000 A 
ATOM      8  C   UNL     1       3.099   6.550  18.268  0.00  0.00    +0.000 A 
ATOM      9 CL   UNL     1       3.476   8.154  17.739  0.00  0.00    +0.000 Cl
ATOM     10  C   UNL     1       3.290   5.502  17.374  0.00  0.00    +0.000 A 
ATOM     11  C   UNL     1       3.009   4.183  17.758  0.00  0.00    +0.000 A 
ATOM     12  C   UNL     1       3.235   3.060  16.775  0.00  0.00    +0.000 C 
ATOM     13  C   UNL     1       2.521   3.899  19.038  0.00  0.00    +0.000 A 
ATOM     14  N   UNL     1       2.227   2.619  19.339  0.00  0.00    +0.000 NA
ATOM     15  C   UNL     1       1.717   2.333  20.553  0.00  0.00    +0.000 A 
ATOM     16  C   UNL     1       1.463   3.287  21.512  0.00  0.00    +0.000 A 
ATOM     17  C   UNL     1       1.770   4.609  21.209  0.00  0.00    +0.000 A 
ATOM     18  C   UNL     1       2.330   4.964  19.959  0.00  0.00    +0.000 A 
ENDBRANCH   4   7
BRANCH   1  26
ATOM     19  C   UNL     1       1.322  11.788  18.961  0.00  0.00    +0.000 C 
ATOM     20  C   UNL     1       0.545  11.514  20.196  0.00  0.00    +0.000 A 
ATOM     21  N   UNL     1      -0.490  12.308  20.497  0.00  0.00    +0.000 NA
ATOM     22  N   UNL     1      -1.006  11.777  21.615  0.00  0.00    +0.000 N 
ATOM     23  C   UNL     1      -2.098  12.468  22.261  0.00  0.00    +0.000 C 
ATOM     24  C   UNL     1      -0.386  10.616  22.011  0.00  0.00    +0.000 A 
ATOM     25  C   UNL     1      -0.773   9.863  23.231  0.00  0.00    +0.000 C 
ATOM     26  C   UNL     1       0.656  10.438  21.119  0.00  0.00    +0.000 A 
ENDBRANCH   1  26
TORSDOF 2
ENDMDL
MODEL 8
REMARK VINA RESULT:      -6.3      2.150      7.876
REMARK  Name = 
REMARK  6 active torsions:
REMARK  status: ('A' for Active; 'I' for Inactive)
REMARK    1  A    between atoms: C_1  and  C_2
REMARK    2  A    between atoms: N_4  and  C_5
REMARK    3  A    between atoms: C_6  and  C_7
REMARK    4  A    between atoms: C_8  and  N_9
REMARK    5  A    between atoms: N_12  and  C_13
REMARK    6  A    between atoms: C_17  and  C_18
REMARK                            x       y       z     vdW  Elec       q    Type
REMARK                         _______ _______ _______ _____ _____    ______ ____
ROOT
ATOM      1  N   UNL     1       1.142   8.805  19.007  0.00  0.00    +0.000 N 
ATOM      2  C   UNL     1       1.953   7.807  19.539  0.00  0.00    +0.000 C 
ATOM      3  O   UNL     1       2.387   7.788  20.679  0.00  0.00    +0.000 OA
ATOM      4  N   UNL     1       2.180   6.801  18.604  0.00  0.00    +0.000 N 
ATOM      5  H   UNL     1       0.433   8.456  18.378  0.00  0.00    +0.000 HD
ATOM      6  H   UNL     1       2.471   7.198  17.715  0.00  0.00    +0.000 HD
ENDROOT
BRANCH   4   7
ATOM      7  C   UNL     1       2.912   5.620  18.975  0.00  0.00    +0.000 A 
ATOM      8  C   UNL     1       2.263   4.661  19.766  0.00  0.00    +0.000 A 
ATOM      9 CL   UNL     1       0.622   4.874  20.272  0.00  0.00    +0.000 Cl
ATOM     10  C   UNL     1       2.915   3.486  20.129  0.00  0.00    +0.000 A 
ATOM     11  C   UNL     1       4.242   3.262  19.735  0.00  0.00    +0.000 A 
ATOM     12  C   UNL     1       4.925   1.976  20.131  0.00  0.00    +0.000 C 
ATOM     13  C   UNL     1       4.936   4.216  18.984  0.00  0.00    +0.000 A 
ATOM     14  N   UNL     1       6.222   3.967  18.669  0.00  0.00    +0.000 NA
ATOM     15  C   UNL     1       6.918   4.893  17.981  0.00  0.00    +0.000 A 
ATOM     16  C   UNL     1       6.389   6.100  17.586  0.00  0.00    +0.000 A 
ATOM     17  C   UNL     1       5.060   6.360  17.902  0.00  0.00    +0.000 A 
ATOM     18  C   UNL     1       4.274   5.414  18.602  0.00  0.00    +0.000 A 
ENDBRANCH   4   7
BRANCH   1  26
ATOM     19  C   UNL     1       1.844  11.970  18.588  0.00  0.00    +0.000 C 
ATOM     20  C   UNL     1       1.094  11.271  19.661  0.00  0.00    +0.000 A 
ATOM     21  N   UNL     1       0.530  11.999  20.633  0.00  0.00    +0.000 NA
ATOM     22  N   UNL     1      -0.105  11.100  21.399  0.00  0.00    +0.000 N 
ATOM     23  C   UNL     1      -0.747  11.562  22.607  0.00  0.00    +0.000 C 
ATOM     24  C   UNL     1      -0.036   9.815  20.915  0.00  0.00    +0.000 A 
ATOM     25  C   UNL     1      -0.646   8.651  21.606  0.00  0.00    +0.000 C 
ATOM     26  C   UNL     1       0.773   9.893  19.795  0.00  0.00    +0.000 A 
ENDBRANCH   1  26
TORSDOF 2
ENDMDL
MODEL 9
REMARK VINA RESULT:      -6.3      2.152      7.755
REMARK  Name = 
REMARK  6 active torsions:
REMARK  status: ('A' for Active; 'I' for Inactive)
REMARK    1  A    between atoms: C_1  and  C_2
REMARK    2  A    between atoms: N_4  and  C_5
REMARK    3  A    between atoms: C_6  and  C_7
REMARK    4  A    between atoms: C_8  and  N_9
REMARK    5  A    between atoms: N_12  and  C_13
REMARK    6  A    between atoms: C_17  and  C_18
REMARK                            x       y       z     vdW  Elec       q    Type
REMARK                         _______ _______ _______ _____ _____    ______ ____
ROOT
ATOM      1  N   UNL     1       1.096   8.946  19.248  0.00  0.00    +0.000 N 
ATOM      2  C   UNL     1       1.919   7.920  19.706  0.00  0.00    +0.000 C 
ATOM      3  O   UNL     1       2.429   7.870  20.813  0.00  0.00    +0.000 OA
ATOM      4  N   UNL     1       2.056   6.926  18.742  0.00  0.00    +0.000 N 
ATOM      5  H   UNL     1       0.338   8.625  18.664  0.00  0.00    +0.000 HD
ATOM      6  H   UNL     1       2.295   7.332  17.841  0.00  0.00    +0.000 HD
ENDROOT
BRANCH   4   7
ATOM      7  C   UNL     1       2.783   5.722  19.041  0.00  0.00    +0.000 A 
ATOM      8  C   UNL     1       2.151   4.745  19.823  0.00  0.00    +0.000 A 
ATOM      9 CL   UNL     1       0.534   4.964  20.402  0.00  0.00    +0.000 Cl
ATOM     10  C   UNL     1       2.798   3.549  20.119  0.00  0.00    +0.000 A 
ATOM     11  C   UNL     1       4.104   3.320  19.664  0.00  0.00    +0.000 A 
ATOM     12  C   UNL     1       4.782   2.011  19.987  0.00  0.00    +0.000 C 
ATOM     13  C   UNL     1       4.783   4.290  18.920  0.00  0.00    +0.000 A 
ATOM     14  N   UNL     1       6.052   4.034  18.544  0.00  0.00    +0.000 NA
ATOM     15  C   UNL     1       6.735   4.974  17.862  0.00  0.00    +0.000 A 
ATOM     16  C   UNL     1       6.210   6.201  17.531  0.00  0.00    +0.000 A 
ATOM     17  C   UNL     1       4.899   6.469  17.910  0.00  0.00    +0.000 A 
ATOM     18  C   UNL     1       4.126   5.511  18.607  0.00  0.00    +0.000 A 
ENDBRANCH   4   7
BRANCH   1  26
ATOM     19  C   UNL     1      -0.404   8.956  22.153  0.00  0.00    +0.000 C 
ATOM     20  C   UNL     1       0.125  10.068  21.324  0.00  0.00    +0.000 A 
ATOM     21  N   UNL     1       0.064  11.316  21.804  0.00  0.00    +0.000 NA
ATOM     22  N   UNL     1       0.659  12.066  20.866  0.00  0.00    +0.000 N 
ATOM     23  C   UNL     1       0.674  13.500  21.041  0.00  0.00    +0.000 C 
ATOM     24  C   UNL     1       1.174  11.336  19.821  0.00  0.00    +0.000 A 
ATOM     25  C   UNL     1       1.857  11.953  18.655  0.00  0.00    +0.000 C 
ATOM     26  C   UNL     1       0.809  10.027  20.078  0.00  0.00    +0.000 A 
ENDBRANCH   1  26
TORSDOF 2
ENDMDL
