MODEL 1
REMARK VINA RESULT:      -8.1      0.000      0.000
REMARK  Name = 
REMARK  7 active torsions:
REMARK  status: ('A' for Active; 'I' for Inactive)
REMARK    1  A    between atoms: C_1  and  N_2
REMARK    2  A    between atoms: C_5  and  N_6
REMARK    3  A    between atoms: N_9  and  C_10
REMARK    4  A    between atoms: C_23  and  C_24
REMARK    5  A    between atoms: C_24  and  C_25
REMARK    6  A    between atoms: C_24  and  C_26
REMARK    7  A    between atoms: C_24  and  C_27
REMARK                            x       y       z     vdW  Elec       q    Type
REMARK                         _______ _______ _______ _____ _____    ______ ____
ROOT
ATOM      1  N   UNL     1       1.182   9.458  18.915  0.00  0.00    +0.000 N 
ATOM      2  C   UNL     1       1.968   8.631  18.153  0.00  0.00    +0.000 C 
ATOM      3  O   UNL     1       2.352   8.987  17.047  0.00  0.00    +0.000 OA
ATOM      4  N   UNL     1       2.222   7.414  18.748  0.00  0.00    +0.000 N 
ATOM      5  H   UNL     1       1.024   9.265  19.892  0.00  0.00    +0.000 HD
ATOM      6  H   UNL     1       1.619   7.150  19.515  0.00  0.00    +0.000 HD
ENDROOT
BRANCH   1  11
ATOM      7  C   UNL     1      -0.150  13.048  21.929  0.00  0.00    +0.000 C 
ATOM      8  N   UNL     1      -0.030  12.515  20.576  0.00  0.00    +0.000 N 
ATOM      9  C   UNL     1       1.379  12.096  20.359  0.00  0.00    +0.000 C 
ATOM     10  C   UNL     1       1.721  11.887  18.917  0.00  0.00    +0.000 C 
ATOM     11  C   UNL     1       0.834  10.786  18.408  0.00  0.00    +0.000 C 
ATOM     12  C   UNL     1      -0.617  11.099  18.689  0.00  0.00    +0.000 A 
ATOM     13  C   UNL     1      -1.479  10.491  17.751  0.00  0.00    +0.000 A 
ATOM     14  C   UNL     1      -2.820  10.705  17.816  0.00  0.00    +0.000 A 
ATOM     15  C   UNL     1      -3.298  11.506  18.838  0.00  0.00    +0.000 A 
ATOM     16  C   UNL     1      -2.493  12.151  19.849  0.00  0.00    +0.000 A 
ATOM     17  C   UNL     1      -1.057  11.948  19.783  0.00  0.00    +0.000 A 
BRANCH  16  18
ATOM     18  C   UNL     1      -3.362  13.004  20.845  0.00  0.00    +0.000 C 
ATOM     19  C   UNL     1      -4.912  13.012  20.530  0.00  0.00    +0.000 C 
ATOM     20  C   UNL     1      -3.344  12.411  22.266  0.00  0.00    +0.000 C 
ATOM     21  C   UNL     1      -3.027  14.507  20.788  0.00  0.00    +0.000 C 
ENDBRANCH  16  18
ENDBRANCH   1  11
BRANCH   4  22
ATOM     22  C   UNL     1       3.023   6.391  18.172  0.00  0.00    +0.000 A 
ATOM     23  C   UNL     1       4.324   6.638  17.697  0.00  0.00    +0.000 A 
ATOM     24  C   UNL     1       5.079   5.662  17.048  0.00  0.00    +0.000 A 
ATOM     25  C   UNL     1       4.580   4.377  16.866  0.00  0.00    +0.000 A 
ATOM     26  C   UNL     1       3.313   4.113  17.390  0.00  0.00    +0.000 A 
ATOM     27  N   UNL     1       2.565   2.966  17.391  0.00  0.00    +0.000 N 
ATOM     28  N   UNL     1       1.382   3.076  17.999  0.00  0.00    +0.000 NA
ATOM     29  C   UNL     1       1.358   4.357  18.391  0.00  0.00    +0.000 A 
ATOM     30  C   UNL     1       2.535   5.070  18.045  0.00  0.00    +0.000 A 
ATOM     31  H   UNL     1       2.818   2.070  16.981  0.00  0.00    +0.000 HD
ENDBRANCH   4  22
TORSDOF 3
ENDMDL
MODEL 2
REMARK VINA RESULT:      -7.8      1.357      1.845
REMARK  Name = 
REMARK  7 active torsions:
REMARK  status: ('A' for Active; 'I' for Inactive)
REMARK    1  A    between atoms: C_1  and  N_2
REMARK    2  A    between atoms: C_5  and  N_6
REMARK    3  A    between atoms: N_9  and  C_10
REMARK    4  A    between atoms: C_23  and  C_24
REMARK    5  A    between atoms: C_24  and  C_25
REMARK    6  A    between atoms: C_24  and  C_26
REMARK    7  A    between atoms: C_24  and  C_27
REMARK                            x       y       z     vdW  Elec       q    Type
REMARK                         _______ _______ _______ _____ _____    ______ ____
ROOT
ATOM      1  N   UNL     1       1.541   9.177  19.142  0.00  0.00    +0.000 N 
ATOM      2  C   UNL     1       1.960   8.111  18.387  0.00  0.00    +0.000 C 
ATOM      3  O   UNL     1       2.036   8.204  17.169  0.00  0.00    +0.000 OA
ATOM      4  N   UNL     1       2.236   6.986  19.134  0.00  0.00    +0.000 N 
ATOM      5  H   UNL     1       1.660   9.181  20.143  0.00  0.00    +0.000 HD
ATOM      6  H   UNL     1       1.864   6.962  20.073  0.00  0.00    +0.000 HD
ENDROOT
BRANCH   1  11
ATOM      7  C   UNL     1       0.178  13.095  21.699  0.00  0.00    +0.000 C 
ATOM      8  N   UNL     1       0.321  12.411  20.418  0.00  0.00    +0.000 N 
ATOM      9  C   UNL     1       1.730  11.961  20.281  0.00  0.00    +0.000 C 
ATOM     10  C   UNL     1       2.101  11.587  18.879  0.00  0.00    +0.000 C 
ATOM     11  C   UNL     1       1.215  10.441  18.479  0.00  0.00    +0.000 C 
ATOM     12  C   UNL     1      -0.239  10.794  18.692  0.00  0.00    +0.000 A 
ATOM     13  C   UNL     1      -1.086  10.089  17.811  0.00  0.00    +0.000 A 
ATOM     14  C   UNL     1      -2.427  10.317  17.822  0.00  0.00    +0.000 A 
ATOM     15  C   UNL     1      -2.918  11.232  18.735  0.00  0.00    +0.000 A 
ATOM     16  C   UNL     1      -2.129  11.982  19.683  0.00  0.00    +0.000 A 
ATOM     17  C   UNL     1      -0.693  11.765  19.672  0.00  0.00    +0.000 A 
BRANCH  16  18
ATOM     18  C   UNL     1      -3.011  12.949  20.558  0.00  0.00    +0.000 C 
ATOM     19  C   UNL     1      -4.538  12.999  20.151  0.00  0.00    +0.000 C 
ATOM     20  C   UNL     1      -3.101  12.470  22.018  0.00  0.00    +0.000 C 
ATOM     21  C   UNL     1      -2.602  14.427  20.405  0.00  0.00    +0.000 C 
ENDBRANCH  16  18
ENDBRANCH   1  11
BRANCH   4  22
ATOM     22  C   UNL     1       2.703   5.758  18.592  0.00  0.00    +0.000 A 
ATOM     23  C   UNL     1       1.861   4.889  17.876  0.00  0.00    +0.000 A 
ATOM     24  C   UNL     1       2.288   3.641  17.422  0.00  0.00    +0.000 A 
ATOM     25  C   UNL     1       3.593   3.212  17.636  0.00  0.00    +0.000 A 
ATOM     26  C   UNL     1       4.448   4.098  18.295  0.00  0.00    +0.000 A 
ATOM     27  N   UNL     1       5.769   3.983  18.637  0.00  0.00    +0.000 N 
ATOM     28  N   UNL     1       6.275   5.047  19.264  0.00  0.00    +0.000 NA
ATOM     29  C   UNL     1       5.228   5.878  19.346  0.00  0.00    +0.000 A 
ATOM     30  C   UNL     1       4.048   5.353  18.760  0.00  0.00    +0.000 A 
ATOM     31  H   UNL     1       6.377   3.184  18.467  0.00  0.00    +0.000 HD
ENDBRANCH   4  22
TORSDOF 3
ENDMDL
MODEL 3
REMARK VINA RESULT:      -7.8      1.248      1.929
REMARK  Name = 
REMARK  7 active torsions:
REMARK  status: ('A' for Active; 'I' for Inactive)
REMARK    1  A    between atoms: C_1  and  N_2
REMARK    2  A    between atoms: C_5  and  N_6
REMARK    3  A    between atoms: N_9  and  C_10
REMARK    4  A    between atoms: C_23  and  C_24
REMARK    5  A    between atoms: C_24  and  C_25
REMARK    6  A    between atoms: C_24  and  C_26
REMARK    7  A    between atoms: C_24  and  C_27
REMARK                            x       y       z     vdW  Elec       q    Type
REMARK                         _______ _______ _______ _____ _____    ______ ____
ROOT
ATOM      1  N   UNL     1       1.480   9.718  19.122  0.00  0.00    +0.000 N 
ATOM      2  C   UNL     1       1.895   8.722  18.276  0.00  0.00    +0.000 C 
ATOM      3  O   UNL     1       1.898   8.898  17.065  0.00  0.00    +0.000 OA
ATOM      4  N   UNL     1       2.255   7.563  18.929  0.00  0.00    +0.000 N 
ATOM      5  H   UNL     1       1.656   9.662  20.114  0.00  0.00    +0.000 HD
ATOM      6  H   UNL     1       1.937   7.462  19.882  0.00  0.00    +0.000 HD
ENDROOT
BRANCH   1  11
ATOM      7  C   UNL     1      -0.078  13.333  21.997  0.00  0.00    +0.000 C 
ATOM      8  N   UNL     1       0.088  12.762  20.664  0.00  0.00    +0.000 N 
ATOM      9  C   UNL     1       1.520  12.410  20.478  0.00  0.00    +0.000 C 
ATOM     10  C   UNL     1       1.892  12.171  19.048  0.00  0.00    +0.000 C 
ATOM     11  C   UNL     1       1.070  11.009  18.566  0.00  0.00    +0.000 C 
ATOM     12  C   UNL     1      -0.399  11.255  18.819  0.00  0.00    +0.000 A 
ATOM     13  C   UNL     1      -1.215  10.572  17.892  0.00  0.00    +0.000 A 
ATOM     14  C   UNL     1      -2.566  10.717  17.934  0.00  0.00    +0.000 A 
ATOM     15  C   UNL     1      -3.098  11.526  18.922  0.00  0.00    +0.000 A 
ATOM     16  C   UNL     1      -2.342  12.246  19.920  0.00  0.00    +0.000 A 
ATOM     17  C   UNL     1      -0.896  12.116  19.878  0.00  0.00    +0.000 A 
BRANCH  16  18
ATOM     18  C   UNL     1      -3.268  13.085  20.877  0.00  0.00    +0.000 C 
ATOM     19  C   UNL     1      -4.806  13.041  20.513  0.00  0.00    +0.000 C 
ATOM     20  C   UNL     1      -3.277  12.512  22.306  0.00  0.00    +0.000 C 
ATOM     21  C   UNL     1      -2.977  14.597  20.808  0.00  0.00    +0.000 C 
ENDBRANCH  16  18
ENDBRANCH   1  11
BRANCH   4  22
ATOM     22  C   UNL     1       2.736   6.393  18.280  0.00  0.00    +0.000 A 
ATOM     23  C   UNL     1       2.001   5.194  18.258  0.00  0.00    +0.000 A 
ATOM     24  C   UNL     1       2.506   4.018  17.704  0.00  0.00    +0.000 A 
ATOM     25  C   UNL     1       3.766   3.991  17.115  0.00  0.00    +0.000 A 
ATOM     26  C   UNL     1       4.472   5.194  17.083  0.00  0.00    +0.000 A 
ATOM     27  N   UNL     1       5.706   5.496  16.570  0.00  0.00    +0.000 N 
ATOM     28  N   UNL     1       6.069   6.772  16.713  0.00  0.00    +0.000 NA
ATOM     29  C   UNL     1       5.031   7.314  17.362  0.00  0.00    +0.000 A 
ATOM     30  C   UNL     1       3.991   6.386  17.629  0.00  0.00    +0.000 A 
ATOM     31  H   UNL     1       6.351   4.856  16.111  0.00  0.00    +0.000 HD
ENDBRANCH   4  22
TORSDOF 3
ENDMDL
MODEL 4
REMARK VINA RESULT:      -7.7      0.586      1.007
REMARK  Name = 
REMARK  7 active torsions:
REMARK  status: ('A' for Active; 'I' for Inactive)
REMARK    1  A    between atoms: C_1  and  N_2
REMARK    2  A    between atoms: C_5  and  N_6
REMARK    3  A    between atoms: N_9  and  C_10
REMARK    4  A    between atoms: C_23  and  C_24
REMARK    5  A    between atoms: C_24  and  C_25
REMARK    6  A    between atoms: C_24  and  C_26
REMARK    7  A    between atoms: C_24  and  C_27
REMARK                            x       y       z     vdW  Elec       q    Type
REMARK                         _______ _______ _______ _____ _____    ______ ____
ROOT
ATOM      1  N   UNL     1       1.132   9.869  19.230  0.00  0.00    +0.000 N 
ATOM      2  C   UNL     1       1.831   9.009  18.423  0.00  0.00    +0.000 C 
ATOM      3  O   UNL     1       2.106   9.321  17.272  0.00  0.00    +0.000 OA
ATOM      4  N   UNL     1       2.135   7.810  19.033  0.00  0.00    +0.000 N 
ATOM      5  H   UNL     1       1.071   9.712  20.224  0.00  0.00    +0.000 HD
ATOM      6  H   UNL     1       1.610   7.579  19.865  0.00  0.00    +0.000 HD
ENDROOT
BRANCH   1  11
ATOM      7  C   UNL     1      -0.583  13.346  22.183  0.00  0.00    +0.000 C 
ATOM      8  N   UNL     1      -0.349  12.837  20.836  0.00  0.00    +0.000 N 
ATOM      9  C   UNL     1       1.092  12.497  20.706  0.00  0.00    +0.000 C 
ATOM     10  C   UNL     1       1.536  12.324  19.286  0.00  0.00    +0.000 C 
ATOM     11  C   UNL     1       0.745  11.183  18.713  0.00  0.00    +0.000 C 
ATOM     12  C   UNL     1      -0.736  11.414  18.904  0.00  0.00    +0.000 A 
ATOM     13  C   UNL     1      -1.503  10.772  17.907  0.00  0.00    +0.000 A 
ATOM     14  C   UNL     1      -2.855  10.912  17.888  0.00  0.00    +0.000 A 
ATOM     15  C   UNL     1      -3.439  11.673  18.884  0.00  0.00    +0.000 A 
ATOM     16  C   UNL     1      -2.736  12.349  19.950  0.00  0.00    +0.000 A 
ATOM     17  C   UNL     1      -1.290  12.225  19.974  0.00  0.00    +0.000 A 
BRANCH  16  18
ATOM     18  C   UNL     1      -3.712  13.142  20.896  0.00  0.00    +0.000 C 
ATOM     19  C   UNL     1      -3.375  14.679  21.054  0.00  0.00    +0.000 C 
ATOM     20  C   UNL     1      -5.139  13.202  20.319  0.00  0.00    +0.000 C 
ATOM     21  C   UNL     1      -3.646  12.659  22.358  0.00  0.00    +0.000 C 
ENDBRANCH  16  18
ENDBRANCH   1  11
BRANCH   4  22
ATOM     22  C   UNL     1       2.867   6.759  18.417  0.00  0.00    +0.000 A 
ATOM     23  C   UNL     1       3.955   7.007  17.561  0.00  0.00    +0.000 A 
ATOM     24  C   UNL     1       4.618   5.986  16.881  0.00  0.00    +0.000 A 
ATOM     25  C   UNL     1       4.243   4.657  17.047  0.00  0.00    +0.000 A 
ATOM     26  C   UNL     1       3.203   4.404  17.943  0.00  0.00    +0.000 A 
ATOM     27  N   UNL     1       2.621   3.226  18.331  0.00  0.00    +0.000 N 
ATOM     28  N   UNL     1       1.640   3.360  19.225  0.00  0.00    +0.000 NA
ATOM     29  C   UNL     1       1.572   4.685  19.407  0.00  0.00    +0.000 A 
ATOM     30  C   UNL     1       2.521   5.406  18.637  0.00  0.00    +0.000 A 
ATOM     31  H   UNL     1       2.859   2.291  18.008  0.00  0.00    +0.000 HD
ENDBRANCH   4  22
TORSDOF 3
ENDMDL
MODEL 5
REMARK VINA RESULT:      -7.6      1.731      2.307
REMARK  Name = 
REMARK  7 active torsions:
REMARK  status: ('A' for Active; 'I' for Inactive)
REMARK    1  A    between atoms: C_1  and  N_2
REMARK    2  A    between atoms: C_5  and  N_6
REMARK    3  A    between atoms: N_9  and  C_10
REMARK    4  A    between atoms: C_23  and  C_24
REMARK    5  A    between atoms: C_24  and  C_25
REMARK    6  A    between atoms: C_24  and  C_26
REMARK    7  A    between atoms: C_24  and  C_27
REMARK                            x       y       z     vdW  Elec       q    Type
REMARK                         _______ _______ _______ _____ _____    ______ ____
ROOT
ATOM      1  N   UNL     1       0.051  10.374  19.229  0.00  0.00    +0.000 N 
ATOM      2  C   UNL     1       0.990   9.594  18.602  0.00  0.00    +0.000 C 
ATOM      3  O   UNL     1       1.369   9.868  17.471  0.00  0.00    +0.000 OA
ATOM      4  N   UNL     1       1.397   8.515  19.356  0.00  0.00    +0.000 N 
ATOM      5  H   UNL     1      -0.122  10.280  20.218  0.00  0.00    +0.000 HD
ATOM      6  H   UNL     1       0.805   8.254  20.132  0.00  0.00    +0.000 HD
ENDROOT
BRANCH   1  11
ATOM      7  C   UNL     1      -3.387  13.163  21.267  0.00  0.00    +0.000 C 
ATOM      8  N   UNL     1      -2.595  12.786  20.101  0.00  0.00    +0.000 N 
ATOM      9  C   UNL     1      -1.157  12.840  20.471  0.00  0.00    +0.000 C 
ATOM     10  C   UNL     1      -0.239  12.845  19.289  0.00  0.00    +0.000 C 
ATOM     11  C   UNL     1      -0.469  11.560  18.546  0.00  0.00    +0.000 C 
ATOM     12  C   UNL     1      -1.936  11.387  18.225  0.00  0.00    +0.000 A 
ATOM     13  C   UNL     1      -2.133  10.605  17.066  0.00  0.00    +0.000 A 
ATOM     14  C   UNL     1      -3.389  10.386  16.595  0.00  0.00    +0.000 A 
ATOM     15  C   UNL     1      -4.448  10.929  17.301  0.00  0.00    +0.000 A 
ATOM     16  C   UNL     1      -4.339  11.723  18.502  0.00  0.00    +0.000 A 
ATOM     17  C   UNL     1      -3.004  11.982  19.009  0.00  0.00    +0.000 A 
BRANCH  16  18
ATOM     18  C   UNL     1      -5.745  12.196  19.031  0.00  0.00    +0.000 C 
ATOM     19  C   UNL     1      -6.967  11.786  18.115  0.00  0.00    +0.000 C 
ATOM     20  C   UNL     1      -6.114  11.506  20.357  0.00  0.00    +0.000 C 
ATOM     21  C   UNL     1      -5.882  13.730  19.062  0.00  0.00    +0.000 C 
ENDBRANCH  16  18
ENDBRANCH   1  11
BRANCH   4  22
ATOM     22  C   UNL     1       2.371   7.567  18.939  0.00  0.00    +0.000 A 
ATOM     23  C   UNL     1       3.257   7.823  17.877  0.00  0.00    +0.000 A 
ATOM     24  C   UNL     1       4.152   6.864  17.403  0.00  0.00    +0.000 A 
ATOM     25  C   UNL     1       4.225   5.605  17.990  0.00  0.00    +0.000 A 
ATOM     26  C   UNL     1       3.389   5.369  19.082  0.00  0.00    +0.000 A 
ATOM     27  N   UNL     1       3.237   4.261  19.873  0.00  0.00    +0.000 N 
ATOM     28  N   UNL     1       2.334   4.393  20.847  0.00  0.00    +0.000 NA
ATOM     29  C   UNL     1       1.870   5.636  20.666  0.00  0.00    +0.000 A 
ATOM     30  C   UNL     1       2.484   6.310  19.578  0.00  0.00    +0.000 A 
ATOM     31  H   UNL     1       3.729   3.375  19.784  0.00  0.00    +0.000 HD
ENDBRANCH   4  22
TORSDOF 3
ENDMDL
MODEL 6
REMARK VINA RESULT:      -7.0      2.072      2.914
REMARK  Name = 
REMARK  7 active torsions:
REMARK  status: ('A' for Active; 'I' for Inactive)
REMARK    1  A    between atoms: C_1  and  N_2
REMARK    2  A    between atoms: C_5  and  N_6
REMARK    3  A    between atoms: N_9  and  C_10
REMARK    4  A    between atoms: C_23  and  C_24
REMARK    5  A    between atoms: C_24  and  C_25
REMARK    6  A    between atoms: C_24  and  C_26
REMARK    7  A    between atoms: C_24  and  C_27
REMARK                            x       y       z     vdW  Elec       q    Type
REMARK                         _______ _______ _______ _____ _____    ______ ____
ROOT
ATOM      1  N   UNL     1       1.788   8.924  18.749  0.00  0.00    +0.000 N 
ATOM      2  C   UNL     1       2.288   7.803  18.137  0.00  0.00    +0.000 C 
ATOM      3  O   UNL     1       1.538   6.904  17.780  0.00  0.00    +0.000 OA
ATOM      4  N   UNL     1       3.661   7.812  18.015  0.00  0.00    +0.000 N 
ATOM      5  H   UNL     1       2.359   9.747  18.868  0.00  0.00    +0.000 HD
ATOM      6  H   UNL     1       4.164   8.467  18.598  0.00  0.00    +0.000 HD
ENDROOT
BRANCH   1  11
ATOM      7  C   UNL     1      -0.381  13.288  18.800  0.00  0.00    +0.000 C 
ATOM      8  N   UNL     1      -0.432  11.850  19.043  0.00  0.00    +0.000 N 
ATOM      9  C   UNL     1      -0.012  11.149  17.802  0.00  0.00    +0.000 C 
ATOM     10  C   UNL     1      -0.374   9.697  17.788  0.00  0.00    +0.000 C 
ATOM     11  C   UNL     1       0.343   9.053  18.941  0.00  0.00    +0.000 C 
ATOM     12  C   UNL     1       0.040   9.782  20.229  0.00  0.00    +0.000 A 
ATOM     13  C   UNL     1       0.137   8.932  21.352  0.00  0.00    +0.000 A 
ATOM     14  C   UNL     1      -0.152   9.404  22.594  0.00  0.00    +0.000 A 
ATOM     15  C   UNL     1      -0.510  10.735  22.712  0.00  0.00    +0.000 A 
ATOM     16  C   UNL     1      -0.616  11.678  21.624  0.00  0.00    +0.000 A 
ATOM     17  C   UNL     1      -0.330  11.186  20.288  0.00  0.00    +0.000 A 
BRANCH  16  18
ATOM     18  C   UNL     1      -1.068  13.104  22.115  0.00  0.00    +0.000 C 
ATOM     19  C   UNL     1      -1.520  13.168  23.629  0.00  0.00    +0.000 C 
ATOM     20  C   UNL     1       0.101  14.105  22.103  0.00  0.00    +0.000 C 
ATOM     21  C   UNL     1      -2.333  13.607  21.393  0.00  0.00    +0.000 C 
ENDBRANCH  16  18
ENDBRANCH   1  11
BRANCH   4  22
ATOM     22  C   UNL     1       4.419   6.776  17.403  0.00  0.00    +0.000 A 
ATOM     23  C   UNL     1       4.834   6.847  16.062  0.00  0.00    +0.000 A 
ATOM     24  C   UNL     1       5.497   5.795  15.429  0.00  0.00    +0.000 A 
ATOM     25  C   UNL     1       5.804   4.627  16.119  0.00  0.00    +0.000 A 
ATOM     26  C   UNL     1       5.445   4.579  17.467  0.00  0.00    +0.000 A 
ATOM     27  N   UNL     1       5.619   3.598  18.407  0.00  0.00    +0.000 N 
ATOM     28  N   UNL     1       5.150   3.901  19.619  0.00  0.00    +0.000 NA
ATOM     29  C   UNL     1       4.634   5.125  19.449  0.00  0.00    +0.000 A 
ATOM     30  C   UNL     1       4.782   5.616  18.126  0.00  0.00    +0.000 A 
ATOM     31  H   UNL     1       6.054   2.688  18.267  0.00  0.00    +0.000 HD
ENDBRANCH   4  22
TORSDOF 3
ENDMDL
MODEL 7
REMARK VINA RESULT:      -7.0      6.745      9.314
REMARK  Name = 
REMARK  7 active torsions:
REMARK  status: ('A' for Active; 'I' for Inactive)
REMARK    1  A    between atoms: C_1  and  N_2
REMARK    2  A    between atoms: C_5  and  N_6
REMARK    3  A    between atoms: N_9  and  C_10
REMARK    4  A    between atoms: C_23  and  C_24
REMARK    5  A    between atoms: C_24  and  C_25
REMARK    6  A    between atoms: C_24  and  C_26
REMARK    7  A    between atoms: C_24  and  C_27
REMARK                            x       y       z     vdW  Elec       q    Type
REMARK                         _______ _______ _______ _____ _____    ______ ____
ROOT
ATOM      1  N   UNL     1       8.510  10.097  18.192  0.00  0.00    +0.000 N 
ATOM      2  C   UNL     1       8.220   8.757  18.213  0.00  0.00    +0.000 C 
ATOM      3  O   UNL     1       8.891   7.987  18.887  0.00  0.00    +0.000 OA
ATOM      4  N   UNL     1       7.161   8.413  17.400  0.00  0.00    +0.000 N 
ATOM      5  H   UNL     1       7.857  10.762  17.806  0.00  0.00    +0.000 HD
ATOM      6  H   UNL     1       6.892   9.086  16.697  0.00  0.00    +0.000 HD
ENDROOT
BRANCH   1  11
ATOM      7  C   UNL     1       8.045  14.198  20.784  0.00  0.00    +0.000 C 
ATOM      8  N   UNL     1       8.888  13.142  20.233  0.00  0.00    +0.000 N 
ATOM      9  C   UNL     1       8.332  11.830  20.652  0.00  0.00    +0.000 C 
ATOM     10  C   UNL     1       9.292  10.694  20.478  0.00  0.00    +0.000 C 
ATOM     11  C   UNL     1       9.610  10.607  19.012  0.00  0.00    +0.000 C 
ATOM     12  C   UNL     1      10.087  11.943  18.492  0.00  0.00    +0.000 A 
ATOM     13  C   UNL     1      10.950  11.799  17.384  0.00  0.00    +0.000 A 
ATOM     14  C   UNL     1      11.520  12.894  16.814  0.00  0.00    +0.000 A 
ATOM     15  C   UNL     1      11.202  14.134  17.339  0.00  0.00    +0.000 A 
ATOM     16  C   UNL     1      10.317  14.374  18.454  0.00  0.00    +0.000 A 
ATOM     17  C   UNL     1       9.715  13.214  19.086  0.00  0.00    +0.000 A 
BRANCH  16  18
ATOM     18  C   UNL     1      10.198  15.906  18.798  0.00  0.00    +0.000 C 
ATOM     19  C   UNL     1      11.086  16.856  17.899  0.00  0.00    +0.000 C 
ATOM     20  C   UNL     1       8.785  16.445  18.506  0.00  0.00    +0.000 C 
ATOM     21  C   UNL     1      10.718  16.240  20.210  0.00  0.00    +0.000 C 
ENDBRANCH  16  18
ENDBRANCH   1  11
BRANCH   4  22
ATOM     22  C   UNL     1       6.654   7.092  17.260  0.00  0.00    +0.000 A 
ATOM     23  C   UNL     1       7.475   6.011  16.890  0.00  0.00    +0.000 A 
ATOM     24  C   UNL     1       6.968   4.733  16.660  0.00  0.00    +0.000 A 
ATOM     25  C   UNL     1       5.612   4.464  16.819  0.00  0.00    +0.000 A 
ATOM     26  C   UNL     1       4.806   5.521  17.244  0.00  0.00    +0.000 A 
ATOM     27  N   UNL     1       3.462   5.575  17.504  0.00  0.00    +0.000 N 
ATOM     28  N   UNL     1       3.022   6.770  17.905  0.00  0.00    +0.000 NA
ATOM     29  C   UNL     1       4.128   7.524  17.886  0.00  0.00    +0.000 A 
ATOM     30  C   UNL     1       5.286   6.810  17.481  0.00  0.00    +0.000 A 
ATOM     31  H   UNL     1       2.791   4.815  17.416  0.00  0.00    +0.000 HD
ENDBRANCH   4  22
TORSDOF 3
ENDMDL
MODEL 8
REMARK VINA RESULT:      -6.7      2.645      3.580
REMARK  Name = 
REMARK  7 active torsions:
REMARK  status: ('A' for Active; 'I' for Inactive)
REMARK    1  A    between atoms: C_1  and  N_2
REMARK    2  A    between atoms: C_5  and  N_6
REMARK    3  A    between atoms: N_9  and  C_10
REMARK    4  A    between atoms: C_23  and  C_24
REMARK    5  A    between atoms: C_24  and  C_25
REMARK    6  A    between atoms: C_24  and  C_26
REMARK    7  A    between atoms: C_24  and  C_27
REMARK                            x       y       z     vdW  Elec       q    Type
REMARK                         _______ _______ _______ _____ _____    ______ ____
ROOT
ATOM      1  N   UNL     1       1.796   8.529  19.995  0.00  0.00    +0.000 N 
ATOM      2  C   UNL     1       2.023   7.271  19.498  0.00  0.00    +0.000 C 
ATOM      3  O   UNL     1       1.361   6.845  18.561  0.00  0.00    +0.000 OA
ATOM      4  N   UNL     1       3.010   6.585  20.173  0.00  0.00    +0.000 N 
ATOM      5  H   UNL     1       2.453   8.962  20.626  0.00  0.00    +0.000 HD
ATOM      6  H   UNL     1       3.265   6.937  21.085  0.00  0.00    +0.000 HD
ENDROOT
BRANCH   1  11
ATOM      7  C   UNL     1       2.772  13.118  18.678  0.00  0.00    +0.000 C 
ATOM      8  N   UNL     1       1.805  12.052  18.916  0.00  0.00    +0.000 N 
ATOM      9  C   UNL     1       2.216  10.860  18.131  0.00  0.00    +0.000 C 
ATOM     10  C   UNL     1       1.129   9.839  17.988  0.00  0.00    +0.000 C 
ATOM     11  C   UNL     1       0.776   9.374  19.372  0.00  0.00    +0.000 C 
ATOM     12  C   UNL     1       0.445  10.550  20.260  0.00  0.00    +0.000 A 
ATOM     13  C   UNL     1      -0.449  10.196  21.293  0.00  0.00    +0.000 A 
ATOM     14  C   UNL     1      -0.900  11.140  22.161  0.00  0.00    +0.000 A 
ATOM     15  C   UNL     1      -0.433  12.433  22.009  0.00  0.00    +0.000 A 
ATOM     16  C   UNL     1       0.493  12.880  20.995  0.00  0.00    +0.000 A 
ATOM     17  C   UNL     1       0.971  11.888  20.048  0.00  0.00    +0.000 A 
BRANCH  16  18
ATOM     18  C   UNL     1       0.793  14.421  21.102  0.00  0.00    +0.000 C 
ATOM     19  C   UNL     1      -0.008  15.173  22.239  0.00  0.00    +0.000 C 
ATOM     20  C   UNL     1       2.249  14.689  21.527  0.00  0.00    +0.000 C 
ATOM     21  C   UNL     1       0.352  15.200  19.847  0.00  0.00    +0.000 C 
ENDBRANCH  16  18
ENDBRANCH   1  11
BRANCH   4  22
ATOM     22  C   UNL     1       3.444   5.272  19.843  0.00  0.00    +0.000 A 
ATOM     23  C   UNL     1       2.749   4.125  20.269  0.00  0.00    +0.000 A 
ATOM     24  C   UNL     1       3.220   2.835  20.027  0.00  0.00    +0.000 A 
ATOM     25  C   UNL     1       4.398   2.626  19.318  0.00  0.00    +0.000 A 
ATOM     26  C   UNL     1       5.057   3.761  18.843  0.00  0.00    +0.000 A 
ATOM     27  N   UNL     1       6.208   3.889  18.112  0.00  0.00    +0.000 N 
ATOM     28  N   UNL     1       6.545   5.148  17.824  0.00  0.00    +0.000 NA
ATOM     29  C   UNL     1       5.579   5.865  18.411  0.00  0.00    +0.000 A 
ATOM     30  C   UNL     1       4.609   5.064  19.069  0.00  0.00    +0.000 A 
ATOM     31  H   UNL     1       6.811   3.137  17.784  0.00  0.00    +0.000 HD
ENDBRANCH   4  22
TORSDOF 3
ENDMDL
MODEL 9
REMARK VINA RESULT:      -6.7      2.429      3.136
REMARK  Name = 
REMARK  7 active torsions:
REMARK  status: ('A' for Active; 'I' for Inactive)
REMARK    1  A    between atoms: C_1  and  N_2
REMARK    2  A    between atoms: C_5  and  N_6
REMARK    3  A    between atoms: N_9  and  C_10
REMARK    4  A    between atoms: C_23  and  C_24
REMARK    5  A    between atoms: C_24  and  C_25
REMARK    6  A    between atoms: C_24  and  C_26
REMARK    7  A    between atoms: C_24  and  C_27
REMARK                            x       y       z     vdW  Elec       q    Type
REMARK                         _______ _______ _______ _____ _____    ______ ____
ROOT
ATOM      1  N   UNL     1       1.725   8.680  20.020  0.00  0.00    +0.000 N 
ATOM      2  C   UNL     1       2.021   7.475  19.436  0.00  0.00    +0.000 C 
ATOM      3  O   UNL     1       1.450   7.124  18.412  0.00  0.00    +0.000 OA
ATOM      4  N   UNL     1       2.965   6.748  20.129  0.00  0.00    +0.000 N 
ATOM      5  H   UNL     1       2.317   9.066  20.739  0.00  0.00    +0.000 HD
ATOM      6  H   UNL     1       3.135   7.022  21.087  0.00  0.00    +0.000 HD
ENDROOT
BRANCH   1  11
ATOM      7  C   UNL     1       2.841  13.267  18.812  0.00  0.00    +0.000 C 
ATOM      8  N   UNL     1       1.843  12.221  19.008  0.00  0.00    +0.000 N 
ATOM      9  C   UNL     1       2.244  11.034  18.210  0.00  0.00    +0.000 C 
ATOM     10  C   UNL     1       1.137  10.043  18.022  0.00  0.00    +0.000 C 
ATOM     11  C   UNL     1       0.740   9.561  19.389  0.00  0.00    +0.000 C 
ATOM     12  C   UNL     1       0.416  10.729  20.291  0.00  0.00    +0.000 A 
ATOM     13  C   UNL     1      -0.510  10.377  21.296  0.00  0.00    +0.000 A 
ATOM     14  C   UNL     1      -0.959  11.316  22.171  0.00  0.00    +0.000 A 
ATOM     15  C   UNL     1      -0.458  12.600  22.054  0.00  0.00    +0.000 A 
ATOM     16  C   UNL     1       0.502  13.042  21.071  0.00  0.00    +0.000 A 
ATOM     17  C   UNL     1       0.979  12.057  20.117  0.00  0.00    +0.000 A 
BRANCH  16  18
ATOM     18  C   UNL     1       0.836  14.574  21.213  0.00  0.00    +0.000 C 
ATOM     19  C   UNL     1       0.045  15.318  22.362  0.00  0.00    +0.000 C 
ATOM     20  C   UNL     1       2.294  14.799  21.654  0.00  0.00    +0.000 C 
ATOM     21  C   UNL     1       0.421  15.390  19.974  0.00  0.00    +0.000 C 
ENDBRANCH  16  18
ENDBRANCH   1  11
BRANCH   4  22
ATOM     22  C   UNL     1       3.455   5.477  19.723  0.00  0.00    +0.000 A 
ATOM     23  C   UNL     1       4.722   5.318  19.133  0.00  0.00    +0.000 A 
ATOM     24  C   UNL     1       5.171   4.090  18.647  0.00  0.00    +0.000 A 
ATOM     25  C   UNL     1       4.384   2.948  18.756  0.00  0.00    +0.000 A 
ATOM     26  C   UNL     1       3.151   3.092  19.396  0.00  0.00    +0.000 A 
ATOM     27  N   UNL     1       2.171   2.175  19.670  0.00  0.00    +0.000 N 
ATOM     28  N   UNL     1       1.111   2.671  20.312  0.00  0.00    +0.000 NA
ATOM     29  C   UNL     1       1.413   3.969  20.441  0.00  0.00    +0.000 A 
ATOM     30  C   UNL     1       2.676   4.308  19.891  0.00  0.00    +0.000 A 
ATOM     31  H   UNL     1       2.176   1.186  19.432  0.00  0.00    +0.000 HD
ENDBRANCH   4  22
TORSDOF 3
ENDMDL
