MODEL 1
REMARK VINA RESULT:      -8.5      0.000      0.000
REMARK  Name = 
REMARK  5 active torsions:
REMARK  status: ('A' for Active; 'I' for Inactive)
REMARK    1  A    between atoms: C_1  and  C_2
REMARK    2  A    between atoms: C_2  and  C_3
REMARK    3  A    between atoms: C_3  and  O_4
REMARK    4  A    between atoms: C_26  and  C_27
REMARK    5  A    between atoms: N_30  and  C_31
REMARK                            x       y       z     vdW  Elec       q    Type
REMARK                         _______ _______ _______ _____ _____    ______ ____
ROOT
ATOM      1  C   UNL     1      -0.909  11.938  21.419  0.00  0.00    +0.000 C 
ATOM      2  C   UNL     1      -1.901  12.492  20.357  0.00  0.00    +0.000 C 
ATOM      3  O   UNL     1      -3.099  12.661  20.567  0.00  0.00    +0.000 OA
ATOM      4  O   UNL     1      -1.290  13.010  19.263  0.00  0.00    +0.000 OA
ATOM      5  C   UNL     1      -0.464  12.096  18.544  0.00  0.00    +0.000 C 
ATOM      6  C   UNL     1       0.258  11.098  19.390  0.00  0.00    +0.000 A 
ATOM      7  C   UNL     1       0.045  10.883  20.699  0.00  0.00    +0.000 A 
ATOM      8  C   UNL     1       0.429   9.443  21.173  0.00  0.00    +0.000 A 
ATOM      9  C   UNL     1       1.170   8.582  20.395  0.00  0.00    +0.000 A 
ATOM     10  N   UNL     1       1.605   9.112  19.185  0.00  0.00    +0.000 N 
ATOM     11  C   UNL     1       1.199  10.258  18.613  0.00  0.00    +0.000 A 
ATOM     12  O   UNL     1       1.542  10.597  17.467  0.00  0.00    +0.000 OA
ATOM     13  C   UNL     1       2.492   8.246  18.435  0.00  0.00    +0.000 C 
ATOM     14  C   UNL     1       2.588   7.023  19.259  0.00  0.00    +0.000 A 
ATOM     15  C   UNL     1       1.739   7.125  20.370  0.00  0.00    +0.000 A 
ATOM     16  N   UNL     1       1.504   6.040  21.136  0.00  0.00    +0.000 NA
ATOM     17  C   UNL     1       2.165   4.848  20.805  0.00  0.00    +0.000 A 
ATOM     18  C   UNL     1       1.920   3.639  21.490  0.00  0.00    +0.000 A 
ATOM     19  C   UNL     1       2.587   2.418  21.228  0.00  0.00    +0.000 A 
ATOM     20  C   UNL     1       3.539   2.348  20.230  0.00  0.00    +0.000 A 
ATOM     21  C   UNL     1       3.775   3.494  19.481  0.00  0.00    +0.000 A 
ATOM     22  C   UNL     1       3.123   4.737  19.749  0.00  0.00    +0.000 A 
ATOM     23  C   UNL     1       3.354   5.885  18.965  0.00  0.00    +0.000 A 
ENDROOT
BRANCH  23  24
ATOM     24  C   UNL     1       4.345   5.921  17.874  0.00  0.00    +0.000 A 
ATOM     25  C   UNL     1       4.833   6.988  17.081  0.00  0.00    +0.000 A 
ATOM     26  N   UNL     1       5.776   6.616  16.213  0.00  0.00    +0.000 NA
ATOM     27  N   UNL     1       5.903   5.286  16.413  0.00  0.00    +0.000 N 
ATOM     28  C   UNL     1       5.093   4.841  17.431  0.00  0.00    +0.000 A 
BRANCH  27  29
ATOM     29  C   UNL     1       6.939   4.520  15.700  0.00  0.00    +0.000 C 
ATOM     30  C   UNL     1       7.587   5.216  14.495  0.00  0.00    +0.000 C 
ATOM     31  C   UNL     1       6.641   5.277  13.302  0.00  0.00    +0.000 C 
ATOM     32  C   UNL     1       6.095   3.895  12.983  0.00  0.00    +0.000 C 
ATOM     33  C   UNL     1       5.561   3.192  14.225  0.00  0.00    +0.000 C 
ATOM     34  O   UNL     1       6.469   3.210  15.325  0.00  0.00    +0.000 OA
ENDBRANCH  27  29
ENDBRANCH  23  24
BRANCH   1  36
ATOM     35  C   UNL     1      -1.198  13.883  23.369  0.00  0.00    +0.000 C 
ATOM     36  C   UNL     1      -0.452  13.289  22.156  0.00  0.00    +0.000 C 
ENDBRANCH   1  36
BRANCH   1  37
ATOM     37  O   UNL     1      -1.652  11.222  22.422  0.00  0.00    +0.000 OA
ATOM     38  H   UNL     1      -2.471  10.913  21.982  0.00  0.00    +0.000 HD
ENDBRANCH   1  37
TORSDOF 4
ENDMDL
MODEL 2
REMARK VINA RESULT:      -8.2      1.711      2.315
REMARK  Name = 
REMARK  5 active torsions:
REMARK  status: ('A' for Active; 'I' for Inactive)
REMARK    1  A    between atoms: C_1  and  C_2
REMARK    2  A    between atoms: C_2  and  C_3
REMARK    3  A    between atoms: C_3  and  O_4
REMARK    4  A    between atoms: C_26  and  C_27
REMARK    5  A    between atoms: N_30  and  C_31
REMARK                            x       y       z     vdW  Elec       q    Type
REMARK                         _______ _______ _______ _____ _____    ______ ____
ROOT
ATOM      1  C   UNL     1      -1.259  12.045  22.128  0.00  0.00    +0.000 C 
ATOM      2  C   UNL     1      -2.137  12.813  21.098  0.00  0.00    +0.000 C 
ATOM      3  O   UNL     1      -3.332  13.042  21.260  0.00  0.00    +0.000 OA
ATOM      4  O   UNL     1      -1.419  13.428  20.126  0.00  0.00    +0.000 OA
ATOM      5  C   UNL     1      -0.608  12.560  19.334  0.00  0.00    +0.000 C 
ATOM      6  C   UNL     1      -0.015  11.404  20.072  0.00  0.00    +0.000 A 
ATOM      7  C   UNL     1      -0.332  11.029  21.323  0.00  0.00    +0.000 A 
ATOM      8  C   UNL     1      -0.078   9.512  21.610  0.00  0.00    +0.000 A 
ATOM      9  C   UNL     1       0.654   8.712  20.764  0.00  0.00    +0.000 A 
ATOM     10  N   UNL     1       1.207   9.368  19.668  0.00  0.00    +0.000 N 
ATOM     11  C   UNL     1       0.919  10.609  19.241  0.00  0.00    +0.000 A 
ATOM     12  O   UNL     1       1.362  11.075  18.177  0.00  0.00    +0.000 OA
ATOM     13  C   UNL     1       2.082   8.548  18.856  0.00  0.00    +0.000 C 
ATOM     14  C   UNL     1       2.039   7.220  19.503  0.00  0.00    +0.000 A 
ATOM     15  C   UNL     1       1.125   7.233  20.566  0.00  0.00    +0.000 A 
ATOM     16  N   UNL     1       0.766   6.074  21.156  0.00  0.00    +0.000 NA
ATOM     17  C   UNL     1       1.366   4.892  20.699  0.00  0.00    +0.000 A 
ATOM     18  C   UNL     1       0.994   3.623  21.190  0.00  0.00    +0.000 A 
ATOM     19  C   UNL     1       1.594   2.402  20.798  0.00  0.00    +0.000 A 
ATOM     20  C   UNL     1       2.605   2.397  19.858  0.00  0.00    +0.000 A 
ATOM     21  C   UNL     1       2.969   3.613  19.294  0.00  0.00    +0.000 A 
ATOM     22  C   UNL     1       2.385   4.854  19.696  0.00  0.00    +0.000 A 
ATOM     23  C   UNL     1       2.745   6.077  19.097  0.00  0.00    +0.000 A 
ENDROOT
BRANCH  23  24
ATOM     24  C   UNL     1       3.809   6.187  18.082  0.00  0.00    +0.000 A 
ATOM     25  C   UNL     1       3.782   6.613  16.732  0.00  0.00    +0.000 A 
ATOM     26  N   UNL     1       4.983   6.611  16.150  0.00  0.00    +0.000 NA
ATOM     27  N   UNL     1       5.816   6.159  17.112  0.00  0.00    +0.000 N 
ATOM     28  C   UNL     1       5.156   5.935  18.298  0.00  0.00    +0.000 A 
BRANCH  27  29
ATOM     29  C   UNL     1       7.270   6.113  16.881  0.00  0.00    +0.000 C 
ATOM     30  C   UNL     1       8.106   5.419  17.965  0.00  0.00    +0.000 C 
ATOM     31  C   UNL     1       8.212   6.268  19.226  0.00  0.00    +0.000 C 
ATOM     32  C   UNL     1       8.698   7.668  18.887  0.00  0.00    +0.000 C 
ATOM     33  C   UNL     1       7.915   8.280  17.732  0.00  0.00    +0.000 C 
ATOM     34  O   UNL     1       7.805   7.421  16.598  0.00  0.00    +0.000 OA
ENDBRANCH  27  29
ENDBRANCH  23  24
BRANCH   1  36
ATOM     35  C   UNL     1      -1.730  14.148  23.866  0.00  0.00    +0.000 C 
ATOM     36  C   UNL     1      -0.764  13.243  23.074  0.00  0.00    +0.000 C 
ENDBRANCH   1  36
BRANCH   1  37
ATOM     37  O   UNL     1      -2.116  11.257  22.975  0.00  0.00    +0.000 OA
ATOM     38  H   UNL     1      -2.932  11.785  23.099  0.00  0.00    +0.000 HD
ENDBRANCH   1  37
TORSDOF 4
ENDMDL
MODEL 3
REMARK VINA RESULT:      -8.2      3.189      9.004
REMARK  Name = 
REMARK  5 active torsions:
REMARK  status: ('A' for Active; 'I' for Inactive)
REMARK    1  A    between atoms: C_1  and  C_2
REMARK    2  A    between atoms: C_2  and  C_3
REMARK    3  A    between atoms: C_3  and  O_4
REMARK    4  A    between atoms: C_26  and  C_27
REMARK    5  A    between atoms: N_30  and  C_31
REMARK                            x       y       z     vdW  Elec       q    Type
REMARK                         _______ _______ _______ _____ _____    ______ ____
ROOT
ATOM      1  C   UNL     1       2.676   3.294  19.744  0.00  0.00    +0.000 C 
ATOM      2  C   UNL     1       4.210   3.042  19.801  0.00  0.00    +0.000 C 
ATOM      3  O   UNL     1       4.741   2.251  20.576  0.00  0.00    +0.000 OA
ATOM      4  O   UNL     1       4.887   3.578  18.756  0.00  0.00    +0.000 OA
ATOM      5  C   UNL     1       4.758   4.992  18.615  0.00  0.00    +0.000 C 
ATOM      6  C   UNL     1       3.422   5.545  18.990  0.00  0.00    +0.000 A 
ATOM      7  C   UNL     1       2.441   4.865  19.608  0.00  0.00    +0.000 A 
ATOM      8  C   UNL     1       1.463   5.773  20.425  0.00  0.00    +0.000 A 
ATOM      9  C   UNL     1       1.441   7.143  20.293  0.00  0.00    +0.000 A 
ATOM     10  N   UNL     1       2.310   7.653  19.333  0.00  0.00    +0.000 N 
ATOM     11  C   UNL     1       3.297   6.993  18.705  0.00  0.00    +0.000 A 
ATOM     12  O   UNL     1       4.112   7.556  17.954  0.00  0.00    +0.000 OA
ATOM     13  C   UNL     1       2.186   9.079  19.110  0.00  0.00    +0.000 C 
ATOM     14  C   UNL     1       1.146   9.508  20.068  0.00  0.00    +0.000 A 
ATOM     15  C   UNL     1       0.754   8.425  20.868  0.00  0.00    +0.000 A 
ATOM     16  N   UNL     1      -0.022   8.637  21.950  0.00  0.00    +0.000 NA
ATOM     17  C   UNL     1      -0.444   9.949  22.208  0.00  0.00    +0.000 A 
ATOM     18  C   UNL     1      -1.184  10.287  23.360  0.00  0.00    +0.000 A 
ATOM     19  C   UNL     1      -1.673  11.584  23.650  0.00  0.00    +0.000 A 
ATOM     20  C   UNL     1      -1.418  12.630  22.785  0.00  0.00    +0.000 A 
ATOM     21  C   UNL     1      -0.640  12.368  21.665  0.00  0.00    +0.000 A 
ATOM     22  C   UNL     1      -0.158  11.059  21.351  0.00  0.00    +0.000 A 
ATOM     23  C   UNL     1       0.652  10.812  20.225  0.00  0.00    +0.000 A 
ENDROOT
BRANCH  23  24
ATOM     24  C   UNL     1       0.988  11.854  19.239  0.00  0.00    +0.000 A 
ATOM     25  C   UNL     1       0.251  12.402  18.161  0.00  0.00    +0.000 A 
ATOM     26  N   UNL     1       0.897  13.378  17.518  0.00  0.00    +0.000 NA
ATOM     27  N   UNL     1       2.083  13.466  18.157  0.00  0.00    +0.000 N 
ATOM     28  C   UNL     1       2.158  12.598  19.222  0.00  0.00    +0.000 A 
BRANCH  27  29
ATOM     29  C   UNL     1       3.050  14.518  17.797  0.00  0.00    +0.000 C 
ATOM     30  C   UNL     1       4.384  14.500  18.557  0.00  0.00    +0.000 C 
ATOM     31  C   UNL     1       4.221  14.973  19.996  0.00  0.00    +0.000 C 
ATOM     32  C   UNL     1       3.517  16.320  20.037  0.00  0.00    +0.000 C 
ATOM     33  C   UNL     1       2.255  16.331  19.183  0.00  0.00    +0.000 C 
ATOM     34  O   UNL     1       2.456  15.830  17.862  0.00  0.00    +0.000 OA
ENDBRANCH  27  29
ENDBRANCH  23  24
BRANCH   1  36
ATOM     35  C   UNL     1       2.612   2.178  17.210  0.00  0.00    +0.000 C 
ATOM     36  C   UNL     1       2.211   2.167  18.700  0.00  0.00    +0.000 C 
ENDBRANCH   1  36
BRANCH   1  37
ATOM     37  O   UNL     1       2.089   2.884  20.992  0.00  0.00    +0.000 OA
ATOM     38  H   UNL     1       1.459   2.167  20.770  0.00  0.00    +0.000 HD
ENDBRANCH   1  37
TORSDOF 4
ENDMDL
MODEL 4
REMARK VINA RESULT:      -7.9      7.403      8.695
REMARK  Name = 
REMARK  5 active torsions:
REMARK  status: ('A' for Active; 'I' for Inactive)
REMARK    1  A    between atoms: C_1  and  C_2
REMARK    2  A    between atoms: C_2  and  C_3
REMARK    3  A    between atoms: C_3  and  O_4
REMARK    4  A    between atoms: C_26  and  C_27
REMARK    5  A    between atoms: N_30  and  C_31
REMARK                            x       y       z     vdW  Elec       q    Type
REMARK                         _______ _______ _______ _____ _____    ______ ____
ROOT
ATOM      1  C   UNL     1      -0.920  14.586  20.781  0.00  0.00    +0.000 C 
ATOM      2  C   UNL     1      -1.434  13.383  19.939  0.00  0.00    +0.000 C 
ATOM      3  O   UNL     1      -2.321  12.622  20.313  0.00  0.00    +0.000 OA
ATOM      4  O   UNL     1      -1.000  13.396  18.655  0.00  0.00    +0.000 OA
ATOM      5  C   UNL     1       0.418  13.368  18.496  0.00  0.00    +0.000 C 
ATOM      6  C   UNL     1       1.184  14.111  19.542  0.00  0.00    +0.000 A 
ATOM      7  C   UNL     1       0.671  14.615  20.677  0.00  0.00    +0.000 A 
ATOM      8  C   UNL     1       1.715  14.759  21.832  0.00  0.00    +0.000 A 
ATOM      9  C   UNL     1       3.071  14.647  21.622  0.00  0.00    +0.000 A 
ATOM     10  N   UNL     1       3.445  14.462  20.294  0.00  0.00    +0.000 N 
ATOM     11  C   UNL     1       2.638  14.161  19.263  0.00  0.00    +0.000 A 
ATOM     12  O   UNL     1       3.068  13.884  18.130  0.00  0.00    +0.000 OA
ATOM     13  C   UNL     1       4.875  14.477  20.066  0.00  0.00    +0.000 C 
ATOM     14  C   UNL     1       5.456  14.657  21.413  0.00  0.00    +0.000 A 
ATOM     15  C   UNL     1       4.440  14.650  22.379  0.00  0.00    +0.000 A 
ATOM     16  N   UNL     1       4.759  14.581  23.687  0.00  0.00    +0.000 NA
ATOM     17  C   UNL     1       6.118  14.560  24.030  0.00  0.00    +0.000 A 
ATOM     18  C   UNL     1       6.554  14.401  25.363  0.00  0.00    +0.000 A 
ATOM     19  C   UNL     1       7.909  14.416  25.773  0.00  0.00    +0.000 A 
ATOM     20  C   UNL     1       8.913  14.576  24.839  0.00  0.00    +0.000 A 
ATOM     21  C   UNL     1       8.545  14.674  23.504  0.00  0.00    +0.000 A 
ATOM     22  C   UNL     1       7.180  14.680  23.080  0.00  0.00    +0.000 A 
ATOM     23  C   UNL     1       6.822  14.754  21.719  0.00  0.00    +0.000 A 
ENDROOT
BRANCH  23  24
ATOM     24  C   UNL     1       7.812  14.923  20.640  0.00  0.00    +0.000 A 
ATOM     25  C   UNL     1       8.427  16.078  20.100  0.00  0.00    +0.000 A 
ATOM     26  N   UNL     1       9.320  15.807  19.145  0.00  0.00    +0.000 NA
ATOM     27  N   UNL     1       9.284  14.462  19.032  0.00  0.00    +0.000 N 
ATOM     28  C   UNL     1       8.424  13.893  19.942  0.00  0.00    +0.000 A 
BRANCH  27  29
ATOM     29  C   UNL     1      10.221  13.763  18.135  0.00  0.00    +0.000 C 
ATOM     30  C   UNL     1      10.044  12.242  18.025  0.00  0.00    +0.000 C 
ATOM     31  C   UNL     1      10.522  11.525  19.282  0.00  0.00    +0.000 C 
ATOM     32  C   UNL     1      11.940  11.947  19.630  0.00  0.00    +0.000 C 
ATOM     33  C   UNL     1      12.103  13.462  19.622  0.00  0.00    +0.000 C 
ATOM     34  O   UNL     1      11.592  14.084  18.443  0.00  0.00    +0.000 OA
ENDBRANCH  27  29
ENDBRANCH  23  24
BRANCH   1  36
ATOM     35  C   UNL     1      -1.476  16.989  19.522  0.00  0.00    +0.000 C 
ATOM     36  C   UNL     1      -1.927  15.747  20.318  0.00  0.00    +0.000 C 
ENDBRANCH   1  36
BRANCH   1  37
ATOM     37  O   UNL     1      -1.250  14.363  22.164  0.00  0.00    +0.000 OA
ATOM     38  H   UNL     1      -2.165  14.013  22.169  0.00  0.00    +0.000 HD
ENDBRANCH   1  37
TORSDOF 4
ENDMDL
MODEL 5
REMARK VINA RESULT:      -7.9      8.043     12.316
REMARK  Name = 
REMARK  5 active torsions:
REMARK  status: ('A' for Active; 'I' for Inactive)
REMARK    1  A    between atoms: C_1  and  C_2
REMARK    2  A    between atoms: C_2  and  C_3
REMARK    3  A    between atoms: C_3  and  O_4
REMARK    4  A    between atoms: C_26  and  C_27
REMARK    5  A    between atoms: N_30  and  C_31
REMARK                            x       y       z     vdW  Elec       q    Type
REMARK                         _______ _______ _______ _____ _____    ______ ____
ROOT
ATOM      1  C   UNL     1       9.492  16.084  18.767  0.00  0.00    +0.000 C 
ATOM      2  C   UNL     1      10.074  14.642  18.723  0.00  0.00    +0.000 C 
ATOM      3  O   UNL     1      10.776  14.219  17.809  0.00  0.00    +0.000 OA
ATOM      4  O   UNL     1       9.953  13.973  19.896  0.00  0.00    +0.000 OA
ATOM      5  C   UNL     1       8.614  13.808  20.361  0.00  0.00    +0.000 C 
ATOM      6  C   UNL     1       7.698  14.951  20.065  0.00  0.00    +0.000 A 
ATOM      7  C   UNL     1       7.978  15.989  19.258  0.00  0.00    +0.000 A 
ATOM      8  C   UNL     1       6.712  16.663  18.635  0.00  0.00    +0.000 A 
ATOM      9  C   UNL     1       5.438  16.403  19.085  0.00  0.00    +0.000 A 
ATOM     10  N   UNL     1       5.366  15.545  20.178  0.00  0.00    +0.000 N 
ATOM     11  C   UNL     1       6.359  14.790  20.678  0.00  0.00    +0.000 A 
ATOM     12  O   UNL     1       6.180  13.951  21.578  0.00  0.00    +0.000 OA
ATOM     13  C   UNL     1       4.036  15.381  20.726  0.00  0.00    +0.000 C 
ATOM     14  C   UNL     1       3.178  16.204  19.849  0.00  0.00    +0.000 A 
ATOM     15  C   UNL     1       3.937  16.739  18.799  0.00  0.00    +0.000 A 
ATOM     16  N   UNL     1       3.319  17.340  17.762  0.00  0.00    +0.000 NA
ATOM     17  C   UNL     1       1.921  17.443  17.803  0.00  0.00    +0.000 A 
ATOM     18  C   UNL     1       1.176  17.975  16.729  0.00  0.00    +0.000 A 
ATOM     19  C   UNL     1      -0.230  18.143  16.732  0.00  0.00    +0.000 A 
ATOM     20  C   UNL     1      -0.972  17.756  17.830  0.00  0.00    +0.000 A 
ATOM     21  C   UNL     1      -0.297  17.168  18.892  0.00  0.00    +0.000 A 
ATOM     22  C   UNL     1       1.124  17.012  18.910  0.00  0.00    +0.000 A 
ATOM     23  C   UNL     1       1.793  16.389  19.981  0.00  0.00    +0.000 A 
ENDROOT
BRANCH  23  24
ATOM     24  C   UNL     1       1.100  15.937  21.201  0.00  0.00    +0.000 A 
ATOM     25  C   UNL     1       0.840  16.587  22.432  0.00  0.00    +0.000 A 
ATOM     26  N   UNL     1       0.131  15.844  23.285  0.00  0.00    +0.000 NA
ATOM     27  N   UNL     1      -0.064  14.681  22.628  0.00  0.00    +0.000 N 
ATOM     28  C   UNL     1       0.465  14.714  21.359  0.00  0.00    +0.000 A 
BRANCH  27  29
ATOM     29  C   UNL     1      -0.907  13.625  23.213  0.00  0.00    +0.000 C 
ATOM     30  C   UNL     1      -1.108  12.367  22.357  0.00  0.00    +0.000 C 
ATOM     31  C   UNL     1      -2.040  12.627  21.180  0.00  0.00    +0.000 C 
ATOM     32  C   UNL     1      -3.342  13.249  21.659  0.00  0.00    +0.000 C 
ATOM     33  C   UNL     1      -3.101  14.427  22.595  0.00  0.00    +0.000 C 
ATOM     34  O   UNL     1      -2.181  14.141  23.648  0.00  0.00    +0.000 OA
ENDBRANCH  27  29
ENDBRANCH  23  24
BRANCH   1  36
ATOM     35  C   UNL     1      11.947  17.365  18.752  0.00  0.00    +0.000 C 
ATOM     36  C   UNL     1      10.682  16.881  19.491  0.00  0.00    +0.000 C 
ENDBRANCH   1  36
BRANCH   1  37
ATOM     37  O   UNL     1       9.470  16.619  17.431  0.00  0.00    +0.000 OA
ATOM     38  H   UNL     1       8.898  16.019  16.909  0.00  0.00    +0.000 HD
ENDBRANCH   1  37
TORSDOF 4
ENDMDL
MODEL 6
REMARK VINA RESULT:      -7.8      0.825      1.050
REMARK  Name = 
REMARK  5 active torsions:
REMARK  status: ('A' for Active; 'I' for Inactive)
REMARK    1  A    between atoms: C_1  and  C_2
REMARK    2  A    between atoms: C_2  and  C_3
REMARK    3  A    between atoms: C_3  and  O_4
REMARK    4  A    between atoms: C_26  and  C_27
REMARK    5  A    between atoms: N_30  and  C_31
REMARK                            x       y       z     vdW  Elec       q    Type
REMARK                         _______ _______ _______ _____ _____    ______ ____
ROOT
ATOM      1  C   UNL     1      -1.059  11.938  21.411  0.00  0.00    +0.000 C 
ATOM      2  C   UNL     1      -1.855  12.583  20.240  0.00  0.00    +0.000 C 
ATOM      3  O   UNL     1      -3.065  12.784  20.270  0.00  0.00    +0.000 OA
ATOM      4  O   UNL     1      -1.065  13.136  19.287  0.00  0.00    +0.000 OA
ATOM      5  C   UNL     1      -0.160  12.232  18.655  0.00  0.00    +0.000 C 
ATOM      6  C   UNL     1       0.392  11.165  19.544  0.00  0.00    +0.000 A 
ATOM      7  C   UNL     1      -0.032  10.889  20.789  0.00  0.00    +0.000 A 
ATOM      8  C   UNL     1       0.233   9.413  21.232  0.00  0.00    +0.000 A 
ATOM      9  C   UNL     1       1.064   8.568  20.532  0.00  0.00    +0.000 A 
ATOM     10  N   UNL     1       1.700   9.146  19.437  0.00  0.00    +0.000 N 
ATOM     11  C   UNL     1       1.421  10.335  18.877  0.00  0.00    +0.000 A 
ATOM     12  O   UNL     1       1.950  10.722  17.820  0.00  0.00    +0.000 OA
ATOM     13  C   UNL     1       2.670   8.290  18.786  0.00  0.00    +0.000 C 
ATOM     14  C   UNL     1       2.601   7.022  19.542  0.00  0.00    +0.000 A 
ATOM     15  C   UNL     1       1.590   7.095  20.511  0.00  0.00    +0.000 A 
ATOM     16  N   UNL     1       1.208   5.980  21.166  0.00  0.00    +0.000 NA
ATOM     17  C   UNL     1       1.880   4.785  20.874  0.00  0.00    +0.000 A 
ATOM     18  C   UNL     1       1.497   3.551  21.441  0.00  0.00    +0.000 A 
ATOM     19  C   UNL     1       2.163   2.322  21.216  0.00  0.00    +0.000 A 
ATOM     20  C   UNL     1       3.259   2.271  20.377  0.00  0.00    +0.000 A 
ATOM     21  C   UNL     1       3.642   3.445  19.742  0.00  0.00    +0.000 A 
ATOM     22  C   UNL     1       2.990   4.696  19.976  0.00  0.00    +0.000 A 
ATOM     23  C   UNL     1       3.373   5.874  19.306  0.00  0.00    +0.000 A 
ENDROOT
BRANCH  23  24
ATOM     24  C   UNL     1       4.525   5.933  18.388  0.00  0.00    +0.000 A 
ATOM     25  C   UNL     1       5.910   5.735  18.603  0.00  0.00    +0.000 A 
ATOM     26  N   UNL     1       6.639   5.832  17.489  0.00  0.00    +0.000 NA
ATOM     27  N   UNL     1       5.736   6.120  16.527  0.00  0.00    +0.000 N 
ATOM     28  C   UNL     1       4.452   6.145  17.020  0.00  0.00    +0.000 A 
BRANCH  27  29
ATOM     29  C   UNL     1       6.150   6.203  15.116  0.00  0.00    +0.000 C 
ATOM     30  C   UNL     1       5.114   5.745  14.079  0.00  0.00    +0.000 C 
ATOM     31  C   UNL     1       4.957   4.229  14.069  0.00  0.00    +0.000 C 
ATOM     32  C   UNL     1       6.311   3.554  13.915  0.00  0.00    +0.000 C 
ATOM     33  C   UNL     1       7.342   4.113  14.887  0.00  0.00    +0.000 C 
ATOM     34  O   UNL     1       7.409   5.539  14.890  0.00  0.00    +0.000 OA
ENDBRANCH  27  29
ENDBRANCH  23  24
BRANCH   1  36
ATOM     35  C   UNL     1      -1.559  13.738  23.456  0.00  0.00    +0.000 C 
ATOM     36  C   UNL     1      -0.688  13.230  22.288  0.00  0.00    +0.000 C 
ENDBRANCH   1  36
BRANCH   1  37
ATOM     37  O   UNL     1      -1.970  11.197  22.242  0.00  0.00    +0.000 OA
ATOM     38  H   UNL     1      -2.865  11.534  22.028  0.00  0.00    +0.000 HD
ENDBRANCH   1  37
TORSDOF 4
ENDMDL
MODEL 7
REMARK VINA RESULT:      -7.7      3.486      6.763
REMARK  Name = 
REMARK  5 active torsions:
REMARK  status: ('A' for Active; 'I' for Inactive)
REMARK    1  A    between atoms: C_1  and  C_2
REMARK    2  A    between atoms: C_2  and  C_3
REMARK    3  A    between atoms: C_3  and  O_4
REMARK    4  A    between atoms: C_26  and  C_27
REMARK    5  A    between atoms: N_30  and  C_31
REMARK                            x       y       z     vdW  Elec       q    Type
REMARK                         _______ _______ _______ _____ _____    ______ ____
ROOT
ATOM      1  C   UNL     1      -2.548  16.266  23.610  0.00  0.00    +0.000 C 
ATOM      2  C   UNL     1      -1.547  17.456  23.604  0.00  0.00    +0.000 C 
ATOM      3  O   UNL     1      -1.887  18.631  23.498  0.00  0.00    +0.000 OA
ATOM      4  O   UNL     1      -0.291  17.109  23.980  0.00  0.00    +0.000 OA
ATOM      5  C   UNL     1       0.328  16.112  23.169  0.00  0.00    +0.000 C 
ATOM      6  C   UNL     1      -0.598  15.067  22.636  0.00  0.00    +0.000 A 
ATOM      7  C   UNL     1      -1.940  15.106  22.701  0.00  0.00    +0.000 A 
ATOM      8  C   UNL     1      -2.650  14.284  21.575  0.00  0.00    +0.000 A 
ATOM      9  C   UNL     1      -1.976  13.389  20.777  0.00  0.00    +0.000 A 
ATOM     10  N   UNL     1      -0.630  13.222  21.089  0.00  0.00    +0.000 N 
ATOM     11  C   UNL     1       0.109  13.987  21.911  0.00  0.00    +0.000 A 
ATOM     12  O   UNL     1       1.338  13.848  22.037  0.00  0.00    +0.000 OA
ATOM     13  C   UNL     1       0.038  12.184  20.331  0.00  0.00    +0.000 C 
ATOM     14  C   UNL     1      -1.005  11.672  19.418  0.00  0.00    +0.000 A 
ATOM     15  C   UNL     1      -2.180  12.424  19.562  0.00  0.00    +0.000 A 
ATOM     16  N   UNL     1      -3.185  12.273  18.676  0.00  0.00    +0.000 NA
ATOM     17  C   UNL     1      -3.024  11.323  17.657  0.00  0.00    +0.000 A 
ATOM     18  C   UNL     1      -3.979  11.152  16.633  0.00  0.00    +0.000 A 
ATOM     19  C   UNL     1      -3.891  10.181  15.605  0.00  0.00    +0.000 A 
ATOM     20  C   UNL     1      -2.804   9.331  15.547  0.00  0.00    +0.000 A 
ATOM     21  C   UNL     1      -1.802   9.497  16.494  0.00  0.00    +0.000 A 
ATOM     22  C   UNL     1      -1.889  10.459  17.548  0.00  0.00    +0.000 A 
ATOM     23  C   UNL     1      -0.854  10.634  18.487  0.00  0.00    +0.000 A 
ENDROOT
BRANCH  23  24
ATOM     24  C   UNL     1       0.351   9.785  18.515  0.00  0.00    +0.000 A 
ATOM     25  C   UNL     1       1.519   9.782  17.714  0.00  0.00    +0.000 A 
ATOM     26  N   UNL     1       2.418   8.869  18.090  0.00  0.00    +0.000 NA
ATOM     27  N   UNL     1       1.836   8.244  19.136  0.00  0.00    +0.000 N 
ATOM     28  C   UNL     1       0.615   8.794  19.448  0.00  0.00    +0.000 A 
BRANCH  27  29
ATOM     29  C   UNL     1       2.574   7.224  19.900  0.00  0.00    +0.000 C 
ATOM     30  C   UNL     1       3.481   6.291  19.085  0.00  0.00    +0.000 C 
ATOM     31  C   UNL     1       2.674   5.279  18.281  0.00  0.00    +0.000 C 
ATOM     32  C   UNL     1       1.697   4.541  19.182  0.00  0.00    +0.000 C 
ATOM     33  C   UNL     1       0.892   5.495  20.056  0.00  0.00    +0.000 C 
ATOM     34  O   UNL     1       1.696   6.453  20.744  0.00  0.00    +0.000 OA
ENDBRANCH  27  29
ENDBRANCH  23  24
BRANCH   1  36
ATOM     35  C   UNL     1      -2.595  14.922  26.031  0.00  0.00    +0.000 C 
ATOM     36  C   UNL     1      -2.906  16.165  25.171  0.00  0.00    +0.000 C 
ENDBRANCH   1  36
BRANCH   1  37
ATOM     37  O   UNL     1      -3.778  16.688  22.992  0.00  0.00    +0.000 OA
ATOM     38  H   UNL     1      -3.548  17.460  22.435  0.00  0.00    +0.000 HD
ENDBRANCH   1  37
TORSDOF 4
ENDMDL
MODEL 8
REMARK VINA RESULT:      -7.7      6.804     11.989
REMARK  Name = 
REMARK  5 active torsions:
REMARK  status: ('A' for Active; 'I' for Inactive)
REMARK    1  A    between atoms: C_1  and  C_2
REMARK    2  A    between atoms: C_2  and  C_3
REMARK    3  A    between atoms: C_3  and  O_4
REMARK    4  A    between atoms: C_26  and  C_27
REMARK    5  A    between atoms: N_30  and  C_31
REMARK                            x       y       z     vdW  Elec       q    Type
REMARK                         _______ _______ _______ _____ _____    ______ ____
ROOT
ATOM      1  C   UNL     1       8.887  15.799  18.311  0.00  0.00    +0.000 C 
ATOM      2  C   UNL     1       9.557  16.403  19.579  0.00  0.00    +0.000 C 
ATOM      3  O   UNL     1      10.507  15.886  20.158  0.00  0.00    +0.000 OA
ATOM      4  O   UNL     1       9.169  17.675  19.842  0.00  0.00    +0.000 OA
ATOM      5  C   UNL     1       7.768  17.846  20.056  0.00  0.00    +0.000 C 
ATOM      6  C   UNL     1       6.891  16.962  19.231  0.00  0.00    +0.000 A 
ATOM      7  C   UNL     1       7.308  15.929  18.479  0.00  0.00    +0.000 A 
ATOM      8  C   UNL     1       6.215  14.834  18.252  0.00  0.00    +0.000 A 
ATOM      9  C   UNL     1       4.887  15.040  18.549  0.00  0.00    +0.000 A 
ATOM     10  N   UNL     1       4.581  16.318  19.007  0.00  0.00    +0.000 N 
ATOM     11  C   UNL     1       5.450  17.267  19.393  0.00  0.00    +0.000 A 
ATOM     12  O   UNL     1       5.092  18.338  19.913  0.00  0.00    +0.000 OA
ATOM     13  C   UNL     1       3.166  16.566  19.193  0.00  0.00    +0.000 C 
ATOM     14  C   UNL     1       2.523  15.282  18.844  0.00  0.00    +0.000 A 
ATOM     15  C   UNL     1       3.501  14.316  18.565  0.00  0.00    +0.000 A 
ATOM     16  N   UNL     1       3.146  13.021  18.438  0.00  0.00    +0.000 NA
ATOM     17  C   UNL     1       1.786  12.699  18.549  0.00  0.00    +0.000 A 
ATOM     18  C   UNL     1       1.325  11.366  18.517  0.00  0.00    +0.000 A 
ATOM     19  C   UNL     1      -0.037  10.985  18.582  0.00  0.00    +0.000 A 
ATOM     20  C   UNL     1      -1.020  11.947  18.704  0.00  0.00    +0.000 A 
ATOM     21  C   UNL     1      -0.620  13.273  18.803  0.00  0.00    +0.000 A 
ATOM     22  C   UNL     1       0.751  13.672  18.719  0.00  0.00    +0.000 A 
ATOM     23  C   UNL     1       1.145  15.018  18.847  0.00  0.00    +0.000 A 
ENDROOT
BRANCH  23  24
ATOM     24  C   UNL     1       0.180  16.124  18.983  0.00  0.00    +0.000 A 
ATOM     25  C   UNL     1      -0.437  16.958  18.021  0.00  0.00    +0.000 A 
ATOM     26  N   UNL     1      -1.302  17.828  18.548  0.00  0.00    +0.000 NA
ATOM     27  N   UNL     1      -1.245  17.587  19.875  0.00  0.00    +0.000 N 
ATOM     28  C   UNL     1      -0.400  16.542  20.171  0.00  0.00    +0.000 A 
BRANCH  27  29
ATOM     29  C   UNL     1      -2.149  18.289  20.801  0.00  0.00    +0.000 C 
ATOM     30  C   UNL     1      -2.117  17.823  22.263  0.00  0.00    +0.000 C 
ATOM     31  C   UNL     1      -2.793  16.468  22.439  0.00  0.00    +0.000 C 
ATOM     32  C   UNL     1      -4.190  16.488  21.839  0.00  0.00    +0.000 C 
ATOM     33  C   UNL     1      -4.196  17.060  20.427  0.00  0.00    +0.000 C 
ATOM     34  O   UNL     1      -3.506  18.303  20.312  0.00  0.00    +0.000 OA
ENDBRANCH  27  29
ENDBRANCH  23  24
BRANCH   1  36
ATOM     35  C   UNL     1      11.203  15.962  16.801  0.00  0.00    +0.000 C 
ATOM     36  C   UNL     1       9.779  16.448  17.146  0.00  0.00    +0.000 C 
ENDBRANCH   1  36
BRANCH   1  37
ATOM     37  O   UNL     1       9.192  14.394  18.248  0.00  0.00    +0.000 OA
ATOM     38  H   UNL     1       9.783  14.281  17.475  0.00  0.00    +0.000 HD
ENDBRANCH   1  37
TORSDOF 4
ENDMDL
MODEL 9
REMARK VINA RESULT:      -7.6      8.214     12.067
REMARK  Name = 
REMARK  5 active torsions:
REMARK  status: ('A' for Active; 'I' for Inactive)
REMARK    1  A    between atoms: C_1  and  C_2
REMARK    2  A    between atoms: C_2  and  C_3
REMARK    3  A    between atoms: C_3  and  O_4
REMARK    4  A    between atoms: C_26  and  C_27
REMARK    5  A    between atoms: N_30  and  C_31
REMARK                            x       y       z     vdW  Elec       q    Type
REMARK                         _______ _______ _______ _____ _____    ______ ____
ROOT
ATOM      1  C   UNL     1       9.269  15.185  21.019  0.00  0.00    +0.000 C 
ATOM      2  C   UNL     1       9.753  13.706  21.018  0.00  0.00    +0.000 C 
ATOM      3  O   UNL     1      10.598  13.268  20.243  0.00  0.00    +0.000 OA
ATOM      4  O   UNL     1       9.351  13.004  22.105  0.00  0.00    +0.000 OA
ATOM      5  C   UNL     1       7.937  12.922  22.282  0.00  0.00    +0.000 C 
ATOM      6  C   UNL     1       7.178  14.140  21.867  0.00  0.00    +0.000 A 
ATOM      7  C   UNL     1       7.684  15.184  21.190  0.00  0.00    +0.000 A 
ATOM      8  C   UNL     1       6.620  15.974  20.360  0.00  0.00    +0.000 A 
ATOM      9  C   UNL     1       5.266  15.792  20.530  0.00  0.00    +0.000 A 
ATOM     10  N   UNL     1       4.916  14.901  21.540  0.00  0.00    +0.000 N 
ATOM     11  C   UNL     1       5.734  14.055  22.189  0.00  0.00    +0.000 A 
ATOM     12  O   UNL     1       5.320  13.199  22.989  0.00  0.00    +0.000 OA
ATOM     13  C   UNL     1       3.494  14.815  21.799  0.00  0.00    +0.000 C 
ATOM     14  C   UNL     1       2.889  15.733  20.811  0.00  0.00    +0.000 A 
ATOM     15  C   UNL     1       3.881  16.249  19.965  0.00  0.00    +0.000 A 
ATOM     16  N   UNL     1       3.528  16.934  18.858  0.00  0.00    +0.000 NA
ATOM     17  C   UNL     1       2.161  17.138  18.621  0.00  0.00    +0.000 A 
ATOM     18  C   UNL     1       1.688  17.765  17.449  0.00  0.00    +0.000 A 
ATOM     19  C   UNL     1       0.325  18.036  17.177  0.00  0.00    +0.000 A 
ATOM     20  C   UNL     1      -0.649  17.665  18.082  0.00  0.00    +0.000 A 
ATOM     21  C   UNL     1      -0.246  16.987  19.225  0.00  0.00    +0.000 A 
ATOM     22  C   UNL     1       1.128  16.726  19.521  0.00  0.00    +0.000 A 
ATOM     23  C   UNL     1       1.522  16.015  20.672  0.00  0.00    +0.000 A 
ENDROOT
BRANCH  23  24
ATOM     24  C   UNL     1       0.565  15.569  21.701  0.00  0.00    +0.000 A 
ATOM     25  C   UNL     1      -0.030  16.250  22.790  0.00  0.00    +0.000 A 
ATOM     26  N   UNL     1      -0.894  15.499  23.478  0.00  0.00    +0.000 NA
ATOM     27  N   UNL     1      -0.858  14.301  22.856  0.00  0.00    +0.000 N 
ATOM     28  C   UNL     1      -0.028  14.317  21.760  0.00  0.00    +0.000 A 
BRANCH  27  29
ATOM     29  C   UNL     1      -1.769  13.219  23.267  0.00  0.00    +0.000 C 
ATOM     30  C   UNL     1      -2.077  12.154  22.205  0.00  0.00    +0.000 C 
ATOM     31  C   UNL     1      -3.007  12.689  21.122  0.00  0.00    +0.000 C 
ATOM     32  C   UNL     1      -4.250  13.305  21.744  0.00  0.00    +0.000 C 
ATOM     33  C   UNL     1      -3.906  14.274  22.868  0.00  0.00    +0.000 C 
ATOM     34  O   UNL     1      -2.993  13.737  23.824  0.00  0.00    +0.000 OA
ENDBRANCH  27  29
ENDBRANCH  23  24
BRANCH   1  36
ATOM     35  C   UNL     1      10.051  16.128  23.502  0.00  0.00    +0.000 C 
ATOM     36  C   UNL     1      10.335  15.863  22.009  0.00  0.00    +0.000 C 
ENDBRANCH   1  36
BRANCH   1  37
ATOM     37  O   UNL     1       9.557  15.771  19.736  0.00  0.00    +0.000 OA
ATOM     38  H   UNL     1      10.360  16.317  19.863  0.00  0.00    +0.000 HD
ENDBRANCH   1  37
TORSDOF 4
ENDMDL
