MODEL 1
REMARK VINA RESULT:      -5.1      0.000      0.000
REMARK  Name = 
REMARK  2 active torsions:
REMARK  status: ('A' for Active; 'I' for Inactive)
REMARK    1  A    between atoms: N_1  and  C_2
REMARK    2  A    between atoms: N_5  and  C_6
REMARK                            x       y       z     vdW  Elec       q    Type
REMARK                         _______ _______ _______ _____ _____    ______ ____
ROOT
ATOM      1  C   UNL     1       5.204   4.433  18.870  0.00  0.00    +0.000 C 
ATOM      2  C   UNL     1       4.155   4.960  17.891  0.00  0.00    +0.000 C 
ATOM      3  C   UNL     1       2.852   4.668  18.610  0.00  0.00    +0.000 C 
ATOM      4  N   UNL     1       3.117   3.408  19.251  0.00  0.00    +0.000 N 
ATOM      5  C   UNL     1       4.485   3.235  19.511  0.00  0.00    +0.000 C 
ATOM      6  O   UNL     1       4.996   2.329  20.149  0.00  0.00    +0.000 OA
ENDROOT
BRANCH   1   7
ATOM      7  N   UNL     1       6.457   4.066  18.206  0.00  0.00    +0.000 NA
ATOM      8  H   UNL     1       6.648   3.075  18.332  0.00  0.00    +0.000 HD
ATOM      9  H   UNL     1       7.233   4.576  18.628  0.00  0.00    +0.000 HD
ENDBRANCH   1   7
BRANCH   4  10
ATOM     10  C   UNL     1       2.081   2.633  19.847  0.00  0.00    +0.000 C 
ATOM     11  C   UNL     1       1.656   2.868  21.273  0.00  0.00    +0.000 C 
ATOM     12  C   UNL     1       0.738   3.242  20.152  0.00  0.00    +0.000 C 
ENDBRANCH   4  10
TORSDOF 2
ENDMDL
MODEL 2
REMARK VINA RESULT:      -4.8      2.680      3.273
REMARK  Name = 
REMARK  2 active torsions:
REMARK  status: ('A' for Active; 'I' for Inactive)
REMARK    1  A    between atoms: N_1  and  C_2
REMARK    2  A    between atoms: N_5  and  C_6
REMARK                            x       y       z     vdW  Elec       q    Type
REMARK                         _______ _______ _______ _____ _____    ______ ____
ROOT
ATOM      1  C   UNL     1       7.248   5.235  18.048  0.00  0.00    +0.000 C 
ATOM      2  C   UNL     1       6.987   6.153  16.854  0.00  0.00    +0.000 C 
ATOM      3  C   UNL     1       5.640   6.762  17.190  0.00  0.00    +0.000 C 
ATOM      4  N   UNL     1       4.944   5.672  17.818  0.00  0.00    +0.000 N 
ATOM      5  C   UNL     1       5.832   4.768  18.420  0.00  0.00    +0.000 C 
ATOM      6  O   UNL     1       5.536   3.818  19.127  0.00  0.00    +0.000 OA
ENDROOT
BRANCH   1   7
ATOM      7  N   UNL     1       8.153   4.132  17.721  0.00  0.00    +0.000 NA
ATOM      8  H   UNL     1       8.791   4.405  16.977  0.00  0.00    +0.000 HD
ATOM      9  H   UNL     1       7.616   3.336  17.377  0.00  0.00    +0.000 HD
ENDBRANCH   1   7
BRANCH   4  10
ATOM     10  C   UNL     1       3.545   5.723  18.084  0.00  0.00    +0.000 C 
ATOM     11  C   UNL     1       3.021   6.246  19.396  0.00  0.00    +0.000 C 
ATOM     12  C   UNL     1       2.818   7.040  18.143  0.00  0.00    +0.000 C 
ENDBRANCH   4  10
TORSDOF 2
ENDMDL
MODEL 3
REMARK VINA RESULT:      -4.8      2.062      2.933
REMARK  Name = 
REMARK  2 active torsions:
REMARK  status: ('A' for Active; 'I' for Inactive)
REMARK    1  A    between atoms: N_1  and  C_2
REMARK    2  A    between atoms: N_5  and  C_6
REMARK                            x       y       z     vdW  Elec       q    Type
REMARK                         _______ _______ _______ _____ _____    ______ ____
ROOT
ATOM      1  C   UNL     1       7.127   4.799  17.295  0.00  0.00    +0.000 C 
ATOM      2  C   UNL     1       6.653   4.336  15.917  0.00  0.00    +0.000 C 
ATOM      3  C   UNL     1       5.181   4.701  15.932  0.00  0.00    +0.000 C 
ATOM      4  N   UNL     1       4.799   4.434  17.292  0.00  0.00    +0.000 N 
ATOM      5  C   UNL     1       5.887   4.555  18.170  0.00  0.00    +0.000 C 
ATOM      6  O   UNL     1       5.848   4.507  19.389  0.00  0.00    +0.000 OA
ENDROOT
BRANCH   1   7
ATOM      7  N   UNL     1       8.312   4.071  17.755  0.00  0.00    +0.000 NA
ATOM      8  H   UNL     1       8.053   3.144  18.081  0.00  0.00    +0.000 HD
ATOM      9  H   UNL     1       8.731   4.560  18.546  0.00  0.00    +0.000 HD
ENDBRANCH   1   7
BRANCH   4  10
ATOM     10  C   UNL     1       3.435   4.409  17.702  0.00  0.00    +0.000 C 
ATOM     11  C   UNL     1       2.508   3.309  17.253  0.00  0.00    +0.000 C 
ATOM     12  C   UNL     1       2.942   3.380  18.684  0.00  0.00    +0.000 C 
ENDBRANCH   4  10
TORSDOF 2
ENDMDL
MODEL 4
REMARK VINA RESULT:      -4.7      3.816      4.758
REMARK  Name = 
REMARK  2 active torsions:
REMARK  status: ('A' for Active; 'I' for Inactive)
REMARK    1  A    between atoms: N_1  and  C_2
REMARK    2  A    between atoms: N_5  and  C_6
REMARK                            x       y       z     vdW  Elec       q    Type
REMARK                         _______ _______ _______ _____ _____    ______ ____
ROOT
ATOM      1  C   UNL     1       7.172   5.929  19.452  0.00  0.00    +0.000 C 
ATOM      2  C   UNL     1       7.890   6.742  18.374  0.00  0.00    +0.000 C 
ATOM      3  C   UNL     1       6.881   6.757  17.242  0.00  0.00    +0.000 C 
ATOM      4  N   UNL     1       6.294   5.446  17.319  0.00  0.00    +0.000 N 
ATOM      5  C   UNL     1       6.357   4.925  18.620  0.00  0.00    +0.000 C 
ATOM      6  O   UNL     1       5.838   3.895  19.018  0.00  0.00    +0.000 OA
ENDROOT
BRANCH   1   7
ATOM      7  N   UNL     1       8.103   5.286  20.382  0.00  0.00    +0.000 NA
ATOM      8  H   UNL     1       7.885   4.297  20.475  0.00  0.00    +0.000 HD
ATOM      9  H   UNL     1       8.006   5.702  21.309  0.00  0.00    +0.000 HD
ENDBRANCH   1   7
BRANCH   4  10
ATOM     10  C   UNL     1       5.457   4.932  16.287  0.00  0.00    +0.000 C 
ATOM     11  C   UNL     1       5.832   5.080  14.835  0.00  0.00    +0.000 C 
ATOM     12  C   UNL     1       5.873   3.730  15.482  0.00  0.00    +0.000 C 
ENDBRANCH   4  10
TORSDOF 2
ENDMDL
MODEL 5
REMARK VINA RESULT:      -4.7      0.950      1.097
REMARK  Name = 
REMARK  2 active torsions:
REMARK  status: ('A' for Active; 'I' for Inactive)
REMARK    1  A    between atoms: N_1  and  C_2
REMARK    2  A    between atoms: N_5  and  C_6
REMARK                            x       y       z     vdW  Elec       q    Type
REMARK                         _______ _______ _______ _____ _____    ______ ____
ROOT
ATOM      1  C   UNL     1       5.440   4.667  18.604  0.00  0.00    +0.000 C 
ATOM      2  C   UNL     1       4.416   5.695  18.120  0.00  0.00    +0.000 C 
ATOM      3  C   UNL     1       3.459   5.788  19.293  0.00  0.00    +0.000 C 
ATOM      4  N   UNL     1       3.405   4.433  19.770  0.00  0.00    +0.000 N 
ATOM      5  C   UNL     1       4.582   3.730  19.469  0.00  0.00    +0.000 C 
ATOM      6  O   UNL     1       4.878   2.608  19.849  0.00  0.00    +0.000 OA
ENDROOT
BRANCH   1   7
ATOM      7  N   UNL     1       6.110   3.980  17.498  0.00  0.00    +0.000 NA
ATOM      8  H   UNL     1       5.427   3.633  16.830  0.00  0.00    +0.000 HD
ATOM      9  H   UNL     1       6.619   3.171  17.854  0.00  0.00    +0.000 HD
ENDBRANCH   1   7
BRANCH   4  10
ATOM     10  C   UNL     1       2.435   4.005  20.721  0.00  0.00    +0.000 C 
ATOM     11  C   UNL     1       0.961   4.072  20.413  0.00  0.00    +0.000 C 
ATOM     12  C   UNL     1       1.644   2.742  20.505  0.00  0.00    +0.000 C 
ENDBRANCH   4  10
TORSDOF 2
ENDMDL
MODEL 6
REMARK VINA RESULT:      -4.7      1.616      2.045
REMARK  Name = 
REMARK  2 active torsions:
REMARK  status: ('A' for Active; 'I' for Inactive)
REMARK    1  A    between atoms: N_1  and  C_2
REMARK    2  A    between atoms: N_5  and  C_6
REMARK                            x       y       z     vdW  Elec       q    Type
REMARK                         _______ _______ _______ _____ _____    ______ ____
ROOT
ATOM      1  C   UNL     1       6.261   5.096  18.517  0.00  0.00    +0.000 C 
ATOM      2  C   UNL     1       5.660   5.936  17.389  0.00  0.00    +0.000 C 
ATOM      3  C   UNL     1       4.210   6.073  17.814  0.00  0.00    +0.000 C 
ATOM      4  N   UNL     1       3.927   4.793  18.404  0.00  0.00    +0.000 N 
ATOM      5  C   UNL     1       5.086   4.190  18.917  0.00  0.00    +0.000 C 
ATOM      6  O   UNL     1       5.142   3.166  19.578  0.00  0.00    +0.000 OA
ENDROOT
BRANCH   1   7
ATOM      7  N   UNL     1       7.447   4.350  18.090  0.00  0.00    +0.000 NA
ATOM      8  H   UNL     1       7.390   4.132  17.099  0.00  0.00    +0.000 HD
ATOM      9  H   UNL     1       7.493   3.462  18.590  0.00  0.00    +0.000 HD
ENDBRANCH   1   7
BRANCH   4  10
ATOM     10  C   UNL     1       2.600   4.388  18.727  0.00  0.00    +0.000 C 
ATOM     11  C   UNL     1       1.519   4.354  17.678  0.00  0.00    +0.000 C 
ATOM     12  C   UNL     1       2.053   3.073  18.240  0.00  0.00    +0.000 C 
ENDBRANCH   4  10
TORSDOF 2
ENDMDL
MODEL 7
REMARK VINA RESULT:      -4.7      1.997      2.766
REMARK  Name = 
REMARK  2 active torsions:
REMARK  status: ('A' for Active; 'I' for Inactive)
REMARK    1  A    between atoms: N_1  and  C_2
REMARK    2  A    between atoms: N_5  and  C_6
REMARK                            x       y       z     vdW  Elec       q    Type
REMARK                         _______ _______ _______ _____ _____    ______ ____
ROOT
ATOM      1  C   UNL     1       3.471   2.090  18.101  0.00  0.00    +0.000 C 
ATOM      2  C   UNL     1       1.961   2.120  18.343  0.00  0.00    +0.000 C 
ATOM      3  C   UNL     1       1.706   3.578  18.674  0.00  0.00    +0.000 C 
ATOM      4  N   UNL     1       2.875   3.944  19.428  0.00  0.00    +0.000 N 
ATOM      5  C   UNL     1       3.983   3.157  19.081  0.00  0.00    +0.000 C 
ATOM      6  O   UNL     1       5.133   3.312  19.460  0.00  0.00    +0.000 OA
ENDROOT
BRANCH   1   7
ATOM      7  N   UNL     1       4.050   0.766  18.334  0.00  0.00    +0.000 NA
ATOM      8  H   UNL     1       4.961   0.694  17.888  0.00  0.00    +0.000 HD
ATOM      9  H   UNL     1       3.455   0.051  17.915  0.00  0.00    +0.000 HD
ENDBRANCH   1   7
BRANCH   4  10
ATOM     10  C   UNL     1       2.953   5.170  20.151  0.00  0.00    +0.000 C 
ATOM     11  C   UNL     1       2.646   6.486  19.485  0.00  0.00    +0.000 C 
ATOM     12  C   UNL     1       1.707   5.934  20.512  0.00  0.00    +0.000 C 
ENDBRANCH   4  10
TORSDOF 2
ENDMDL
MODEL 8
REMARK VINA RESULT:      -4.7      1.486      3.747
REMARK  Name = 
REMARK  2 active torsions:
REMARK  status: ('A' for Active; 'I' for Inactive)
REMARK    1  A    between atoms: N_1  and  C_2
REMARK    2  A    between atoms: N_5  and  C_6
REMARK                            x       y       z     vdW  Elec       q    Type
REMARK                         _______ _______ _______ _____ _____    ______ ____
ROOT
ATOM      1  C   UNL     1       1.781   2.596  20.661  0.00  0.00    +0.000 C 
ATOM      2  C   UNL     1       0.962   3.696  19.984  0.00  0.00    +0.000 C 
ATOM      3  C   UNL     1       1.516   3.702  18.572  0.00  0.00    +0.000 C 
ATOM      4  N   UNL     1       2.915   3.441  18.777  0.00  0.00    +0.000 N 
ATOM      5  C   UNL     1       3.141   2.716  19.956  0.00  0.00    +0.000 C 
ATOM      6  O   UNL     1       4.204   2.246  20.330  0.00  0.00    +0.000 OA
ENDROOT
BRANCH   1   7
ATOM      7  N   UNL     1       1.864   2.770  22.112  0.00  0.00    +0.000 NA
ATOM      8  H   UNL     1       2.639   3.384  22.351  0.00  0.00    +0.000 HD
ATOM      9  H   UNL     1       2.047   1.871  22.558  0.00  0.00    +0.000 HD
ENDBRANCH   1   7
BRANCH   4  10
ATOM     10  C   UNL     1       3.872   3.596  17.732  0.00  0.00    +0.000 C 
ATOM     11  C   UNL     1       4.150   4.947  17.126  0.00  0.00    +0.000 C 
ATOM     12  C   UNL     1       5.185   4.287  17.983  0.00  0.00    +0.000 C 
ENDBRANCH   4  10
TORSDOF 2
ENDMDL
MODEL 9
REMARK VINA RESULT:      -4.7      1.355      3.640
REMARK  Name = 
REMARK  2 active torsions:
REMARK  status: ('A' for Active; 'I' for Inactive)
REMARK    1  A    between atoms: N_1  and  C_2
REMARK    2  A    between atoms: N_5  and  C_6
REMARK                            x       y       z     vdW  Elec       q    Type
REMARK                         _______ _______ _______ _____ _____    ______ ____
ROOT
ATOM      1  C   UNL     1       2.482   2.889  20.570  0.00  0.00    +0.000 C 
ATOM      2  C   UNL     1       1.856   4.255  20.289  0.00  0.00    +0.000 C 
ATOM      3  C   UNL     1       2.454   4.624  18.945  0.00  0.00    +0.000 C 
ATOM      4  N   UNL     1       3.793   4.107  19.038  0.00  0.00    +0.000 N 
ATOM      5  C   UNL     1       3.869   3.021  19.923  0.00  0.00    +0.000 C 
ATOM      6  O   UNL     1       4.839   2.305  20.115  0.00  0.00    +0.000 OA
ENDROOT
BRANCH   1   7
ATOM      7  N   UNL     1       2.538   2.581  22.001  0.00  0.00    +0.000 NA
ATOM      8  H   UNL     1       3.501   2.432  22.294  0.00  0.00    +0.000 HD
ATOM      9  H   UNL     1       2.031   1.716  22.188  0.00  0.00    +0.000 HD
ENDBRANCH   1   7
BRANCH   4  10
ATOM     10  C   UNL     1       4.798   4.440  18.085  0.00  0.00    +0.000 C 
ATOM     11  C   UNL     1       4.742   3.905  16.677  0.00  0.00    +0.000 C 
ATOM     12  C   UNL     1       4.495   5.360  16.932  0.00  0.00    +0.000 C 
ENDBRANCH   4  10
TORSDOF 2
ENDMDL
