MODEL 1
REMARK VINA RESULT:      -8.9      0.000      0.000
REMARK  Name = 
REMARK  8 active torsions:
REMARK  status: ('A' for Active; 'I' for Inactive)
REMARK    1  A    between atoms: C_1  and  C_2
REMARK    2  A    between atoms: C_2  and  C_3
REMARK    3  A    between atoms: C_2  and  C_4
REMARK    4  A    between atoms: C_2  and  C_5
REMARK    5  A    between atoms: C_5  and  N_6
REMARK    6  A    between atoms: N_6  and  C_7
REMARK    7  A    between atoms: N_15  and  C_16
REMARK    8  A    between atoms: C_19  and  N_20
REMARK                            x       y       z     vdW  Elec       q    Type
REMARK                         _______ _______ _______ _____ _____    ______ ____
ROOT
ATOM      1  C   UNL     1       4.013   3.334  18.459  0.00  0.00    +0.000 A 
ATOM      2  N   UNL     1       3.892   1.996  18.247  0.00  0.00    +0.000 NA
ATOM      3  C   UNL     1       2.789   1.368  18.695  0.00  0.00    +0.000 A 
ATOM      4  C   UNL     1       1.785   2.020  19.373  0.00  0.00    +0.000 A 
ATOM      5  C   UNL     1       1.935   3.398  19.593  0.00  0.00    +0.000 A 
ATOM      6  C   UNL     1       0.984   4.133  20.260  0.00  0.00    +0.000 A 
ATOM      7  N   UNL     1       1.101   5.446  20.479  0.00  0.00    +0.000 NA
ATOM      8  C   UNL     1       2.197   6.067  20.028  0.00  0.00    +0.000 A 
ATOM      9  N   UNL     1       2.352   7.436  20.196  0.00  0.00    +0.000 N 
ATOM     10  N   UNL     1       3.175   5.435  19.368  0.00  0.00    +0.000 NA
ATOM     11  C   UNL     1       3.052   4.103  19.150  0.00  0.00    +0.000 A 
ATOM     12  H   UNL     1       3.244   7.747  19.833  0.00  0.00    +0.000 HD
ENDROOT
BRANCH   9  13
ATOM     13  C   UNL     1       1.461   8.435  20.607  0.00  0.00    +0.000 A 
ATOM     14  C   UNL     1       1.048   8.585  21.936  0.00  0.00    +0.000 A 
ATOM     15  C   UNL     1       0.153   9.587  22.327  0.00  0.00    +0.000 A 
ATOM     16  C   UNL     1      -0.352  10.496  21.403  0.00  0.00    +0.000 A 
ATOM     17  C   UNL     1       0.013  10.316  20.061  0.00  0.00    +0.000 A 
ATOM     18  C   UNL     1       0.903   9.315  19.670  0.00  0.00    +0.000 A 
ATOM     19 CL   UNL     1       1.281   9.178  17.984  0.00  0.00    +0.000 Cl
BRANCH  16  20
ATOM     20  N   UNL     1      -1.209  11.528  21.745  0.00  0.00    +0.000 N 
ATOM     21  C   UNL     1      -1.792  11.639  23.094  0.00  0.00    +0.000 C 
ATOM     22  C   UNL     1      -3.061  12.504  22.996  0.00  0.00    +0.000 C 
ATOM     23  O   UNL     1      -2.795  13.794  22.410  0.00  0.00    +0.000 OA
ATOM     24  C   UNL     1      -2.213  13.644  21.101  0.00  0.00    +0.000 C 
ATOM     25  C   UNL     1      -0.903  12.854  21.171  0.00  0.00    +0.000 C 
ENDBRANCH  16  20
ENDBRANCH   9  13
BRANCH   1  26
ATOM     26  N   UNL     1       5.181   3.983  17.995  0.00  0.00    +0.000 N 
ATOM     27  H   UNL     1       5.218   4.900  18.434  0.00  0.00    +0.000 HD
BRANCH  26  28
ATOM     28  C   UNL     1       5.327   3.988  16.544  0.00  0.00    +0.000 C 
BRANCH  28  30
ATOM     29  C   UNL     1       6.858   4.878  14.726  0.00  0.00    +0.000 C 
ATOM     30  C   UNL     1       6.146   5.204  16.049  0.00  0.00    +0.000 C 
ATOM     31  C   UNL     1       7.179   5.637  17.103  0.00  0.00    +0.000 C 
ATOM     32  C   UNL     1       5.169   6.370  15.809  0.00  0.00    +0.000 C 
ENDBRANCH  28  30
ENDBRANCH  26  28
ENDBRANCH   1  26
TORSDOF 5
ENDMDL
MODEL 2
REMARK VINA RESULT:      -8.8      0.364      1.183
REMARK  Name = 
REMARK  8 active torsions:
REMARK  status: ('A' for Active; 'I' for Inactive)
REMARK    1  A    between atoms: C_1  and  C_2
REMARK    2  A    between atoms: C_2  and  C_3
REMARK    3  A    between atoms: C_2  and  C_4
REMARK    4  A    between atoms: C_2  and  C_5
REMARK    5  A    between atoms: C_5  and  N_6
REMARK    6  A    between atoms: N_6  and  C_7
REMARK    7  A    between atoms: N_15  and  C_16
REMARK    8  A    between atoms: C_19  and  N_20
REMARK                            x       y       z     vdW  Elec       q    Type
REMARK                         _______ _______ _______ _____ _____    ______ ____
ROOT
ATOM      1  C   UNL     1       4.000   3.350  18.477  0.00  0.00    +0.000 A 
ATOM      2  N   UNL     1       3.866   2.007  18.306  0.00  0.00    +0.000 NA
ATOM      3  C   UNL     1       2.767   1.401  18.791  0.00  0.00    +0.000 A 
ATOM      4  C   UNL     1       1.781   2.080  19.469  0.00  0.00    +0.000 A 
ATOM      5  C   UNL     1       1.944   3.462  19.647  0.00  0.00    +0.000 A 
ATOM      6  C   UNL     1       1.011   4.223  20.310  0.00  0.00    +0.000 A 
ATOM      7  N   UNL     1       1.141   5.540  20.489  0.00  0.00    +0.000 NA
ATOM      8  C   UNL     1       2.233   6.140  20.000  0.00  0.00    +0.000 A 
ATOM      9  N   UNL     1       2.401   7.512  20.126  0.00  0.00    +0.000 N 
ATOM     10  N   UNL     1       3.194   5.483  19.341  0.00  0.00    +0.000 NA
ATOM     11  C   UNL     1       3.058   4.146  19.163  0.00  0.00    +0.000 A 
ATOM     12  H   UNL     1       3.288   7.806  19.738  0.00  0.00    +0.000 HD
ENDROOT
BRANCH   9  13
ATOM     13  C   UNL     1       1.524   8.529  20.525  0.00  0.00    +0.000 A 
ATOM     14  C   UNL     1       1.129   8.713  21.855  0.00  0.00    +0.000 A 
ATOM     15  C   UNL     1       0.248   9.732  22.234  0.00  0.00    +0.000 A 
ATOM     16  C   UNL     1      -0.259  10.626  21.296  0.00  0.00    +0.000 A 
ATOM     17  C   UNL     1       0.088  10.412  19.954  0.00  0.00    +0.000 A 
ATOM     18  C   UNL     1       0.964   9.393  19.575  0.00  0.00    +0.000 A 
ATOM     19 CL   UNL     1       1.320   9.215  17.888  0.00  0.00    +0.000 Cl
BRANCH  16  20
ATOM     20  N   UNL     1      -1.102  11.673  21.625  0.00  0.00    +0.000 N 
ATOM     21  C   UNL     1      -2.033  12.259  20.645  0.00  0.00    +0.000 C 
ATOM     22  C   UNL     1      -2.394  13.678  21.118  0.00  0.00    +0.000 C 
ATOM     23  O   UNL     1      -2.935  13.684  22.454  0.00  0.00    +0.000 OA
ATOM     24  C   UNL     1      -2.004  13.092  23.378  0.00  0.00    +0.000 C 
ATOM     25  C   UNL     1      -1.682  11.647  22.983  0.00  0.00    +0.000 C 
ENDBRANCH  16  20
ENDBRANCH   9  13
BRANCH   1  26
ATOM     26  N   UNL     1       5.164   3.978  17.973  0.00  0.00    +0.000 N 
ATOM     27  H   UNL     1       5.268   4.866  18.456  0.00  0.00    +0.000 HD
BRANCH  26  28
ATOM     28  C   UNL     1       5.219   4.057  16.517  0.00  0.00    +0.000 C 
BRANCH  28  30
ATOM     29  C   UNL     1       5.205   6.493  15.807  0.00  0.00    +0.000 C 
ATOM     30  C   UNL     1       6.079   5.249  16.035  0.00  0.00    +0.000 C 
ATOM     31  C   UNL     1       6.832   4.896  14.741  0.00  0.00    +0.000 C 
ATOM     32  C   UNL     1       7.111   5.566  17.134  0.00  0.00    +0.000 C 
ENDBRANCH  28  30
ENDBRANCH  26  28
ENDBRANCH   1  26
TORSDOF 5
ENDMDL
MODEL 3
REMARK VINA RESULT:      -8.4      0.933      1.282
REMARK  Name = 
REMARK  8 active torsions:
REMARK  status: ('A' for Active; 'I' for Inactive)
REMARK    1  A    between atoms: C_1  and  C_2
REMARK    2  A    between atoms: C_2  and  C_3
REMARK    3  A    between atoms: C_2  and  C_4
REMARK    4  A    between atoms: C_2  and  C_5
REMARK    5  A    between atoms: C_5  and  N_6
REMARK    6  A    between atoms: N_6  and  C_7
REMARK    7  A    between atoms: N_15  and  C_16
REMARK    8  A    between atoms: C_19  and  N_20
REMARK                            x       y       z     vdW  Elec       q    Type
REMARK                         _______ _______ _______ _____ _____    ______ ____
ROOT
ATOM      1  C   UNL     1       4.207   3.297  19.079  0.00  0.00    +0.000 A 
ATOM      2  N   UNL     1       4.094   1.988  18.727  0.00  0.00    +0.000 NA
ATOM      3  C   UNL     1       2.886   1.401  18.805  0.00  0.00    +0.000 A 
ATOM      4  C   UNL     1       1.762   2.064  19.241  0.00  0.00    +0.000 A 
ATOM      5  C   UNL     1       1.902   3.410  19.613  0.00  0.00    +0.000 A 
ATOM      6  C   UNL     1       0.836   4.153  20.060  0.00  0.00    +0.000 A 
ATOM      7  N   UNL     1       0.942   5.437  20.415  0.00  0.00    +0.000 NA
ATOM      8  C   UNL     1       2.145   6.018  20.332  0.00  0.00    +0.000 A 
ATOM      9  N   UNL     1       2.304   7.359  20.653  0.00  0.00    +0.000 N 
ATOM     10  N   UNL     1       3.239   5.376  19.907  0.00  0.00    +0.000 NA
ATOM     11  C   UNL     1       3.126   4.073  19.550  0.00  0.00    +0.000 A 
ATOM     12  H   UNL     1       3.273   7.639  20.573  0.00  0.00    +0.000 HD
ENDROOT
BRANCH   9  13
ATOM     13  C   UNL     1       1.376   8.380  20.895  0.00  0.00    +0.000 A 
ATOM     14  C   UNL     1       0.790   8.595  22.148  0.00  0.00    +0.000 A 
ATOM     15  C   UNL     1      -0.139   9.617  22.368  0.00  0.00    +0.000 A 
ATOM     16  C   UNL     1      -0.507  10.484  21.344  0.00  0.00    +0.000 A 
ATOM     17  C   UNL     1       0.032  10.238  20.072  0.00  0.00    +0.000 A 
ATOM     18  C   UNL     1       0.957   9.216  19.851  0.00  0.00    +0.000 A 
ATOM     19 CL   UNL     1       1.556   8.998  18.239  0.00  0.00    +0.000 Cl
BRANCH  16  20
ATOM     20  N   UNL     1      -1.392  11.533  21.519  0.00  0.00    +0.000 N 
ATOM     21  C   UNL     1      -1.737  12.043  22.858  0.00  0.00    +0.000 C 
ATOM     22  C   UNL     1      -3.086  12.778  22.756  0.00  0.00    +0.000 C 
ATOM     23  O   UNL     1      -3.060  13.824  21.765  0.00  0.00    +0.000 OA
ATOM     24  C   UNL     1      -2.705  13.290  20.476  0.00  0.00    +0.000 C 
ATOM     25  C   UNL     1      -1.329  12.619  20.520  0.00  0.00    +0.000 C 
ENDBRANCH  16  20
ENDBRANCH   9  13
BRANCH   1  26
ATOM     26  N   UNL     1       5.483   3.904  19.005  0.00  0.00    +0.000 N 
ATOM     27  H   UNL     1       5.832   4.002  19.955  0.00  0.00    +0.000 HD
BRANCH  26  28
ATOM     28  C   UNL     1       5.521   5.122  18.204  0.00  0.00    +0.000 C 
BRANCH  28  30
ATOM     29  C   UNL     1       7.739   5.740  19.272  0.00  0.00    +0.000 C 
ATOM     30  C   UNL     1       6.970   5.600  17.948  0.00  0.00    +0.000 C 
ATOM     31  C   UNL     1       6.982   6.941  17.194  0.00  0.00    +0.000 C 
ATOM     32  C   UNL     1       7.674   4.541  17.078  0.00  0.00    +0.000 C 
ENDBRANCH  28  30
ENDBRANCH  26  28
ENDBRANCH   1  26
TORSDOF 5
ENDMDL
MODEL 4
REMARK VINA RESULT:      -8.4      0.726      1.046
REMARK  Name = 
REMARK  8 active torsions:
REMARK  status: ('A' for Active; 'I' for Inactive)
REMARK    1  A    between atoms: C_1  and  C_2
REMARK    2  A    between atoms: C_2  and  C_3
REMARK    3  A    between atoms: C_2  and  C_4
REMARK    4  A    between atoms: C_2  and  C_5
REMARK    5  A    between atoms: C_5  and  N_6
REMARK    6  A    between atoms: N_6  and  C_7
REMARK    7  A    between atoms: N_15  and  C_16
REMARK    8  A    between atoms: C_19  and  N_20
REMARK                            x       y       z     vdW  Elec       q    Type
REMARK                         _______ _______ _______ _____ _____    ______ ____
ROOT
ATOM      1  C   UNL     1       3.504   3.581  17.773  0.00  0.00    +0.000 A 
ATOM      2  N   UNL     1       3.594   2.227  17.851  0.00  0.00    +0.000 NA
ATOM      3  C   UNL     1       3.032   1.602  18.902  0.00  0.00    +0.000 A 
ATOM      4  C   UNL     1       2.384   2.277  19.910  0.00  0.00    +0.000 A 
ATOM      5  C   UNL     1       2.314   3.676  19.818  0.00  0.00    +0.000 A 
ATOM      6  C   UNL     1       1.687   4.434  20.778  0.00  0.00    +0.000 A 
ATOM      7  N   UNL     1       1.602   5.766  20.711  0.00  0.00    +0.000 NA
ATOM      8  C   UNL     1       2.158   6.383  19.662  0.00  0.00    +0.000 A 
ATOM      9  N   UNL     1       2.068   7.762  19.525  0.00  0.00    +0.000 N 
ATOM     10  N   UNL     1       2.789   5.729  18.679  0.00  0.00    +0.000 NA
ATOM     11  C   UNL     1       2.873   4.378  18.752  0.00  0.00    +0.000 A 
ATOM     12  H   UNL     1       2.565   8.077  18.702  0.00  0.00    +0.000 HD
ENDROOT
BRANCH   9  13
ATOM     13  C   UNL     1       1.305   8.721  20.201  0.00  0.00    +0.000 A 
ATOM     14  C   UNL     1       1.203   8.766  21.597  0.00  0.00    +0.000 A 
ATOM     15  C   UNL     1       0.431   9.729  22.254  0.00  0.00    +0.000 A 
ATOM     16  C   UNL     1      -0.257  10.706  21.541  0.00  0.00    +0.000 A 
ATOM     17  C   UNL     1      -0.206  10.631  20.141  0.00  0.00    +0.000 A 
ATOM     18  C   UNL     1       0.561   9.668  19.484  0.00  0.00    +0.000 A 
ATOM     19 CL   UNL     1       0.549   9.664  17.751  0.00  0.00    +0.000 Cl
BRANCH  16  20
ATOM     20  N   UNL     1      -1.002  11.703  22.145  0.00  0.00    +0.000 N 
ATOM     21  C   UNL     1      -1.858  11.434  23.313  0.00  0.00    +0.000 C 
ATOM     22  C   UNL     1      -2.923  12.544  23.392  0.00  0.00    +0.000 C 
ATOM     23  O   UNL     1      -2.333  13.858  23.439  0.00  0.00    +0.000 OA
ATOM     24  C   UNL     1      -1.494  14.077  22.290  0.00  0.00    +0.000 C 
ATOM     25  C   UNL     1      -0.372  13.037  22.224  0.00  0.00    +0.000 C 
ENDBRANCH  16  20
ENDBRANCH   9  13
BRANCH   1  26
ATOM     26  N   UNL     1       4.107   4.232  16.670  0.00  0.00    +0.000 N 
ATOM     27  H   UNL     1       3.590   3.965  15.836  0.00  0.00    +0.000 HD
BRANCH  26  28
ATOM     28  C   UNL     1       5.552   4.050  16.585  0.00  0.00    +0.000 C 
BRANCH  28  30
ATOM     29  C   UNL     1       5.230   6.368  15.604  0.00  0.00    +0.000 C 
ATOM     30  C   UNL     1       6.260   5.305  16.021  0.00  0.00    +0.000 C 
ATOM     31  C   UNL     1       7.150   4.942  14.820  0.00  0.00    +0.000 C 
ATOM     32  C   UNL     1       7.150   5.890  17.134  0.00  0.00    +0.000 C 
ENDBRANCH  28  30
ENDBRANCH  26  28
ENDBRANCH   1  26
TORSDOF 5
ENDMDL
MODEL 5
REMARK VINA RESULT:      -8.2      1.079      1.196
REMARK  Name = 
REMARK  8 active torsions:
REMARK  status: ('A' for Active; 'I' for Inactive)
REMARK    1  A    between atoms: C_1  and  C_2
REMARK    2  A    between atoms: C_2  and  C_3
REMARK    3  A    between atoms: C_2  and  C_4
REMARK    4  A    between atoms: C_2  and  C_5
REMARK    5  A    between atoms: C_5  and  N_6
REMARK    6  A    between atoms: N_6  and  C_7
REMARK    7  A    between atoms: N_15  and  C_16
REMARK    8  A    between atoms: C_19  and  N_20
REMARK                            x       y       z     vdW  Elec       q    Type
REMARK                         _______ _______ _______ _____ _____    ______ ____
ROOT
ATOM      1  C   UNL     1       3.901   3.678  18.433  0.00  0.00    +0.000 A 
ATOM      2  N   UNL     1       3.829   2.331  18.260  0.00  0.00    +0.000 NA
ATOM      3  C   UNL     1       2.794   1.665  18.803  0.00  0.00    +0.000 A 
ATOM      4  C   UNL     1       1.813   2.287  19.539  0.00  0.00    +0.000 A 
ATOM      5  C   UNL     1       1.912   3.676  19.718  0.00  0.00    +0.000 A 
ATOM      6  C   UNL     1       0.979   4.383  20.438  0.00  0.00    +0.000 A 
ATOM      7  N   UNL     1       1.048   5.704  20.618  0.00  0.00    +0.000 NA
ATOM      8  C   UNL     1       2.077   6.364  20.073  0.00  0.00    +0.000 A 
ATOM      9  N   UNL     1       2.178   7.743  20.198  0.00  0.00    +0.000 N 
ATOM     10  N   UNL     1       3.033   5.762  19.355  0.00  0.00    +0.000 NA
ATOM     11  C   UNL     1       2.959   4.420  19.177  0.00  0.00    +0.000 A 
ATOM     12  H   UNL     1       3.025   8.085  19.763  0.00  0.00    +0.000 HD
ENDROOT
BRANCH   9  13
ATOM     13  C   UNL     1       1.273   8.709  20.654  0.00  0.00    +0.000 A 
ATOM     14  C   UNL     1       0.891   8.821  21.996  0.00  0.00    +0.000 A 
ATOM     15  C   UNL     1      -0.019   9.791  22.430  0.00  0.00    +0.000 A 
ATOM     16  C   UNL     1      -0.571  10.706  21.539  0.00  0.00    +0.000 A 
ATOM     17  C   UNL     1      -0.236  10.563  20.185  0.00  0.00    +0.000 A 
ATOM     18  C   UNL     1       0.669   9.594  19.750  0.00  0.00    +0.000 A 
ATOM     19 CL   UNL     1       1.007   9.502  18.052  0.00  0.00    +0.000 Cl
BRANCH  16  20
ATOM     20  N   UNL     1      -1.444  11.707  21.925  0.00  0.00    +0.000 N 
ATOM     21  C   UNL     1      -1.064  12.733  22.911  0.00  0.00    +0.000 C 
ATOM     22  C   UNL     1      -2.354  13.320  23.512  0.00  0.00    +0.000 C 
ATOM     23  O   UNL     1      -3.237  13.840  22.499  0.00  0.00    +0.000 OA
ATOM     24  C   UNL     1      -3.574  12.814  21.547  0.00  0.00    +0.000 C 
ATOM     25  C   UNL     1      -2.316  12.261  20.869  0.00  0.00    +0.000 C 
ENDBRANCH  16  20
ENDBRANCH   9  13
BRANCH   1  26
ATOM     26  N   UNL     1       4.999   4.370  17.868  0.00  0.00    +0.000 N 
ATOM     27  H   UNL     1       5.532   3.702  17.316  0.00  0.00    +0.000 HD
BRANCH  26  28
ATOM     28  C   UNL     1       5.781   5.139  18.829  0.00  0.00    +0.000 C 
BRANCH  28  30
ATOM     29  C   UNL     1       7.718   4.526  17.308  0.00  0.00    +0.000 C 
ATOM     30  C   UNL     1       7.132   5.604  18.235  0.00  0.00    +0.000 C 
ATOM     31  C   UNL     1       8.138   5.935  19.350  0.00  0.00    +0.000 C 
ATOM     32  C   UNL     1       6.875   6.879  17.409  0.00  0.00    +0.000 C 
ENDBRANCH  28  30
ENDBRANCH  26  28
ENDBRANCH   1  26
TORSDOF 5
ENDMDL
MODEL 6
REMARK VINA RESULT:      -8.2      0.992      1.547
REMARK  Name = 
REMARK  8 active torsions:
REMARK  status: ('A' for Active; 'I' for Inactive)
REMARK    1  A    between atoms: C_1  and  C_2
REMARK    2  A    between atoms: C_2  and  C_3
REMARK    3  A    between atoms: C_2  and  C_4
REMARK    4  A    between atoms: C_2  and  C_5
REMARK    5  A    between atoms: C_5  and  N_6
REMARK    6  A    between atoms: N_6  and  C_7
REMARK    7  A    between atoms: N_15  and  C_16
REMARK    8  A    between atoms: C_19  and  N_20
REMARK                            x       y       z     vdW  Elec       q    Type
REMARK                         _______ _______ _______ _____ _____    ______ ____
ROOT
ATOM      1  C   UNL     1       3.851   3.582  18.413  0.00  0.00    +0.000 A 
ATOM      2  N   UNL     1       3.749   2.235  18.252  0.00  0.00    +0.000 NA
ATOM      3  C   UNL     1       2.695   1.599  18.794  0.00  0.00    +0.000 A 
ATOM      4  C   UNL     1       1.724   2.250  19.519  0.00  0.00    +0.000 A 
ATOM      5  C   UNL     1       1.855   3.637  19.686  0.00  0.00    +0.000 A 
ATOM      6  C   UNL     1       0.934   4.372  20.394  0.00  0.00    +0.000 A 
ATOM      7  N   UNL     1       1.033   5.693  20.563  0.00  0.00    +0.000 NA
ATOM      8  C   UNL     1       2.080   6.324  20.017  0.00  0.00    +0.000 A 
ATOM      9  N   UNL     1       2.213   7.701  20.131  0.00  0.00    +0.000 N 
ATOM     10  N   UNL     1       3.026   5.693  19.312  0.00  0.00    +0.000 NA
ATOM     11  C   UNL     1       2.922   4.352  19.144  0.00  0.00    +0.000 A 
ATOM     12  H   UNL     1       3.069   8.020  19.698  0.00  0.00    +0.000 HD
ENDROOT
BRANCH   9  13
ATOM     13  C   UNL     1       1.327   8.693  20.572  0.00  0.00    +0.000 A 
ATOM     14  C   UNL     1       0.990   8.867  21.919  0.00  0.00    +0.000 A 
ATOM     15  C   UNL     1       0.099   9.860  22.339  0.00  0.00    +0.000 A 
ATOM     16  C   UNL     1      -0.477  10.738  21.427  0.00  0.00    +0.000 A 
ATOM     17  C   UNL     1      -0.188  10.533  20.070  0.00  0.00    +0.000 A 
ATOM     18  C   UNL     1       0.698   9.539  19.650  0.00  0.00    +0.000 A 
ATOM     19 CL   UNL     1       0.980   9.370  17.948  0.00  0.00    +0.000 Cl
BRANCH  16  20
ATOM     20  N   UNL     1      -1.333  11.761  21.796  0.00  0.00    +0.000 N 
ATOM     21  C   UNL     1      -2.186  12.452  20.814  0.00  0.00    +0.000 C 
ATOM     22  C   UNL     1      -2.570  13.825  21.397  0.00  0.00    +0.000 C 
ATOM     23  O   UNL     1      -3.205  13.709  22.685  0.00  0.00    +0.000 OA
ATOM     24  C   UNL     1      -2.348  13.017  23.611  0.00  0.00    +0.000 C 
ATOM     25  C   UNL     1      -2.010  11.613  23.100  0.00  0.00    +0.000 C 
ENDBRANCH  16  20
ENDBRANCH   9  13
BRANCH   1  26
ATOM     26  N   UNL     1       4.968   4.242  17.849  0.00  0.00    +0.000 N 
ATOM     27  H   UNL     1       5.511   3.548  17.340  0.00  0.00    +0.000 HD
BRANCH  26  28
ATOM     28  C   UNL     1       5.730   5.047  18.797  0.00  0.00    +0.000 C 
BRANCH  28  30
ATOM     29  C   UNL     1       6.862   6.872  17.446  0.00  0.00    +0.000 C 
ATOM     30  C   UNL     1       7.065   5.544  18.193  0.00  0.00    +0.000 C 
ATOM     31  C   UNL     1       7.660   4.495  17.238  0.00  0.00    +0.000 C 
ATOM     32  C   UNL     1       8.055   5.775  19.350  0.00  0.00    +0.000 C 
ENDBRANCH  28  30
ENDBRANCH  26  28
ENDBRANCH   1  26
TORSDOF 5
ENDMDL
MODEL 7
REMARK VINA RESULT:      -8.2      0.858      1.324
REMARK  Name = 
REMARK  8 active torsions:
REMARK  status: ('A' for Active; 'I' for Inactive)
REMARK    1  A    between atoms: C_1  and  C_2
REMARK    2  A    between atoms: C_2  and  C_3
REMARK    3  A    between atoms: C_2  and  C_4
REMARK    4  A    between atoms: C_2  and  C_5
REMARK    5  A    between atoms: C_5  and  N_6
REMARK    6  A    between atoms: N_6  and  C_7
REMARK    7  A    between atoms: N_15  and  C_16
REMARK    8  A    between atoms: C_19  and  N_20
REMARK                            x       y       z     vdW  Elec       q    Type
REMARK                         _______ _______ _______ _____ _____    ______ ____
ROOT
ATOM      1  C   UNL     1       3.486   3.746  17.907  0.00  0.00    +0.000 A 
ATOM      2  N   UNL     1       3.557   2.389  17.967  0.00  0.00    +0.000 NA
ATOM      3  C   UNL     1       2.954   1.756  18.991  0.00  0.00    +0.000 A 
ATOM      4  C   UNL     1       2.283   2.425  19.988  0.00  0.00    +0.000 A 
ATOM      5  C   UNL     1       2.234   3.826  19.914  0.00  0.00    +0.000 A 
ATOM      6  C   UNL     1       1.586   4.579  20.865  0.00  0.00    +0.000 A 
ATOM      7  N   UNL     1       1.521   5.912  20.815  0.00  0.00    +0.000 NA
ATOM      8  C   UNL     1       2.117   6.537  19.793  0.00  0.00    +0.000 A 
ATOM      9  N   UNL     1       2.049   7.919  19.673  0.00  0.00    +0.000 N 
ATOM     10  N   UNL     1       2.771   5.889  18.821  0.00  0.00    +0.000 NA
ATOM     11  C   UNL     1       2.835   4.536  18.877  0.00  0.00    +0.000 A 
ATOM     12  H   UNL     1       2.576   8.240  18.872  0.00  0.00    +0.000 HD
ENDROOT
BRANCH   9  13
ATOM     13  C   UNL     1       1.277   8.878  20.340  0.00  0.00    +0.000 A 
ATOM     14  C   UNL     1       1.158   8.925  21.734  0.00  0.00    +0.000 A 
ATOM     15  C   UNL     1       0.378   9.888  22.381  0.00  0.00    +0.000 A 
ATOM     16  C   UNL     1      -0.303  10.863  21.658  0.00  0.00    +0.000 A 
ATOM     17  C   UNL     1      -0.234  10.787  20.259  0.00  0.00    +0.000 A 
ATOM     18  C   UNL     1       0.541   9.824  19.612  0.00  0.00    +0.000 A 
ATOM     19 CL   UNL     1       0.550   9.818  17.879  0.00  0.00    +0.000 Cl
BRANCH  16  20
ATOM     20  N   UNL     1      -1.056  11.860  22.252  0.00  0.00    +0.000 N 
ATOM     21  C   UNL     1      -0.513  13.210  22.486  0.00  0.00    +0.000 C 
ATOM     22  C   UNL     1      -1.340  13.871  23.603  0.00  0.00    +0.000 C 
ATOM     23  O   UNL     1      -2.747  13.897  23.292  0.00  0.00    +0.000 OA
ATOM     24  C   UNL     1      -3.237  12.564  23.057  0.00  0.00    +0.000 C 
ATOM     25  C   UNL     1      -2.489  11.902  21.896  0.00  0.00    +0.000 C 
ENDBRANCH  16  20
ENDBRANCH   9  13
BRANCH   1  26
ATOM     26  N   UNL     1       4.133   4.403  16.833  0.00  0.00    +0.000 N 
ATOM     27  H   UNL     1       3.699   4.083  15.971  0.00  0.00    +0.000 HD
BRANCH  26  28
ATOM     28  C   UNL     1       5.588   4.312  16.863  0.00  0.00    +0.000 C 
BRANCH  28  30
ATOM     29  C   UNL     1       7.264   6.211  17.010  0.00  0.00    +0.000 C 
ATOM     30  C   UNL     1       6.257   5.483  16.105  0.00  0.00    +0.000 C 
ATOM     31  C   UNL     1       5.203   6.479  15.592  0.00  0.00    +0.000 C 
ATOM     32  C   UNL     1       7.012   4.898  14.896  0.00  0.00    +0.000 C 
ENDBRANCH  28  30
ENDBRANCH  26  28
ENDBRANCH   1  26
TORSDOF 5
ENDMDL
MODEL 8
REMARK VINA RESULT:      -8.1      1.855      2.325
REMARK  Name = 
REMARK  8 active torsions:
REMARK  status: ('A' for Active; 'I' for Inactive)
REMARK    1  A    between atoms: C_1  and  C_2
REMARK    2  A    between atoms: C_2  and  C_3
REMARK    3  A    between atoms: C_2  and  C_4
REMARK    4  A    between atoms: C_2  and  C_5
REMARK    5  A    between atoms: C_5  and  N_6
REMARK    6  A    between atoms: N_6  and  C_7
REMARK    7  A    between atoms: N_15  and  C_16
REMARK    8  A    between atoms: C_19  and  N_20
REMARK                            x       y       z     vdW  Elec       q    Type
REMARK                         _______ _______ _______ _____ _____    ______ ____
ROOT
ATOM      1  C   UNL     1       4.968   4.362  19.270  0.00  0.00    +0.000 A 
ATOM      2  N   UNL     1       5.172   3.043  19.530  0.00  0.00    +0.000 NA
ATOM      3  C   UNL     1       4.186   2.342  20.119  0.00  0.00    +0.000 A 
ATOM      4  C   UNL     1       2.985   2.906  20.483  0.00  0.00    +0.000 A 
ATOM      5  C   UNL     1       2.800   4.272  20.217  0.00  0.00    +0.000 A 
ATOM      6  C   UNL     1       1.634   4.922  20.545  0.00  0.00    +0.000 A 
ATOM      7  N   UNL     1       1.431   6.219  20.299  0.00  0.00    +0.000 NA
ATOM      8  C   UNL     1       2.413   6.912  19.710  0.00  0.00    +0.000 A 
ATOM      9  N   UNL     1       2.241   8.254  19.398  0.00  0.00    +0.000 N 
ATOM     10  N   UNL     1       3.582   6.365  19.354  0.00  0.00    +0.000 NA
ATOM     11  C   UNL     1       3.783   5.049  19.607  0.00  0.00    +0.000 A 
ATOM     12  H   UNL     1       3.081   8.642  18.990  0.00  0.00    +0.000 HD
ENDROOT
BRANCH   9  13
ATOM     13  C   UNL     1       1.108   9.077  19.397  0.00  0.00    +0.000 A 
ATOM     14  C   UNL     1       0.457   9.474  18.224  0.00  0.00    +0.000 A 
ATOM     15  C   UNL     1      -0.671  10.301  18.243  0.00  0.00    +0.000 A 
ATOM     16  C   UNL     1      -1.211  10.748  19.445  0.00  0.00    +0.000 A 
ATOM     17  C   UNL     1      -0.530  10.401  20.622  0.00  0.00    +0.000 A 
ATOM     18  C   UNL     1       0.598   9.579  20.602  0.00  0.00    +0.000 A 
ATOM     19 CL   UNL     1       1.364   9.217  22.114  0.00  0.00    +0.000 Cl
BRANCH  16  20
ATOM     20  N   UNL     1      -2.347  11.535  19.520  0.00  0.00    +0.000 N 
ATOM     21  C   UNL     1      -2.346  12.838  20.206  0.00  0.00    +0.000 C 
ATOM     22  C   UNL     1      -3.798  13.180  20.586  0.00  0.00    +0.000 C 
ATOM     23  O   UNL     1      -4.675  13.167  19.443  0.00  0.00    +0.000 OA
ATOM     24  C   UNL     1      -4.638  11.883  18.792  0.00  0.00    +0.000 C 
ATOM     25  C   UNL     1      -3.218  11.546  18.327  0.00  0.00    +0.000 C 
ENDBRANCH  16  20
ENDBRANCH   9  13
BRANCH   1  26
ATOM     26  N   UNL     1       6.015   5.094  18.661  0.00  0.00    +0.000 N 
ATOM     27  H   UNL     1       5.677   6.042  18.507  0.00  0.00    +0.000 HD
BRANCH  26  28
ATOM     28  C   UNL     1       6.596   4.448  17.489  0.00  0.00    +0.000 C 
BRANCH  28  30
ATOM     29  C   UNL     1       6.945   4.815  15.003  0.00  0.00    +0.000 C 
ATOM     30  C   UNL     1       5.958   4.954  16.174  0.00  0.00    +0.000 C 
ATOM     31  C   UNL     1       5.511   6.419  16.307  0.00  0.00    +0.000 C 
ATOM     32  C   UNL     1       4.720   4.086  15.881  0.00  0.00    +0.000 C 
ENDBRANCH  28  30
ENDBRANCH  26  28
ENDBRANCH   1  26
TORSDOF 5
ENDMDL
MODEL 9
REMARK VINA RESULT:      -7.9      3.735     10.308
REMARK  Name = 
REMARK  8 active torsions:
REMARK  status: ('A' for Active; 'I' for Inactive)
REMARK    1  A    between atoms: C_1  and  C_2
REMARK    2  A    between atoms: C_2  and  C_3
REMARK    3  A    between atoms: C_2  and  C_4
REMARK    4  A    between atoms: C_2  and  C_5
REMARK    5  A    between atoms: C_5  and  N_6
REMARK    6  A    between atoms: N_6  and  C_7
REMARK    7  A    between atoms: N_15  and  C_16
REMARK    8  A    between atoms: C_19  and  N_20
REMARK                            x       y       z     vdW  Elec       q    Type
REMARK                         _______ _______ _______ _____ _____    ______ ____
ROOT
ATOM      1  C   UNL     1      -4.108  12.601  19.591  0.00  0.00    +0.000 A 
ATOM      2  N   UNL     1      -5.344  12.885  19.101  0.00  0.00    +0.000 NA
ATOM      3  C   UNL     1      -5.744  12.279  17.968  0.00  0.00    +0.000 A 
ATOM      4  C   UNL     1      -4.948  11.396  17.275  0.00  0.00    +0.000 A 
ATOM      5  C   UNL     1      -3.671  11.127  17.790  0.00  0.00    +0.000 A 
ATOM      6  C   UNL     1      -2.806  10.259  17.167  0.00  0.00    +0.000 A 
ATOM      7  N   UNL     1      -1.588   9.982  17.639  0.00  0.00    +0.000 NA
ATOM      8  C   UNL     1      -1.196  10.584  18.769  0.00  0.00    +0.000 A 
ATOM      9  N   UNL     1       0.046  10.304  19.323  0.00  0.00    +0.000 N 
ATOM     10  N   UNL     1      -1.968  11.442  19.445  0.00  0.00    +0.000 NA
ATOM     11  C   UNL     1      -3.203  11.720  18.961  0.00  0.00    +0.000 A 
ATOM     12  H   UNL     1       0.207  10.861  20.151  0.00  0.00    +0.000 HD
ENDROOT
BRANCH   9  13
ATOM     13  C   UNL     1       0.995   9.313  19.041  0.00  0.00    +0.000 A 
ATOM     14  C   UNL     1       1.613   9.185  17.791  0.00  0.00    +0.000 A 
ATOM     15  C   UNL     1       2.554   8.185  17.528  0.00  0.00    +0.000 A 
ATOM     16  C   UNL     1       2.934   7.281  18.514  0.00  0.00    +0.000 A 
ATOM     17  C   UNL     1       2.278   7.368  19.751  0.00  0.00    +0.000 A 
ATOM     18  C   UNL     1       1.335   8.363  20.013  0.00  0.00    +0.000 A 
ATOM     19 CL   UNL     1       0.580   8.375  21.573  0.00  0.00    +0.000 Cl
BRANCH  16  20
ATOM     20  N   UNL     1       3.889   6.299  18.315  0.00  0.00    +0.000 N 
ATOM     21  C   UNL     1       5.078   6.529  17.477  0.00  0.00    +0.000 C 
ATOM     22  C   UNL     1       5.614   5.160  17.021  0.00  0.00    +0.000 C 
ATOM     23  O   UNL     1       5.893   4.288  18.135  0.00  0.00    +0.000 OA
ATOM     24  C   UNL     1       4.713   4.099  18.937  0.00  0.00    +0.000 C 
ATOM     25  C   UNL     1       4.196   5.437  19.475  0.00  0.00    +0.000 C 
ENDBRANCH  16  20
ENDBRANCH   9  13
BRANCH   1  26
ATOM     26  N   UNL     1      -3.691  13.251  20.777  0.00  0.00    +0.000 N 
ATOM     27  H   UNL     1      -2.676  13.205  20.812  0.00  0.00    +0.000 HD
BRANCH  26  28
ATOM     28  C   UNL     1      -4.372  12.793  21.982  0.00  0.00    +0.000 C 
BRANCH  28  30
ATOM     29  C   UNL     1      -4.109  12.361  24.469  0.00  0.00    +0.000 C 
ATOM     30  C   UNL     1      -3.590  13.164  23.265  0.00  0.00    +0.000 C 
ATOM     31  C   UNL     1      -3.698  14.670  23.558  0.00  0.00    +0.000 C 
ATOM     32  C   UNL     1      -2.108  12.812  23.037  0.00  0.00    +0.000 C 
ENDBRANCH  28  30
ENDBRANCH  26  28
ENDBRANCH   1  26
TORSDOF 5
ENDMDL
