MODEL 1
REMARK VINA RESULT:      -7.0      0.000      0.000
REMARK  Name = 
REMARK  3 active torsions:
REMARK  status: ('A' for Active; 'I' for Inactive)
REMARK    1  A    between atoms: C_1  and  N_2
REMARK    2  A    between atoms: N_2  and  C_3
REMARK    3  A    between atoms: C_3  and  C_4
REMARK                            x       y       z     vdW  Elec       q    Type
REMARK                         _______ _______ _______ _____ _____    ______ ____
ROOT
ATOM      1  C   UNL     1       4.245   3.648  18.396  0.00  0.00    +0.000 C 
ATOM      2  C   UNL     1       3.955   4.787  19.437  0.00  0.00    +0.000 C 
ATOM      3  C   UNL     1       3.172   5.941  18.802  0.00  0.00    +0.000 C 
ATOM      4  C   UNL     1       1.763   5.483  18.493  0.00  0.00    +0.000 C 
ATOM      5  C   UNL     1       1.734   4.225  17.651  0.00  0.00    +0.000 C 
ATOM      6  C   UNL     1       2.807   3.182  17.960  0.00  0.00    +0.000 C 
ATOM      7  O   UNL     1       2.476   1.994  17.843  0.00  0.00    +0.000 OA
ENDROOT
BRANCH   1   8
ATOM      8  C   UNL     1       5.227   4.264  17.360  0.00  0.00    +0.000 A 
ATOM      9  C   UNL     1       4.864   4.136  15.985  0.00  0.00    +0.000 A 
ATOM     10  C   UNL     1       5.771   4.342  14.942  0.00  0.00    +0.000 A 
ATOM     11  C   UNL     1       7.067   4.712  15.240  0.00  0.00    +0.000 A 
ATOM     12  C   UNL     1       7.416   4.982  16.562  0.00  0.00    +0.000 A 
ATOM     13  C   UNL     1       6.491   4.805  17.613  0.00  0.00    +0.000 A 
ATOM     14 CL   UNL     1       7.011   5.363  19.156  0.00  0.00    +0.000 Cl
ENDBRANCH   1   8
BRANCH   1  16
ATOM     15  C   UNL     1       4.368   2.327  20.499  0.00  0.00    +0.000 C 
ATOM     16  N   UNL     1       4.895   2.531  19.149  0.00  0.00    +0.000 NA
ATOM     17  H   UNL     1       4.825   1.660  18.634  0.00  0.00    +0.000 HD
ENDBRANCH   1  16
TORSDOF 2
ENDMDL
MODEL 2
REMARK VINA RESULT:      -6.9      1.852      2.387
REMARK  Name = 
REMARK  3 active torsions:
REMARK  status: ('A' for Active; 'I' for Inactive)
REMARK    1  A    between atoms: C_1  and  N_2
REMARK    2  A    between atoms: N_2  and  C_3
REMARK    3  A    between atoms: C_3  and  C_4
REMARK                            x       y       z     vdW  Elec       q    Type
REMARK                         _______ _______ _______ _____ _____    ______ ____
ROOT
ATOM      1  C   UNL     1       4.145   4.369  18.687  0.00  0.00    +0.000 C 
ATOM      2  C   UNL     1       2.666   4.882  18.796  0.00  0.00    +0.000 C 
ATOM      3  C   UNL     1       1.727   4.083  17.887  0.00  0.00    +0.000 C 
ATOM      4  C   UNL     1       1.575   2.678  18.431  0.00  0.00    +0.000 C 
ATOM      5  C   UNL     1       2.908   1.991  18.643  0.00  0.00    +0.000 C 
ATOM      6  C   UNL     1       4.045   2.871  19.156  0.00  0.00    +0.000 C 
ATOM      7  O   UNL     1       4.851   2.340  19.933  0.00  0.00    +0.000 OA
ENDROOT
BRANCH   1   8
ATOM      8  C   UNL     1       4.607   4.719  17.244  0.00  0.00    +0.000 A 
ATOM      9  C   UNL     1       5.122   3.641  16.462  0.00  0.00    +0.000 A 
ATOM     10  C   UNL     1       5.860   3.843  15.293  0.00  0.00    +0.000 A 
ATOM     11  C   UNL     1       6.083   5.131  14.850  0.00  0.00    +0.000 A 
ATOM     12  C   UNL     1       5.478   6.197  15.511  0.00  0.00    +0.000 A 
ATOM     13  C   UNL     1       4.705   5.992  16.674  0.00  0.00    +0.000 A 
ATOM     14 CL   UNL     1       3.868   7.378  17.259  0.00  0.00    +0.000 Cl
ENDBRANCH   1   8
BRANCH   1  16
ATOM     15  C   UNL     1       6.338   5.354  19.326  0.00  0.00    +0.000 C 
ATOM     16  N   UNL     1       4.941   5.130  19.701  0.00  0.00    +0.000 NA
ATOM     17  H   UNL     1       4.507   6.024  19.903  0.00  0.00    +0.000 HD
ENDBRANCH   1  16
TORSDOF 2
ENDMDL
MODEL 3
REMARK VINA RESULT:      -6.8      1.467      2.053
REMARK  Name = 
REMARK  3 active torsions:
REMARK  status: ('A' for Active; 'I' for Inactive)
REMARK    1  A    between atoms: C_1  and  N_2
REMARK    2  A    between atoms: N_2  and  C_3
REMARK    3  A    between atoms: C_3  and  C_4
REMARK                            x       y       z     vdW  Elec       q    Type
REMARK                         _______ _______ _______ _____ _____    ______ ____
ROOT
ATOM      1  C   UNL     1       4.639   3.672  18.788  0.00  0.00    +0.000 C 
ATOM      2  C   UNL     1       3.814   4.658  19.690  0.00  0.00    +0.000 C 
ATOM      3  C   UNL     1       3.108   5.728  18.851  0.00  0.00    +0.000 C 
ATOM      4  C   UNL     1       1.995   5.086  18.051  0.00  0.00    +0.000 C 
ATOM      5  C   UNL     1       2.478   3.916  17.220  0.00  0.00    +0.000 C 
ATOM      6  C   UNL     1       3.544   3.029  17.860  0.00  0.00    +0.000 C 
ATOM      7  O   UNL     1       3.487   1.819  17.601  0.00  0.00    +0.000 OA
ENDROOT
BRANCH   1   8
ATOM      8  C   UNL     1       5.793   4.520  18.184  0.00  0.00    +0.000 A 
ATOM      9  C   UNL     1       6.558   5.302  19.103  0.00  0.00    +0.000 A 
ATOM     10  C   UNL     1       7.398   6.340  18.693  0.00  0.00    +0.000 A 
ATOM     11  C   UNL     1       7.525   6.612  17.345  0.00  0.00    +0.000 A 
ATOM     12  C   UNL     1       6.904   5.781  16.416  0.00  0.00    +0.000 A 
ATOM     13  C   UNL     1       6.081   4.711  16.829  0.00  0.00    +0.000 A 
ATOM     14 CL   UNL     1       5.546   3.663  15.572  0.00  0.00    +0.000 Cl
ENDBRANCH   1   8
BRANCH   1  16
ATOM     15  C   UNL     1       4.262   2.211  20.764  0.00  0.00    +0.000 C 
ATOM     16  N   UNL     1       5.176   2.608  19.693  0.00  0.00    +0.000 NA
ATOM     17  H   UNL     1       5.439   1.784  19.162  0.00  0.00    +0.000 HD
ENDBRANCH   1  16
TORSDOF 2
ENDMDL
MODEL 4
REMARK VINA RESULT:      -6.7      2.162      2.907
REMARK  Name = 
REMARK  3 active torsions:
REMARK  status: ('A' for Active; 'I' for Inactive)
REMARK    1  A    between atoms: C_1  and  N_2
REMARK    2  A    between atoms: N_2  and  C_3
REMARK    3  A    between atoms: C_3  and  C_4
REMARK                            x       y       z     vdW  Elec       q    Type
REMARK                         _______ _______ _______ _____ _____    ______ ____
ROOT
ATOM      1  C   UNL     1       3.638   4.491  19.117  0.00  0.00    +0.000 C 
ATOM      2  C   UNL     1       2.358   4.481  18.208  0.00  0.00    +0.000 C 
ATOM      3  C   UNL     1       2.513   3.510  17.032  0.00  0.00    +0.000 C 
ATOM      4  C   UNL     1       2.497   2.088  17.550  0.00  0.00    +0.000 C 
ATOM      5  C   UNL     1       3.524   1.855  18.639  0.00  0.00    +0.000 C 
ATOM      6  C   UNL     1       3.735   3.004  19.622  0.00  0.00    +0.000 C 
ATOM      7  O   UNL     1       3.982   2.692  20.795  0.00  0.00    +0.000 OA
ENDROOT
BRANCH   1   8
ATOM      8  C   UNL     1       4.769   5.108  18.247  0.00  0.00    +0.000 A 
ATOM      9  C   UNL     1       5.939   4.310  18.064  0.00  0.00    +0.000 A 
ATOM     10  C   UNL     1       7.145   4.835  17.592  0.00  0.00    +0.000 A 
ATOM     11  C   UNL     1       7.212   6.173  17.259  0.00  0.00    +0.000 A 
ATOM     12  C   UNL     1       6.055   6.947  17.292  0.00  0.00    +0.000 A 
ATOM     13  C   UNL     1       4.828   6.409  17.738  0.00  0.00    +0.000 A 
ATOM     14 CL   UNL     1       3.457   7.430  17.536  0.00  0.00    +0.000 Cl
ENDBRANCH   1   8
BRANCH   1  16
ATOM     15  C   UNL     1       1.898   5.561  20.536  0.00  0.00    +0.000 C 
ATOM     16  N   UNL     1       3.328   5.369  20.289  0.00  0.00    +0.000 NA
ATOM     17  H   UNL     1       3.762   5.010  21.132  0.00  0.00    +0.000 HD
ENDBRANCH   1  16
TORSDOF 2
ENDMDL
MODEL 5
REMARK VINA RESULT:      -6.6      2.452      4.693
REMARK  Name = 
REMARK  3 active torsions:
REMARK  status: ('A' for Active; 'I' for Inactive)
REMARK    1  A    between atoms: C_1  and  N_2
REMARK    2  A    between atoms: N_2  and  C_3
REMARK    3  A    between atoms: C_3  and  C_4
REMARK                            x       y       z     vdW  Elec       q    Type
REMARK                         _______ _______ _______ _____ _____    ______ ____
ROOT
ATOM      1  C   UNL     1       4.809   4.000  18.732  0.00  0.00    +0.000 C 
ATOM      2  C   UNL     1       4.844   3.775  17.179  0.00  0.00    +0.000 C 
ATOM      3  C   UNL     1       4.463   5.049  16.419  0.00  0.00    +0.000 C 
ATOM      4  C   UNL     1       5.564   6.076  16.575  0.00  0.00    +0.000 C 
ATOM      5  C   UNL     1       5.907   6.342  18.026  0.00  0.00    +0.000 C 
ATOM      6  C   UNL     1       5.877   5.133  18.958  0.00  0.00    +0.000 C 
ATOM      7  O   UNL     1       6.718   5.113  19.868  0.00  0.00    +0.000 OA
ENDROOT
BRANCH   1   8
ATOM      8  C   UNL     1       3.315   4.237  19.090  0.00  0.00    +0.000 A 
ATOM      9  C   UNL     1       3.026   5.385  19.890  0.00  0.00    +0.000 A 
ATOM     10  C   UNL     1       1.808   5.556  20.552  0.00  0.00    +0.000 A 
ATOM     11  C   UNL     1       0.825   4.597  20.413  0.00  0.00    +0.000 A 
ATOM     12  C   UNL     1       1.021   3.537  19.531  0.00  0.00    +0.000 A 
ATOM     13  C   UNL     1       2.240   3.380  18.836  0.00  0.00    +0.000 A 
ATOM     14 CL   UNL     1       2.256   2.139  17.644  0.00  0.00    +0.000 Cl
ENDBRANCH   1   8
BRANCH   1  16
ATOM     15  C   UNL     1       4.514   2.268  20.492  0.00  0.00    +0.000 C 
ATOM     16  N   UNL     1       5.316   2.741  19.363  0.00  0.00    +0.000 NA
ATOM     17  H   UNL     1       5.387   1.998  18.676  0.00  0.00    +0.000 HD
ENDBRANCH   1  16
TORSDOF 2
ENDMDL
MODEL 6
REMARK VINA RESULT:      -6.5      2.276      4.440
REMARK  Name = 
REMARK  3 active torsions:
REMARK  status: ('A' for Active; 'I' for Inactive)
REMARK    1  A    between atoms: C_1  and  N_2
REMARK    2  A    between atoms: N_2  and  C_3
REMARK    3  A    between atoms: C_3  and  C_4
REMARK                            x       y       z     vdW  Elec       q    Type
REMARK                         _______ _______ _______ _____ _____    ______ ____
ROOT
ATOM      1  C   UNL     1       5.823   4.475  16.539  0.00  0.00    +0.000 C 
ATOM      2  C   UNL     1       5.407   5.743  15.713  0.00  0.00    +0.000 C 
ATOM      3  C   UNL     1       5.265   6.976  16.611  0.00  0.00    +0.000 C 
ATOM      4  C   UNL     1       6.634   7.400  17.100  0.00  0.00    +0.000 C 
ATOM      5  C   UNL     1       7.385   6.271  17.773  0.00  0.00    +0.000 C 
ATOM      6  C   UNL     1       7.211   4.885  17.157  0.00  0.00    +0.000 C 
ATOM      7  O   UNL     1       8.199   4.138  17.181  0.00  0.00    +0.000 OA
ENDROOT
BRANCH   1   8
ATOM      8  C   UNL     1       4.611   4.152  17.457  0.00  0.00    +0.000 A 
ATOM      9  C   UNL     1       3.478   3.552  16.828  0.00  0.00    +0.000 A 
ATOM     10  C   UNL     1       2.220   3.498  17.432  0.00  0.00    +0.000 A 
ATOM     11  C   UNL     1       2.058   4.019  18.701  0.00  0.00    +0.000 A 
ATOM     12  C   UNL     1       3.171   4.485  19.397  0.00  0.00    +0.000 A 
ATOM     13  C   UNL     1       4.450   4.509  18.799  0.00  0.00    +0.000 A 
ATOM     14 CL   UNL     1       5.748   4.928  19.849  0.00  0.00    +0.000 Cl
ENDBRANCH   1   8
BRANCH   1  16
ATOM     15  C   UNL     1       6.236   3.828  14.174  0.00  0.00    +0.000 C 
ATOM     16  N   UNL     1       6.053   3.373  15.552  0.00  0.00    +0.000 NA
ATOM     17  H   UNL     1       6.852   2.809  15.822  0.00  0.00    +0.000 HD
ENDBRANCH   1  16
TORSDOF 2
ENDMDL
MODEL 7
REMARK VINA RESULT:      -6.5      2.454      4.531
REMARK  Name = 
REMARK  3 active torsions:
REMARK  status: ('A' for Active; 'I' for Inactive)
REMARK    1  A    between atoms: C_1  and  N_2
REMARK    2  A    between atoms: N_2  and  C_3
REMARK    3  A    between atoms: C_3  and  C_4
REMARK                            x       y       z     vdW  Elec       q    Type
REMARK                         _______ _______ _______ _____ _____    ______ ____
ROOT
ATOM      1  C   UNL     1       5.422   5.165  17.875  0.00  0.00    +0.000 C 
ATOM      2  C   UNL     1       6.314   4.141  17.087  0.00  0.00    +0.000 C 
ATOM      3  C   UNL     1       5.732   3.840  15.702  0.00  0.00    +0.000 C 
ATOM      4  C   UNL     1       5.871   5.065  14.822  0.00  0.00    +0.000 C 
ATOM      5  C   UNL     1       5.269   6.303  15.452  0.00  0.00    +0.000 C 
ATOM      6  C   UNL     1       5.448   6.446  16.962  0.00  0.00    +0.000 C 
ATOM      7  O   UNL     1       5.604   7.595  17.396  0.00  0.00    +0.000 OA
ENDROOT
BRANCH   1   8
ATOM      8  C   UNL     1       4.086   4.424  18.165  0.00  0.00    +0.000 A 
ATOM      9  C   UNL     1       4.180   3.027  18.448  0.00  0.00    +0.000 A 
ATOM     10  C   UNL     1       3.075   2.174  18.411  0.00  0.00    +0.000 A 
ATOM     11  C   UNL     1       1.831   2.694  18.117  0.00  0.00    +0.000 A 
ATOM     12  C   UNL     1       1.680   4.071  17.974  0.00  0.00    +0.000 A 
ATOM     13  C   UNL     1       2.791   4.939  18.044  0.00  0.00    +0.000 A 
ATOM     14 CL   UNL     1       2.417   6.619  18.042  0.00  0.00    +0.000 Cl
ENDBRANCH   1   8
BRANCH   1  16
ATOM     15  C   UNL     1       7.601   5.538  19.013  0.00  0.00    +0.000 C 
ATOM     16  N   UNL     1       6.145   5.477  19.147  0.00  0.00    +0.000 NA
ATOM     17  H   UNL     1       5.814   6.350  19.545  0.00  0.00    +0.000 HD
ENDBRANCH   1  16
TORSDOF 2
ENDMDL
MODEL 8
REMARK VINA RESULT:      -6.3      2.346      4.674
REMARK  Name = 
REMARK  3 active torsions:
REMARK  status: ('A' for Active; 'I' for Inactive)
REMARK    1  A    between atoms: C_1  and  N_2
REMARK    2  A    between atoms: N_2  and  C_3
REMARK    3  A    between atoms: C_3  and  C_4
REMARK                            x       y       z     vdW  Elec       q    Type
REMARK                         _______ _______ _______ _____ _____    ______ ____
ROOT
ATOM      1  C   UNL     1       5.920   4.962  17.224  0.00  0.00    +0.000 C 
ATOM      2  C   UNL     1       6.001   6.186  16.245  0.00  0.00    +0.000 C 
ATOM      3  C   UNL     1       6.163   7.505  17.008  0.00  0.00    +0.000 C 
ATOM      4  C   UNL     1       7.542   7.557  17.632  0.00  0.00    +0.000 C 
ATOM      5  C   UNL     1       7.835   6.346  18.491  0.00  0.00    +0.000 C 
ATOM      6  C   UNL     1       7.299   5.011  17.979  0.00  0.00    +0.000 C 
ATOM      7  O   UNL     1       7.999   4.012  18.197  0.00  0.00    +0.000 OA
ENDROOT
BRANCH   1   8
ATOM      8  C   UNL     1       4.584   5.131  18.001  0.00  0.00    +0.000 A 
ATOM      9  C   UNL     1       3.728   6.191  17.572  0.00  0.00    +0.000 A 
ATOM     10  C   UNL     1       2.671   6.669  18.350  0.00  0.00    +0.000 A 
ATOM     11  C   UNL     1       2.415   6.083  19.574  0.00  0.00    +0.000 A 
ATOM     12  C   UNL     1       3.141   4.958  19.959  0.00  0.00    +0.000 A 
ATOM     13  C   UNL     1       4.188   4.454  19.159  0.00  0.00    +0.000 A 
ATOM     14 CL   UNL     1       4.855   2.953  19.674  0.00  0.00    +0.000 Cl
ENDBRANCH   1   8
BRANCH   1  16
ATOM     15  C   UNL     1       6.139   3.974  14.953  0.00  0.00    +0.000 C 
ATOM     16  N   UNL     1       5.890   3.731  16.374  0.00  0.00    +0.000 NA
ATOM     17  H   UNL     1       6.555   3.043  16.712  0.00  0.00    +0.000 HD
ENDBRANCH   1  16
TORSDOF 2
ENDMDL
MODEL 9
REMARK VINA RESULT:      -6.3      2.482      3.523
REMARK  Name = 
REMARK  3 active torsions:
REMARK  status: ('A' for Active; 'I' for Inactive)
REMARK    1  A    between atoms: C_1  and  N_2
REMARK    2  A    between atoms: N_2  and  C_3
REMARK    3  A    between atoms: C_3  and  C_4
REMARK                            x       y       z     vdW  Elec       q    Type
REMARK                         _______ _______ _______ _____ _____    ______ ____
ROOT
ATOM      1  C   UNL     1       3.051   4.174  19.776  0.00  0.00    +0.000 C 
ATOM      2  C   UNL     1       1.622   3.753  19.280  0.00  0.00    +0.000 C 
ATOM      3  C   UNL     1       1.610   3.482  17.772  0.00  0.00    +0.000 C 
ATOM      4  C   UNL     1       2.389   2.216  17.482  0.00  0.00    +0.000 C 
ATOM      5  C   UNL     1       3.789   2.253  18.057  0.00  0.00    +0.000 C 
ATOM      6  C   UNL     1       3.941   2.927  19.419  0.00  0.00    +0.000 C 
ATOM      7  O   UNL     1       4.782   2.442  20.188  0.00  0.00    +0.000 OA
ENDROOT
BRANCH   1   8
ATOM      8  C   UNL     1       3.331   5.559  19.128  0.00  0.00    +0.000 A 
ATOM      9  C   UNL     1       2.368   6.585  19.377  0.00  0.00    +0.000 A 
ATOM     10  C   UNL     1       2.305   7.760  18.623  0.00  0.00    +0.000 A 
ATOM     11  C   UNL     1       3.223   7.961  17.611  0.00  0.00    +0.000 A 
ATOM     12  C   UNL     1       4.259   7.048  17.434  0.00  0.00    +0.000 A 
ATOM     13  C   UNL     1       4.343   5.876  18.217  0.00  0.00    +0.000 A 
ATOM     14 CL   UNL     1       5.780   4.952  18.011  0.00  0.00    +0.000 Cl
ENDBRANCH   1   8
BRANCH   1  16
ATOM     15  C   UNL     1       2.063   3.333  21.897  0.00  0.00    +0.000 C 
ATOM     16  N   UNL     1       2.974   4.289  21.266  0.00  0.00    +0.000 NA
ATOM     17  H   UNL     1       3.894   4.192  21.683  0.00  0.00    +0.000 HD
ENDBRANCH   1  16
TORSDOF 2
ENDMDL
