MODEL 1
REMARK VINA RESULT:      -5.9      0.000      0.000
REMARK  Name = 
REMARK  13 active torsions:
REMARK  status: ('A' for Active; 'I' for Inactive)
REMARK    1  A    between atoms: C_2  and  C_3
REMARK    2  A    between atoms: C_3  and  C_4
REMARK    3  A    between atoms: C_4  and  C_5
REMARK    4  A    between atoms: C_5  and  C_6
REMARK    5  A    between atoms: C_6  and  C_7
REMARK    6  A    between atoms: C_8  and  C_9
REMARK    7  A    between atoms: C_10  and  C_11
REMARK    8  A    between atoms: C_12  and  C_13
REMARK    9  A    between atoms: C_13  and  C_14
REMARK   10  A    between atoms: C_14  and  C_15
REMARK   11  A    between atoms: C_15  and  C_16
REMARK   12  A    between atoms: C_16  and  C_17
REMARK   13  A    between atoms: C_17  and  C_18
REMARK                            x       y       z     vdW  Elec       q    Type
REMARK                         _______ _______ _______ _____ _____    ______ ____
ROOT
ATOM      1  C   UNL     1       4.503   5.029  16.631  0.00  0.00    +0.000 C 
ATOM      2  C   UNL     1       5.102   4.731  15.624  0.00  0.00    +0.000 C 
ENDROOT
BRANCH   1   4
ATOM      3  C   UNL     1       3.085   5.733  19.026  0.00  0.00    +0.000 C 
ATOM      4  C   UNL     1       3.728   5.412  17.938  0.00  0.00    +0.000 C 
BRANCH   3   5
ATOM      5  C   UNL     1       2.336   6.107  20.295  0.00  0.00    +0.000 C 
BRANCH   5   6
ATOM      6  C   UNL     1       1.993   4.851  21.069  0.00  0.00    +0.000 C 
BRANCH   6   7
ATOM      7  C   UNL     1       1.290   3.857  20.162  0.00  0.00    +0.000 C 
BRANCH   7   8
ATOM      8  C   UNL     1       1.866   2.471  20.368  0.00  0.00    +0.000 C 
BRANCH   8  10
ATOM      9  N   UNL     1       4.611   2.529  19.929  0.00  0.00    +0.000 NA
ATOM     10  C   UNL     1       3.366   2.502  20.128  0.00  0.00    +0.000 C 
ENDBRANCH   8  10
ENDBRANCH   7   8
ENDBRANCH   6   7
ENDBRANCH   5   6
ENDBRANCH   3   5
ENDBRANCH   1   4
BRANCH   2  11
ATOM     11  C   UNL     1       5.876   4.341  14.317  0.00  0.00    +0.000 C 
ATOM     12  C   UNL     1       6.523   4.016  13.232  0.00  0.00    +0.000 C 
BRANCH  12  13
ATOM     13  C   UNL     1       7.276   3.637  11.968  0.00  0.00    +0.000 C 
BRANCH  13  14
ATOM     14  C   UNL     1       6.712   2.346  11.410  0.00  0.00    +0.000 C 
BRANCH  14  15
ATOM     15  C   UNL     1       5.208   2.309  11.617  0.00  0.00    +0.000 C 
BRANCH  15  16
ATOM     16  C   UNL     1       4.567   3.546  11.016  0.00  0.00    +0.000 C 
BRANCH  16  17
ATOM     17  C   UNL     1       3.192   3.204  10.480  0.00  0.00    +0.000 C 
BRANCH  17  18
ATOM     18  C   UNL     1       2.822   4.177   9.372  0.00  0.00    +0.000 C 
ATOM     19  N   UNL     1       2.515   4.983   8.453  0.00  0.00    +0.000 NA
ENDBRANCH  17  18
ENDBRANCH  16  17
ENDBRANCH  15  16
ENDBRANCH  14  15
ENDBRANCH  13  14
ENDBRANCH  12  13
ENDBRANCH   2  11
TORSDOF 13
ENDMDL
MODEL 2
REMARK VINA RESULT:      -5.6      5.923      9.009
REMARK  Name = 
REMARK  13 active torsions:
REMARK  status: ('A' for Active; 'I' for Inactive)
REMARK    1  A    between atoms: C_2  and  C_3
REMARK    2  A    between atoms: C_3  and  C_4
REMARK    3  A    between atoms: C_4  and  C_5
REMARK    4  A    between atoms: C_5  and  C_6
REMARK    5  A    between atoms: C_6  and  C_7
REMARK    6  A    between atoms: C_8  and  C_9
REMARK    7  A    between atoms: C_10  and  C_11
REMARK    8  A    between atoms: C_12  and  C_13
REMARK    9  A    between atoms: C_13  and  C_14
REMARK   10  A    between atoms: C_14  and  C_15
REMARK   11  A    between atoms: C_15  and  C_16
REMARK   12  A    between atoms: C_16  and  C_17
REMARK   13  A    between atoms: C_17  and  C_18
REMARK                            x       y       z     vdW  Elec       q    Type
REMARK                         _______ _______ _______ _____ _____    ______ ____
ROOT
ATOM      1  C   UNL     1       7.444   7.960  17.804  0.00  0.00    +0.000 C 
ATOM      2  C   UNL     1       6.703   7.026  17.602  0.00  0.00    +0.000 C 
ENDROOT
BRANCH   1   4
ATOM      3  C   UNL     1       9.199  10.180  18.285  0.00  0.00    +0.000 C 
ATOM      4  C   UNL     1       8.402   9.172  18.065  0.00  0.00    +0.000 C 
BRANCH   3   5
ATOM      5  C   UNL     1      10.129  11.355  18.541  0.00  0.00    +0.000 C 
BRANCH   5   6
ATOM      6  C   UNL     1      10.241  11.597  20.032  0.00  0.00    +0.000 C 
BRANCH   6   7
ATOM      7  C   UNL     1       9.155  12.557  20.486  0.00  0.00    +0.000 C 
BRANCH   7   8
ATOM      8  C   UNL     1       9.378  12.945  21.933  0.00  0.00    +0.000 C 
BRANCH   8  10
ATOM      9  N   UNL     1       7.848  11.310  23.582  0.00  0.00    +0.000 NA
ATOM     10  C   UNL     1       8.542  12.051  22.834  0.00  0.00    +0.000 C 
ENDBRANCH   8  10
ENDBRANCH   7   8
ENDBRANCH   6   7
ENDBRANCH   5   6
ENDBRANCH   3   5
ENDBRANCH   1   4
BRANCH   2  11
ATOM     11  C   UNL     1       5.741   5.817  17.337  0.00  0.00    +0.000 C 
ATOM     12  C   UNL     1       4.942   4.811  17.113  0.00  0.00    +0.000 C 
BRANCH  12  13
ATOM     13  C   UNL     1       4.010   3.639  16.852  0.00  0.00    +0.000 C 
BRANCH  13  14
ATOM     14  C   UNL     1       2.596   4.020  17.243  0.00  0.00    +0.000 C 
BRANCH  14  15
ATOM     15  C   UNL     1       2.621   4.890  18.486  0.00  0.00    +0.000 C 
BRANCH  15  16
ATOM     16  C   UNL     1       1.412   4.595  19.355  0.00  0.00    +0.000 C 
BRANCH  16  17
ATOM     17  C   UNL     1       1.268   3.099  19.546  0.00  0.00    +0.000 C 
BRANCH  17  18
ATOM     18  C   UNL     1       1.546   2.743  20.998  0.00  0.00    +0.000 C 
ATOM     19  N   UNL     1       1.775   2.447  22.201  0.00  0.00    +0.000 NA
ENDBRANCH  17  18
ENDBRANCH  16  17
ENDBRANCH  15  16
ENDBRANCH  14  15
ENDBRANCH  13  14
ENDBRANCH  12  13
ENDBRANCH   2  11
TORSDOF 13
ENDMDL
MODEL 3
REMARK VINA RESULT:      -5.6      7.087      9.793
REMARK  Name = 
REMARK  13 active torsions:
REMARK  status: ('A' for Active; 'I' for Inactive)
REMARK    1  A    between atoms: C_2  and  C_3
REMARK    2  A    between atoms: C_3  and  C_4
REMARK    3  A    between atoms: C_4  and  C_5
REMARK    4  A    between atoms: C_5  and  C_6
REMARK    5  A    between atoms: C_6  and  C_7
REMARK    6  A    between atoms: C_8  and  C_9
REMARK    7  A    between atoms: C_10  and  C_11
REMARK    8  A    between atoms: C_12  and  C_13
REMARK    9  A    between atoms: C_13  and  C_14
REMARK   10  A    between atoms: C_14  and  C_15
REMARK   11  A    between atoms: C_15  and  C_16
REMARK   12  A    between atoms: C_16  and  C_17
REMARK   13  A    between atoms: C_17  and  C_18
REMARK                            x       y       z     vdW  Elec       q    Type
REMARK                         _______ _______ _______ _____ _____    ______ ____
ROOT
ATOM      1  C   UNL     1       8.191   8.949  17.927  0.00  0.00    +0.000 C 
ATOM      2  C   UNL     1       7.501   7.997  17.643  0.00  0.00    +0.000 C 
ENDROOT
BRANCH   1   4
ATOM      3  C   UNL     1       9.825  11.211  18.600  0.00  0.00    +0.000 C 
ATOM      4  C   UNL     1       9.082  10.184  18.293  0.00  0.00    +0.000 C 
BRANCH   3   5
ATOM      5  C   UNL     1      10.691  12.408  18.958  0.00  0.00    +0.000 C 
BRANCH   5   6
ATOM      6  C   UNL     1      11.070  12.339  20.423  0.00  0.00    +0.000 C 
BRANCH   6   7
ATOM      7  C   UNL     1       9.819  12.326  21.284  0.00  0.00    +0.000 C 
BRANCH   7   8
ATOM      8  C   UNL     1       9.121  13.668  21.205  0.00  0.00    +0.000 C 
BRANCH   8  10
ATOM      9  N   UNL     1      10.771  15.638  22.270  0.00  0.00    +0.000 NA
ATOM     10  C   UNL     1      10.023  14.745  21.787  0.00  0.00    +0.000 C 
ENDBRANCH   8  10
ENDBRANCH   7   8
ENDBRANCH   6   7
ENDBRANCH   5   6
ENDBRANCH   3   5
ENDBRANCH   1   4
BRANCH   2  11
ATOM     11  C   UNL     1       6.608   6.764  17.270  0.00  0.00    +0.000 C 
ATOM     12  C   UNL     1       5.864   5.739  16.958  0.00  0.00    +0.000 C 
BRANCH  12  13
ATOM     13  C   UNL     1       4.996   4.546  16.594  0.00  0.00    +0.000 C 
BRANCH  13  14
ATOM     14  C   UNL     1       4.111   4.187  17.769  0.00  0.00    +0.000 C 
BRANCH  14  15
ATOM     15  C   UNL     1       2.879   5.074  17.778  0.00  0.00    +0.000 C 
BRANCH  15  16
ATOM     16  C   UNL     1       1.883   4.576  18.809  0.00  0.00    +0.000 C 
BRANCH  16  17
ATOM     17  C   UNL     1       2.277   5.070  20.186  0.00  0.00    +0.000 C 
BRANCH  17  18
ATOM     18  C   UNL     1       2.179   3.927  21.183  0.00  0.00    +0.000 C 
ATOM     19  N   UNL     1       2.098   2.978  22.009  0.00  0.00    +0.000 NA
ENDBRANCH  17  18
ENDBRANCH  16  17
ENDBRANCH  15  16
ENDBRANCH  14  15
ENDBRANCH  13  14
ENDBRANCH  12  13
ENDBRANCH   2  11
TORSDOF 13
ENDMDL
MODEL 4
REMARK VINA RESULT:      -5.5      6.813      9.328
REMARK  Name = 
REMARK  13 active torsions:
REMARK  status: ('A' for Active; 'I' for Inactive)
REMARK    1  A    between atoms: C_2  and  C_3
REMARK    2  A    between atoms: C_3  and  C_4
REMARK    3  A    between atoms: C_4  and  C_5
REMARK    4  A    between atoms: C_5  and  C_6
REMARK    5  A    between atoms: C_6  and  C_7
REMARK    6  A    between atoms: C_8  and  C_9
REMARK    7  A    between atoms: C_10  and  C_11
REMARK    8  A    between atoms: C_12  and  C_13
REMARK    9  A    between atoms: C_13  and  C_14
REMARK   10  A    between atoms: C_14  and  C_15
REMARK   11  A    between atoms: C_15  and  C_16
REMARK   12  A    between atoms: C_16  and  C_17
REMARK   13  A    between atoms: C_17  and  C_18
REMARK                            x       y       z     vdW  Elec       q    Type
REMARK                         _______ _______ _______ _____ _____    ______ ____
ROOT
ATOM      1  C   UNL     1       8.513   9.260  18.364  0.00  0.00    +0.000 C 
ATOM      2  C   UNL     1       7.815   8.458  17.788  0.00  0.00    +0.000 C 
ENDROOT
BRANCH   1   4
ATOM      3  C   UNL     1      10.167  11.164  19.735  0.00  0.00    +0.000 C 
ATOM      4  C   UNL     1       9.416  10.298  19.114  0.00  0.00    +0.000 C 
BRANCH   3   5
ATOM      5  C   UNL     1      11.043  12.173  20.460  0.00  0.00    +0.000 C 
BRANCH   5   6
ATOM      6  C   UNL     1      10.684  13.573  20.007  0.00  0.00    +0.000 C 
BRANCH   6   7
ATOM      7  C   UNL     1       9.175  13.716  19.907  0.00  0.00    +0.000 C 
BRANCH   7   8
ATOM      8  C   UNL     1       8.805  14.406  18.610  0.00  0.00    +0.000 C 
BRANCH   8  10
ATOM      9  N   UNL     1       7.455  12.622  16.958  0.00  0.00    +0.000 NA
ATOM     10  C   UNL     1       8.067  13.431  17.707  0.00  0.00    +0.000 C 
ENDBRANCH   8  10
ENDBRANCH   7   8
ENDBRANCH   6   7
ENDBRANCH   5   6
ENDBRANCH   3   5
ENDBRANCH   1   4
BRANCH   2  11
ATOM     11  C   UNL     1       6.906   7.421  17.043  0.00  0.00    +0.000 C 
ATOM     12  C   UNL     1       6.151   6.559  16.420  0.00  0.00    +0.000 C 
BRANCH  12  13
ATOM     13  C   UNL     1       5.270   5.555  15.694  0.00  0.00    +0.000 C 
BRANCH  13  14
ATOM     14  C   UNL     1       4.419   4.808  16.700  0.00  0.00    +0.000 C 
BRANCH  14  15
ATOM     15  C   UNL     1       3.756   5.793  17.647  0.00  0.00    +0.000 C 
BRANCH  15  16
ATOM     16  C   UNL     1       3.969   5.360  19.086  0.00  0.00    +0.000 C 
BRANCH  16  17
ATOM     17  C   UNL     1       5.059   4.309  19.150  0.00  0.00    +0.000 C 
BRANCH  17  18
ATOM     18  C   UNL     1       6.368   4.959  19.567  0.00  0.00    +0.000 C 
ATOM     19  N   UNL     1       7.454   5.499  19.912  0.00  0.00    +0.000 NA
ENDBRANCH  17  18
ENDBRANCH  16  17
ENDBRANCH  15  16
ENDBRANCH  14  15
ENDBRANCH  13  14
ENDBRANCH  12  13
ENDBRANCH   2  11
TORSDOF 13
ENDMDL
MODEL 5
REMARK VINA RESULT:      -5.5      4.920      8.176
REMARK  Name = 
REMARK  13 active torsions:
REMARK  status: ('A' for Active; 'I' for Inactive)
REMARK    1  A    between atoms: C_2  and  C_3
REMARK    2  A    between atoms: C_3  and  C_4
REMARK    3  A    between atoms: C_4  and  C_5
REMARK    4  A    between atoms: C_5  and  C_6
REMARK    5  A    between atoms: C_6  and  C_7
REMARK    6  A    between atoms: C_8  and  C_9
REMARK    7  A    between atoms: C_10  and  C_11
REMARK    8  A    between atoms: C_12  and  C_13
REMARK    9  A    between atoms: C_13  and  C_14
REMARK   10  A    between atoms: C_14  and  C_15
REMARK   11  A    between atoms: C_15  and  C_16
REMARK   12  A    between atoms: C_16  and  C_17
REMARK   13  A    between atoms: C_17  and  C_18
REMARK                            x       y       z     vdW  Elec       q    Type
REMARK                         _______ _______ _______ _____ _____    ______ ____
ROOT
ATOM      1  C   UNL     1       2.046   8.404  18.276  0.00  0.00    +0.000 C 
ATOM      2  C   UNL     1       2.566   7.337  18.050  0.00  0.00    +0.000 C 
ENDROOT
BRANCH   1   4
ATOM      3  C   UNL     1       0.810  10.941  18.808  0.00  0.00    +0.000 C 
ATOM      4  C   UNL     1       1.372   9.789  18.568  0.00  0.00    +0.000 C 
BRANCH   3   5
ATOM      5  C   UNL     1       0.156  12.284  19.087  0.00  0.00    +0.000 C 
BRANCH   5   6
ATOM      6  C   UNL     1      -1.054  12.454  18.192  0.00  0.00    +0.000 C 
BRANCH   6   7
ATOM      7  C   UNL     1      -2.225  11.661  18.745  0.00  0.00    +0.000 C 
BRANCH   7   8
ATOM      8  C   UNL     1      -2.363  10.351  17.996  0.00  0.00    +0.000 C 
BRANCH   8  10
ATOM      9  N   UNL     1      -2.913  10.862  15.318  0.00  0.00    +0.000 NA
ATOM     10  C   UNL     1      -2.663  10.630  16.533  0.00  0.00    +0.000 C 
ENDBRANCH   8  10
ENDBRANCH   7   8
ENDBRANCH   6   7
ENDBRANCH   5   6
ENDBRANCH   3   5
ENDBRANCH   1   4
BRANCH   2  11
ATOM     11  C   UNL     1       3.241   5.953  17.752  0.00  0.00    +0.000 C 
ATOM     12  C   UNL     1       3.805   4.804  17.503  0.00  0.00    +0.000 C 
BRANCH  12  13
ATOM     13  C   UNL     1       4.463   3.465  17.213  0.00  0.00    +0.000 C 
BRANCH  13  14
ATOM     14  C   UNL     1       3.784   2.381  18.025  0.00  0.00    +0.000 C 
BRANCH  14  15
ATOM     15  C   UNL     1       2.294   2.377  17.736  0.00  0.00    +0.000 C 
BRANCH  15  16
ATOM     16  C   UNL     1       1.518   2.026  18.992  0.00  0.00    +0.000 C 
BRANCH  16  17
ATOM     17  C   UNL     1       0.720   3.228  19.456  0.00  0.00    +0.000 C 
BRANCH  17  18
ATOM     18  C   UNL     1       1.555   4.050  20.424  0.00  0.00    +0.000 C 
ATOM     19  N   UNL     1       2.248   4.731  21.227  0.00  0.00    +0.000 NA
ENDBRANCH  17  18
ENDBRANCH  16  17
ENDBRANCH  15  16
ENDBRANCH  14  15
ENDBRANCH  13  14
ENDBRANCH  12  13
ENDBRANCH   2  11
TORSDOF 13
ENDMDL
MODEL 6
REMARK VINA RESULT:      -5.5      6.621      9.953
REMARK  Name = 
REMARK  13 active torsions:
REMARK  status: ('A' for Active; 'I' for Inactive)
REMARK    1  A    between atoms: C_2  and  C_3
REMARK    2  A    between atoms: C_3  and  C_4
REMARK    3  A    between atoms: C_4  and  C_5
REMARK    4  A    between atoms: C_5  and  C_6
REMARK    5  A    between atoms: C_6  and  C_7
REMARK    6  A    between atoms: C_8  and  C_9
REMARK    7  A    between atoms: C_10  and  C_11
REMARK    8  A    between atoms: C_12  and  C_13
REMARK    9  A    between atoms: C_13  and  C_14
REMARK   10  A    between atoms: C_14  and  C_15
REMARK   11  A    between atoms: C_15  and  C_16
REMARK   12  A    between atoms: C_16  and  C_17
REMARK   13  A    between atoms: C_17  and  C_18
REMARK                            x       y       z     vdW  Elec       q    Type
REMARK                         _______ _______ _______ _____ _____    ______ ____
ROOT
ATOM      1  C   UNL     1       7.504   7.517  17.494  0.00  0.00    +0.000 C 
ATOM      2  C   UNL     1       8.087   8.509  17.865  0.00  0.00    +0.000 C 
ENDROOT
BRANCH   1   4
ATOM      3  C   UNL     1       6.119   5.161  16.615  0.00  0.00    +0.000 C 
ATOM      4  C   UNL     1       6.747   6.231  17.015  0.00  0.00    +0.000 C 
BRANCH   3   5
ATOM      5  C   UNL     1       5.387   3.913  16.149  0.00  0.00    +0.000 C 
BRANCH   5   6
ATOM      6  C   UNL     1       3.999   3.884  16.754  0.00  0.00    +0.000 C 
BRANCH   6   7
ATOM      7  C   UNL     1       3.900   2.762  17.774  0.00  0.00    +0.000 C 
BRANCH   7   8
ATOM      8  C   UNL     1       3.825   3.339  19.173  0.00  0.00    +0.000 C 
BRANCH   8  10
ATOM      9  N   UNL     1       5.093   1.623  20.956  0.00  0.00    +0.000 NA
ATOM     10  C   UNL     1       4.518   2.401  20.148  0.00  0.00    +0.000 C 
ENDBRANCH   8  10
ENDBRANCH   7   8
ENDBRANCH   6   7
ENDBRANCH   5   6
ENDBRANCH   3   5
ENDBRANCH   1   4
BRANCH   2  11
ATOM     11  C   UNL     1       8.842   9.795  18.350  0.00  0.00    +0.000 C 
ATOM     12  C   UNL     1       9.469  10.864  18.756  0.00  0.00    +0.000 C 
BRANCH  12  13
ATOM     13  C   UNL     1      10.200  12.110  19.230  0.00  0.00    +0.000 C 
BRANCH  13  14
ATOM     14  C   UNL     1      10.580  11.950  20.687  0.00  0.00    +0.000 C 
BRANCH  14  15
ATOM     15  C   UNL     1       9.550  12.634  21.568  0.00  0.00    +0.000 C 
BRANCH  15  16
ATOM     16  C   UNL     1       8.628  11.604  22.192  0.00  0.00    +0.000 C 
BRANCH  16  17
ATOM     17  C   UNL     1       7.775  12.257  23.260  0.00  0.00    +0.000 C 
BRANCH  17  18
ATOM     18  C   UNL     1       6.998  13.415  22.653  0.00  0.00    +0.000 C 
ATOM     19  N   UNL     1       6.355  14.374  22.149  0.00  0.00    +0.000 NA
ENDBRANCH  17  18
ENDBRANCH  16  17
ENDBRANCH  15  16
ENDBRANCH  14  15
ENDBRANCH  13  14
ENDBRANCH  12  13
ENDBRANCH   2  11
TORSDOF 13
ENDMDL
MODEL 7
REMARK VINA RESULT:      -5.5      6.332      9.151
REMARK  Name = 
REMARK  13 active torsions:
REMARK  status: ('A' for Active; 'I' for Inactive)
REMARK    1  A    between atoms: C_2  and  C_3
REMARK    2  A    between atoms: C_3  and  C_4
REMARK    3  A    between atoms: C_4  and  C_5
REMARK    4  A    between atoms: C_5  and  C_6
REMARK    5  A    between atoms: C_6  and  C_7
REMARK    6  A    between atoms: C_8  and  C_9
REMARK    7  A    between atoms: C_10  and  C_11
REMARK    8  A    between atoms: C_12  and  C_13
REMARK    9  A    between atoms: C_13  and  C_14
REMARK   10  A    between atoms: C_14  and  C_15
REMARK   11  A    between atoms: C_15  and  C_16
REMARK   12  A    between atoms: C_16  and  C_17
REMARK   13  A    between atoms: C_17  and  C_18
REMARK                            x       y       z     vdW  Elec       q    Type
REMARK                         _______ _______ _______ _____ _____    ______ ____
ROOT
ATOM      1  C   UNL     1       7.648   8.181  17.766  0.00  0.00    +0.000 C 
ATOM      2  C   UNL     1       6.923   7.252  17.493  0.00  0.00    +0.000 C 
ENDROOT
BRANCH   1   4
ATOM      3  C   UNL     1       9.364  10.389  18.413  0.00  0.00    +0.000 C 
ATOM      4  C   UNL     1       8.585   9.386  18.118  0.00  0.00    +0.000 C 
BRANCH   3   5
ATOM      5  C   UNL     1      10.272  11.559  18.757  0.00  0.00    +0.000 C 
BRANCH   5   6
ATOM      6  C   UNL     1      10.419  11.662  20.261  0.00  0.00    +0.000 C 
BRANCH   6   7
ATOM      7  C   UNL     1       9.089  12.041  20.888  0.00  0.00    +0.000 C 
BRANCH   7   8
ATOM      8  C   UNL     1       9.314  12.620  22.270  0.00  0.00    +0.000 C 
BRANCH   8  10
ATOM      9  N   UNL     1       7.465  14.643  22.744  0.00  0.00    +0.000 NA
ATOM     10  C   UNL     1       8.303  13.726  22.529  0.00  0.00    +0.000 C 
ENDBRANCH   8  10
ENDBRANCH   7   8
ENDBRANCH   6   7
ENDBRANCH   5   6
ENDBRANCH   3   5
ENDBRANCH   1   4
BRANCH   2  11
ATOM     11  C   UNL     1       5.984   6.049  17.134  0.00  0.00    +0.000 C 
ATOM     12  C   UNL     1       5.204   5.046  16.839  0.00  0.00    +0.000 C 
BRANCH  12  13
ATOM     13  C   UNL     1       4.295   3.878  16.494  0.00  0.00    +0.000 C 
BRANCH  13  14
ATOM     14  C   UNL     1       3.163   3.804  17.499  0.00  0.00    +0.000 C 
BRANCH  14  15
ATOM     15  C   UNL     1       2.729   2.361  17.682  0.00  0.00    +0.000 C 
BRANCH  15  16
ATOM     16  C   UNL     1       3.408   1.761  18.900  0.00  0.00    +0.000 C 
BRANCH  16  17
ATOM     17  C   UNL     1       3.711   2.850  19.909  0.00  0.00    +0.000 C 
BRANCH  17  18
ATOM     18  C   UNL     1       2.703   2.786  21.044  0.00  0.00    +0.000 C 
ATOM     19  N   UNL     1       1.867   2.733  21.986  0.00  0.00    +0.000 NA
ENDBRANCH  17  18
ENDBRANCH  16  17
ENDBRANCH  15  16
ENDBRANCH  14  15
ENDBRANCH  13  14
ENDBRANCH  12  13
ENDBRANCH   2  11
TORSDOF 13
ENDMDL
MODEL 8
REMARK VINA RESULT:      -5.5      6.976      9.274
REMARK  Name = 
REMARK  13 active torsions:
REMARK  status: ('A' for Active; 'I' for Inactive)
REMARK    1  A    between atoms: C_2  and  C_3
REMARK    2  A    between atoms: C_3  and  C_4
REMARK    3  A    between atoms: C_4  and  C_5
REMARK    4  A    between atoms: C_5  and  C_6
REMARK    5  A    between atoms: C_6  and  C_7
REMARK    6  A    between atoms: C_8  and  C_9
REMARK    7  A    between atoms: C_10  and  C_11
REMARK    8  A    between atoms: C_12  and  C_13
REMARK    9  A    between atoms: C_13  and  C_14
REMARK   10  A    between atoms: C_14  and  C_15
REMARK   11  A    between atoms: C_15  and  C_16
REMARK   12  A    between atoms: C_16  and  C_17
REMARK   13  A    between atoms: C_17  and  C_18
REMARK                            x       y       z     vdW  Elec       q    Type
REMARK                         _______ _______ _______ _____ _____    ______ ____
ROOT
ATOM      1  C   UNL     1       7.616   8.173  17.729  0.00  0.00    +0.000 C 
ATOM      2  C   UNL     1       6.953   7.182  17.524  0.00  0.00    +0.000 C 
ENDROOT
BRANCH   1   4
ATOM      3  C   UNL     1       9.191  10.523  18.215  0.00  0.00    +0.000 C 
ATOM      4  C   UNL     1       8.477   9.455  17.993  0.00  0.00    +0.000 C 
BRANCH   3   5
ATOM      5  C   UNL     1      10.024  11.768  18.473  0.00  0.00    +0.000 C 
BRANCH   5   6
ATOM      6  C   UNL     1      10.687  11.662  19.831  0.00  0.00    +0.000 C 
BRANCH   6   7
ATOM      7  C   UNL     1      11.919  12.550  19.878  0.00  0.00    +0.000 C 
BRANCH   7   8
ATOM      8  C   UNL     1      11.508  14.007  19.892  0.00  0.00    +0.000 C 
BRANCH   8  10
ATOM      9  N   UNL     1       9.731  14.453  21.984  0.00  0.00    +0.000 NA
ATOM     10  C   UNL     1      10.537  14.251  21.035  0.00  0.00    +0.000 C 
ENDBRANCH   8  10
ENDBRANCH   7   8
ENDBRANCH   6   7
ENDBRANCH   5   6
ENDBRANCH   3   5
ENDBRANCH   1   4
BRANCH   2  11
ATOM     11  C   UNL     1       6.098   5.895  17.259  0.00  0.00    +0.000 C 
ATOM     12  C   UNL     1       5.388   4.823  17.040  0.00  0.00    +0.000 C 
BRANCH  12  13
ATOM     13  C   UNL     1       4.561   3.574  16.785  0.00  0.00    +0.000 C 
BRANCH  13  14
ATOM     14  C   UNL     1       3.449   3.485  17.810  0.00  0.00    +0.000 C 
BRANCH  14  15
ATOM     15  C   UNL     1       2.473   4.632  17.614  0.00  0.00    +0.000 C 
BRANCH  15  16
ATOM     16  C   UNL     1       2.099   5.236  18.955  0.00  0.00    +0.000 C 
BRANCH  16  17
ATOM     17  C   UNL     1       2.987   6.429  19.248  0.00  0.00    +0.000 C 
BRANCH  17  18
ATOM     18  C   UNL     1       2.642   7.564  18.297  0.00  0.00    +0.000 C 
ATOM     19  N   UNL     1       2.356   8.505  17.509  0.00  0.00    +0.000 NA
ENDBRANCH  17  18
ENDBRANCH  16  17
ENDBRANCH  15  16
ENDBRANCH  14  15
ENDBRANCH  13  14
ENDBRANCH  12  13
ENDBRANCH   2  11
TORSDOF 13
ENDMDL
MODEL 9
REMARK VINA RESULT:      -5.5      6.870      9.851
REMARK  Name = 
REMARK  13 active torsions:
REMARK  status: ('A' for Active; 'I' for Inactive)
REMARK    1  A    between atoms: C_2  and  C_3
REMARK    2  A    between atoms: C_3  and  C_4
REMARK    3  A    between atoms: C_4  and  C_5
REMARK    4  A    between atoms: C_5  and  C_6
REMARK    5  A    between atoms: C_6  and  C_7
REMARK    6  A    between atoms: C_8  and  C_9
REMARK    7  A    between atoms: C_10  and  C_11
REMARK    8  A    between atoms: C_12  and  C_13
REMARK    9  A    between atoms: C_13  and  C_14
REMARK   10  A    between atoms: C_14  and  C_15
REMARK   11  A    between atoms: C_15  and  C_16
REMARK   12  A    between atoms: C_16  and  C_17
REMARK   13  A    between atoms: C_17  and  C_18
REMARK                            x       y       z     vdW  Elec       q    Type
REMARK                         _______ _______ _______ _____ _____    ______ ____
ROOT
ATOM      1  C   UNL     1       7.435   7.784  17.924  0.00  0.00    +0.000 C 
ATOM      2  C   UNL     1       6.741   6.795  17.881  0.00  0.00    +0.000 C 
ENDROOT
BRANCH   1   4
ATOM      3  C   UNL     1       9.087  10.130  18.028  0.00  0.00    +0.000 C 
ATOM      4  C   UNL     1       8.336   9.065  17.980  0.00  0.00    +0.000 C 
BRANCH   3   5
ATOM      5  C   UNL     1       9.962  11.371  18.085  0.00  0.00    +0.000 C 
BRANCH   5   6
ATOM      6  C   UNL     1       9.091  12.598  18.259  0.00  0.00    +0.000 C 
BRANCH   6   7
ATOM      7  C   UNL     1       9.629  13.463  19.386  0.00  0.00    +0.000 C 
BRANCH   7   8
ATOM      8  C   UNL     1      10.685  14.409  18.854  0.00  0.00    +0.000 C 
BRANCH   8  10
ATOM      9  N   UNL     1       9.458  16.630  17.717  0.00  0.00    +0.000 NA
ATOM     10  C   UNL     1      10.015  15.623  18.232  0.00  0.00    +0.000 C 
ENDBRANCH   8  10
ENDBRANCH   7   8
ENDBRANCH   6   7
ENDBRANCH   5   6
ENDBRANCH   3   5
ENDBRANCH   1   4
BRANCH   2  11
ATOM     11  C   UNL     1       5.844   5.510  17.829  0.00  0.00    +0.000 C 
ATOM     12  C   UNL     1       5.096   4.443  17.784  0.00  0.00    +0.000 C 
BRANCH  12  13
ATOM     13  C   UNL     1       4.225   3.199  17.730  0.00  0.00    +0.000 C 
BRANCH  13  14
ATOM     14  C   UNL     1       2.950   3.505  16.971  0.00  0.00    +0.000 C 
BRANCH  14  15
ATOM     15  C   UNL     1       2.030   4.355  17.828  0.00  0.00    +0.000 C 
BRANCH  15  16
ATOM     16  C   UNL     1       1.272   3.479  18.809  0.00  0.00    +0.000 C 
BRANCH  16  17
ATOM     17  C   UNL     1       1.184   4.170  20.154  0.00  0.00    +0.000 C 
BRANCH  17  18
ATOM     18  C   UNL     1       1.882   3.324  21.207  0.00  0.00    +0.000 C 
ATOM     19  N   UNL     1       2.461   2.622  22.079  0.00  0.00    +0.000 NA
ENDBRANCH  17  18
ENDBRANCH  16  17
ENDBRANCH  15  16
ENDBRANCH  14  15
ENDBRANCH  13  14
ENDBRANCH  12  13
ENDBRANCH   2  11
TORSDOF 13
ENDMDL
