MODEL 1
REMARK VINA RESULT:      -7.8      0.000      0.000
REMARK  Name = 
REMARK  8 active torsions:
REMARK  status: ('A' for Active; 'I' for Inactive)
REMARK    1  A    between atoms: C_2  and  C_12
REMARK    2  A    between atoms: N_3  and  C_4
REMARK    3  A    between atoms: C_4  and  C_5
REMARK    4  A    between atoms: C_5  and  N_6
REMARK    5  A    between atoms: N_14  and  C_15
REMARK    6  A    between atoms: C_15  and  C_16
REMARK    7  A    between atoms: N_20  and  S_21
REMARK    8  A    between atoms: S_21  and  C_24
REMARK                            x       y       z     vdW  Elec       q    Type
REMARK                         _______ _______ _______ _____ _____    ______ ____
ROOT
ATOM      1  C   UNL     1       5.878   6.008  16.779  0.00  0.00    +0.000 C 
ATOM      2  O   UNL     1       5.458   6.551  15.766  0.00  0.00    +0.000 OA
ATOM      3  N   UNL     1       5.521   4.764  17.247  0.00  0.00    +0.000 N 
ATOM      4  H   UNL     1       5.857   4.525  18.181  0.00  0.00    +0.000 HD
ENDROOT
BRANCH   1   6
ATOM      5  O   UNL     1       7.434   6.090  18.589  0.00  0.00    +0.000 OA
ATOM      6  C   UNL     1       6.907   6.724  17.682  0.00  0.00    +0.000 C 
ATOM      7  N   UNL     1       7.161   8.053  17.372  0.00  0.00    +0.000 N 
ATOM      8  H   UNL     1       6.790   8.375  16.481  0.00  0.00    +0.000 HD
BRANCH   7   9
ATOM      9  C   UNL     1       8.327   8.687  17.954  0.00  0.00    +0.000 C 
BRANCH   9  10
ATOM     10  C   UNL     1       8.354  10.233  17.914  0.00  0.00    +0.000 C 
BRANCH  10  11
ATOM     11  N   UNL     1       9.587  10.739  18.534  0.00  0.00    +0.000 NA
ATOM     12  C   UNL     1       9.564  10.830  20.009  0.00  0.00    +0.000 C 
ATOM     13  C   UNL     1       9.193  12.196  20.612  0.00  0.00    +0.000 C 
ATOM     14  O   UNL     1       9.916  13.265  20.001  0.00  0.00    +0.000 OA
ATOM     15  C   UNL     1       9.654  13.279  18.595  0.00  0.00    +0.000 C 
ATOM     16  C   UNL     1      10.126  11.974  17.938  0.00  0.00    +0.000 C 
ENDBRANCH  10  11
ENDBRANCH   9  10
ENDBRANCH   7   9
ENDBRANCH   1   6
BRANCH   3  17
ATOM     17  C   UNL     1       4.477   3.956  16.635  0.00  0.00    +0.000 C 
BRANCH  17  18
ATOM     18  C   UNL     1       3.391   3.496  17.641  0.00  0.00    +0.000 C 
ATOM     19  O   UNL     1       3.455   2.059  17.711  0.00  0.00    +0.000 OA
ATOM     20  C   UNL     1       3.880   1.688  19.025  0.00  0.00    +0.000 C 
ATOM     21  C   UNL     1       4.432   2.944  19.660  0.00  0.00    +0.000 C 
ATOM     22  N   UNL     1       3.675   4.026  19.004  0.00  0.00    +0.000 NA
BRANCH  22  23
ATOM     23  S   UNL     1       2.266   4.554  19.803  0.00  0.00    +0.000 S 
ATOM     24  O   UNL     1       1.133   3.950  19.137  0.00  0.00    +0.000 OA
ATOM     25  O   UNL     1       2.481   4.397  21.228  0.00  0.00    +0.000 OA
BRANCH  23  26
ATOM     26  C   UNL     1       2.191   6.301  19.451  0.00  0.00    +0.000 A 
ATOM     27  C   UNL     1       2.510   6.751  18.164  0.00  0.00    +0.000 A 
ATOM     28  C   UNL     1       2.367   8.107  17.854  0.00  0.00    +0.000 A 
ATOM     29  C   UNL     1       1.904   8.991  18.824  0.00  0.00    +0.000 A 
ATOM     30  F   UNL     1       1.750  10.287  18.519  0.00  0.00    +0.000 F 
ATOM     31  C   UNL     1       1.582   8.547  20.105  0.00  0.00    +0.000 A 
ATOM     32  C   UNL     1       1.723   7.194  20.424  0.00  0.00    +0.000 A 
ENDBRANCH  23  26
ENDBRANCH  22  23
ENDBRANCH  17  18
ENDBRANCH   3  17
TORSDOF 8
ENDMDL
MODEL 2
REMARK VINA RESULT:      -7.5      1.502      1.892
REMARK  Name = 
REMARK  8 active torsions:
REMARK  status: ('A' for Active; 'I' for Inactive)
REMARK    1  A    between atoms: C_2  and  C_12
REMARK    2  A    between atoms: N_3  and  C_4
REMARK    3  A    between atoms: C_4  and  C_5
REMARK    4  A    between atoms: C_5  and  N_6
REMARK    5  A    between atoms: N_14  and  C_15
REMARK    6  A    between atoms: C_15  and  C_16
REMARK    7  A    between atoms: N_20  and  S_21
REMARK    8  A    between atoms: S_21  and  C_24
REMARK                            x       y       z     vdW  Elec       q    Type
REMARK                         _______ _______ _______ _____ _____    ______ ____
ROOT
ATOM      1  C   UNL     1       7.154   6.939  17.065  0.00  0.00    +0.000 C 
ATOM      2  O   UNL     1       7.712   6.363  16.141  0.00  0.00    +0.000 OA
ATOM      3  N   UNL     1       5.811   6.900  17.362  0.00  0.00    +0.000 N 
ATOM      4  H   UNL     1       5.492   7.553  18.078  0.00  0.00    +0.000 HD
ENDROOT
BRANCH   1   6
ATOM      5  O   UNL     1       8.546   7.289  18.974  0.00  0.00    +0.000 OA
ATOM      6  C   UNL     1       7.964   7.825  18.038  0.00  0.00    +0.000 C 
ATOM      7  N   UNL     1       7.974   9.184  17.752  0.00  0.00    +0.000 N 
ATOM      8  H   UNL     1       7.604   9.444  16.840  0.00  0.00    +0.000 HD
BRANCH   7   9
ATOM      9  C   UNL     1       8.954  10.022  18.413  0.00  0.00    +0.000 C 
BRANCH   9  10
ATOM     10  C   UNL     1       8.949  11.517  18.020  0.00  0.00    +0.000 C 
BRANCH  10  11
ATOM     11  N   UNL     1      10.322  11.993  17.797  0.00  0.00    +0.000 NA
ATOM     12  C   UNL     1      11.317  11.544  18.793  0.00  0.00    +0.000 C 
ATOM     13  C   UNL     1      11.616  12.507  19.955  0.00  0.00    +0.000 C 
ATOM     14  O   UNL     1      11.848  13.840  19.499  0.00  0.00    +0.000 OA
ATOM     15  C   UNL     1      10.705  14.307  18.777  0.00  0.00    +0.000 C 
ATOM     16  C   UNL     1      10.450  13.437  17.538  0.00  0.00    +0.000 C 
ENDBRANCH  10  11
ENDBRANCH   9  10
ENDBRANCH   7   9
ENDBRANCH   1   6
BRANCH   3  17
ATOM     17  C   UNL     1       4.831   6.234  16.516  0.00  0.00    +0.000 C 
BRANCH  17  18
ATOM     18  C   UNL     1       3.903   5.270  17.298  0.00  0.00    +0.000 C 
ATOM     19  O   UNL     1       4.390   3.933  17.074  0.00  0.00    +0.000 OA
ATOM     20  C   UNL     1       4.869   3.411  18.316  0.00  0.00    +0.000 C 
ATOM     21  C   UNL     1       5.003   4.595  19.247  0.00  0.00    +0.000 C 
ATOM     22  N   UNL     1       3.978   5.536  18.761  0.00  0.00    +0.000 NA
BRANCH  22  23
ATOM     23  S   UNL     1       2.453   5.448  19.517  0.00  0.00    +0.000 S 
ATOM     24  O   UNL     1       1.565   4.732  18.629  0.00  0.00    +0.000 OA
ATOM     25  O   UNL     1       2.663   5.022  20.886  0.00  0.00    +0.000 OA
BRANCH  23  26
ATOM     26  C   UNL     1       1.883   7.138  19.553  0.00  0.00    +0.000 A 
ATOM     27  C   UNL     1       1.383   7.663  20.751  0.00  0.00    +0.000 A 
ATOM     28  C   UNL     1       1.018   9.011  20.812  0.00  0.00    +0.000 A 
ATOM     29  C   UNL     1       1.163   9.817  19.686  0.00  0.00    +0.000 A 
ATOM     30  F   UNL     1       0.830  11.114  19.753  0.00  0.00    +0.000 F 
ATOM     31  C   UNL     1       1.664   9.300  18.493  0.00  0.00    +0.000 A 
ATOM     32  C   UNL     1       2.030   7.953  18.423  0.00  0.00    +0.000 A 
ENDBRANCH  23  26
ENDBRANCH  22  23
ENDBRANCH  17  18
ENDBRANCH   3  17
TORSDOF 8
ENDMDL
MODEL 3
REMARK VINA RESULT:      -7.5      1.474      1.768
REMARK  Name = 
REMARK  8 active torsions:
REMARK  status: ('A' for Active; 'I' for Inactive)
REMARK    1  A    between atoms: C_2  and  C_12
REMARK    2  A    between atoms: N_3  and  C_4
REMARK    3  A    between atoms: C_4  and  C_5
REMARK    4  A    between atoms: C_5  and  N_6
REMARK    5  A    between atoms: N_14  and  C_15
REMARK    6  A    between atoms: C_15  and  C_16
REMARK    7  A    between atoms: N_20  and  S_21
REMARK    8  A    between atoms: S_21  and  C_24
REMARK                            x       y       z     vdW  Elec       q    Type
REMARK                         _______ _______ _______ _____ _____    ______ ____
ROOT
ATOM      1  C   UNL     1       7.191   6.943  17.067  0.00  0.00    +0.000 C 
ATOM      2  O   UNL     1       7.756   6.453  16.099  0.00  0.00    +0.000 OA
ATOM      3  N   UNL     1       5.859   6.816  17.388  0.00  0.00    +0.000 N 
ATOM      4  H   UNL     1       5.524   7.408  18.149  0.00  0.00    +0.000 HD
ENDROOT
BRANCH   1   6
ATOM      5  O   UNL     1       8.593   7.256  18.976  0.00  0.00    +0.000 OA
ATOM      6  C   UNL     1       7.977   7.813  18.074  0.00  0.00    +0.000 C 
ATOM      7  N   UNL     1       7.928   9.183  17.856  0.00  0.00    +0.000 N 
ATOM      8  H   UNL     1       7.536   9.472  16.963  0.00  0.00    +0.000 HD
BRANCH   7   9
ATOM      9  C   UNL     1       8.882  10.027  18.548  0.00  0.00    +0.000 C 
BRANCH   9  10
ATOM     10  C   UNL     1       9.077  11.449  17.971  0.00  0.00    +0.000 C 
BRANCH  10  11
ATOM     11  N   UNL     1      10.294  12.062  18.522  0.00  0.00    +0.000 NA
ATOM     12  C   UNL     1      10.071  13.158  19.488  0.00  0.00    +0.000 C 
ATOM     13  C   UNL     1      10.103  14.590  18.929  0.00  0.00    +0.000 C 
ATOM     14  O   UNL     1      11.236  14.812  18.089  0.00  0.00    +0.000 OA
ATOM     15  C   UNL     1      11.222  13.879  17.006  0.00  0.00    +0.000 C 
ATOM     16  C   UNL     1      11.312  12.437  17.526  0.00  0.00    +0.000 C 
ENDBRANCH  10  11
ENDBRANCH   9  10
ENDBRANCH   7   9
ENDBRANCH   1   6
BRANCH   3  17
ATOM     17  C   UNL     1       4.896   6.149  16.525  0.00  0.00    +0.000 C 
BRANCH  17  18
ATOM     18  C   UNL     1       3.904   5.244  17.300  0.00  0.00    +0.000 C 
ATOM     19  O   UNL     1       4.320   3.881  17.093  0.00  0.00    +0.000 OA
ATOM     20  C   UNL     1       4.750   3.343  18.346  0.00  0.00    +0.000 C 
ATOM     21  C   UNL     1       4.935   4.526  19.270  0.00  0.00    +0.000 C 
ATOM     22  N   UNL     1       3.971   5.518  18.762  0.00  0.00    +0.000 NA
BRANCH  22  23
ATOM     23  S   UNL     1       2.433   5.520  19.494  0.00  0.00    +0.000 S 
ATOM     24  O   UNL     1       1.512   4.884  18.579  0.00  0.00    +0.000 OA
ATOM     25  O   UNL     1       2.592   5.053  20.857  0.00  0.00    +0.000 OA
BRANCH  23  26
ATOM     26  C   UNL     1       1.980   7.244  19.558  0.00  0.00    +0.000 A 
ATOM     27  C   UNL     1       2.055   8.012  18.389  0.00  0.00    +0.000 A 
ATOM     28  C   UNL     1       1.616   9.339  18.408  0.00  0.00    +0.000 A 
ATOM     29  C   UNL     1       1.104   9.879  19.584  0.00  0.00    +0.000 A 
ATOM     30  F   UNL     1       0.667  11.147  19.594  0.00  0.00    +0.000 F 
ATOM     31  C   UNL     1       1.024   9.119  20.748  0.00  0.00    +0.000 A 
ATOM     32  C   UNL     1       1.461   7.791  20.738  0.00  0.00    +0.000 A 
ENDBRANCH  23  26
ENDBRANCH  22  23
ENDBRANCH  17  18
ENDBRANCH   3  17
TORSDOF 8
ENDMDL
MODEL 4
REMARK VINA RESULT:      -7.5      2.989      4.983
REMARK  Name = 
REMARK  8 active torsions:
REMARK  status: ('A' for Active; 'I' for Inactive)
REMARK    1  A    between atoms: C_2  and  C_12
REMARK    2  A    between atoms: N_3  and  C_4
REMARK    3  A    between atoms: C_4  and  C_5
REMARK    4  A    between atoms: C_5  and  N_6
REMARK    5  A    between atoms: N_14  and  C_15
REMARK    6  A    between atoms: C_15  and  C_16
REMARK    7  A    between atoms: N_20  and  S_21
REMARK    8  A    between atoms: S_21  and  C_24
REMARK                            x       y       z     vdW  Elec       q    Type
REMARK                         _______ _______ _______ _____ _____    ______ ____
ROOT
ATOM      1  C   UNL     1       8.831   9.946  18.511  0.00  0.00    +0.000 C 
ATOM      2  O   UNL     1       9.258   9.754  19.641  0.00  0.00    +0.000 OA
ATOM      3  N   UNL     1       8.111   9.057  17.747  0.00  0.00    +0.000 N 
ATOM      4  H   UNL     1       7.959   9.325  16.774  0.00  0.00    +0.000 HD
ENDROOT
BRANCH   1   6
ATOM      5  O   UNL     1       8.126  11.969  17.455  0.00  0.00    +0.000 OA
ATOM      6  C   UNL     1       9.089  11.291  17.796  0.00  0.00    +0.000 C 
ATOM      7  N   UNL     1      10.422  11.631  17.609  0.00  0.00    +0.000 N 
ATOM      8  H   UNL     1      11.096  11.059  18.114  0.00  0.00    +0.000 HD
BRANCH   7   9
ATOM      9  C   UNL     1      10.743  12.997  17.246  0.00  0.00    +0.000 C 
BRANCH   9  10
ATOM     10  C   UNL     1      10.803  14.015  18.409  0.00  0.00    +0.000 C 
BRANCH  10  11
ATOM     11  N   UNL     1      11.759  15.088  18.100  0.00  0.00    +0.000 NA
ATOM     12  C   UNL     1      12.217  15.882  19.259  0.00  0.00    +0.000 C 
ATOM     13  C   UNL     1      11.468  17.196  19.537  0.00  0.00    +0.000 C 
ATOM     14  O   UNL     1      11.307  17.981  18.355  0.00  0.00    +0.000 OA
ATOM     15  C   UNL     1      10.595  17.226  17.370  0.00  0.00    +0.000 C 
ATOM     16  C   UNL     1      11.377  15.964  16.979  0.00  0.00    +0.000 C 
ENDBRANCH  10  11
ENDBRANCH   9  10
ENDBRANCH   7   9
ENDBRANCH   1   6
BRANCH   3  17
ATOM     17  C   UNL     1       7.854   7.685  18.158  0.00  0.00    +0.000 C 
BRANCH  17  18
ATOM     18  C   UNL     1       6.833   6.955  17.247  0.00  0.00    +0.000 C 
ATOM     19  O   UNL     1       7.585   6.267  16.230  0.00  0.00    +0.000 OA
ATOM     20  C   UNL     1       7.416   4.859  16.416  0.00  0.00    +0.000 C 
ATOM     21  C   UNL     1       6.833   4.684  17.800  0.00  0.00    +0.000 C 
ATOM     22  N   UNL     1       6.076   5.931  18.018  0.00  0.00    +0.000 NA
BRANCH  22  23
ATOM     23  S   UNL     1       4.424   5.893  17.603  0.00  0.00    +0.000 S 
ATOM     24  O   UNL     1       3.944   7.257  17.600  0.00  0.00    +0.000 OA
ATOM     25  O   UNL     1       4.279   5.035  16.444  0.00  0.00    +0.000 OA
BRANCH  23  26
ATOM     26  C   UNL     1       3.643   5.081  18.985  0.00  0.00    +0.000 A 
ATOM     27  C   UNL     1       2.762   5.809  19.795  0.00  0.00    +0.000 A 
ATOM     28  C   UNL     1       2.077   5.158  20.824  0.00  0.00    +0.000 A 
ATOM     29  C   UNL     1       2.270   3.795  21.028  0.00  0.00    +0.000 A 
ATOM     30  F   UNL     1       1.597   3.170  22.005  0.00  0.00    +0.000 F 
ATOM     31  C   UNL     1       3.142   3.066  20.223  0.00  0.00    +0.000 A 
ATOM     32  C   UNL     1       3.833   3.708  19.192  0.00  0.00    +0.000 A 
ENDBRANCH  23  26
ENDBRANCH  22  23
ENDBRANCH  17  18
ENDBRANCH   3  17
TORSDOF 8
ENDMDL
MODEL 5
REMARK VINA RESULT:      -7.4      1.269      1.830
REMARK  Name = 
REMARK  8 active torsions:
REMARK  status: ('A' for Active; 'I' for Inactive)
REMARK    1  A    between atoms: C_2  and  C_12
REMARK    2  A    between atoms: N_3  and  C_4
REMARK    3  A    between atoms: C_4  and  C_5
REMARK    4  A    between atoms: C_5  and  N_6
REMARK    5  A    between atoms: N_14  and  C_15
REMARK    6  A    between atoms: C_15  and  C_16
REMARK    7  A    between atoms: N_20  and  S_21
REMARK    8  A    between atoms: S_21  and  C_24
REMARK                            x       y       z     vdW  Elec       q    Type
REMARK                         _______ _______ _______ _____ _____    ______ ____
ROOT
ATOM      1  C   UNL     1       7.335   5.954  18.657  0.00  0.00    +0.000 C 
ATOM      2  O   UNL     1       8.146   5.415  19.397  0.00  0.00    +0.000 OA
ATOM      3  N   UNL     1       6.051   5.527  18.402  0.00  0.00    +0.000 N 
ATOM      4  H   UNL     1       5.561   6.012  17.650  0.00  0.00    +0.000 HD
ENDROOT
BRANCH   1   6
ATOM      5  O   UNL     1       7.418   7.321  16.700  0.00  0.00    +0.000 OA
ATOM      6  C   UNL     1       7.710   7.241  17.889  0.00  0.00    +0.000 C 
ATOM      7  N   UNL     1       8.349   8.224  18.631  0.00  0.00    +0.000 N 
ATOM      8  H   UNL     1       8.348   8.083  19.639  0.00  0.00    +0.000 HD
BRANCH   7   9
ATOM      9  C   UNL     1       8.441   9.559  18.076  0.00  0.00    +0.000 C 
BRANCH   9  10
ATOM     10  C   UNL     1       9.553  10.464  18.656  0.00  0.00    +0.000 C 
BRANCH  10  11
ATOM     11  N   UNL     1       9.044  11.826  18.870  0.00  0.00    +0.000 NA
ATOM     12  C   UNL     1       9.361  12.797  17.802  0.00  0.00    +0.000 C 
ATOM     13  C   UNL     1      10.605  13.675  18.012  0.00  0.00    +0.000 C 
ATOM     14  O   UNL     1      10.637  14.256  19.316  0.00  0.00    +0.000 OA
ATOM     15  C   UNL     1      10.614  13.221  20.303  0.00  0.00    +0.000 C 
ATOM     16  C   UNL     1       9.322  12.397  20.199  0.00  0.00    +0.000 C 
ENDBRANCH  10  11
ENDBRANCH   9  10
ENDBRANCH   7   9
ENDBRANCH   1   6
BRANCH   3  17
ATOM     17  C   UNL     1       5.517   4.273  18.912  0.00  0.00    +0.000 C 
BRANCH  17  18
ATOM     18  C   UNL     1       4.157   3.885  18.277  0.00  0.00    +0.000 C 
ATOM     19  O   UNL     1       4.370   2.680  17.517  0.00  0.00    +0.000 OA
ATOM     20  C   UNL     1       3.629   1.622  18.129  0.00  0.00    +0.000 C 
ATOM     21  C   UNL     1       3.240   2.119  19.503  0.00  0.00    +0.000 C 
ATOM     22  N   UNL     1       3.150   3.580  19.330  0.00  0.00    +0.000 NA
BRANCH  22  23
ATOM     23  S   UNL     1       1.609   4.203  18.957  0.00  0.00    +0.000 S 
ATOM     24  O   UNL     1       1.393   4.014  17.539  0.00  0.00    +0.000 OA
ATOM     25  O   UNL     1       0.675   3.692  19.941  0.00  0.00    +0.000 OA
BRANCH  23  26
ATOM     26  C   UNL     1       1.770   5.960  19.218  0.00  0.00    +0.000 A 
ATOM     27  C   UNL     1       2.041   6.789  18.122  0.00  0.00    +0.000 A 
ATOM     28  C   UNL     1       2.080   8.175  18.302  0.00  0.00    +0.000 A 
ATOM     29  C   UNL     1       1.842   8.715  19.562  0.00  0.00    +0.000 A 
ATOM     30  F   UNL     1       1.861  10.045  19.727  0.00  0.00    +0.000 F 
ATOM     31  C   UNL     1       1.568   7.894  20.654  0.00  0.00    +0.000 A 
ATOM     32  C   UNL     1       1.528   6.507  20.484  0.00  0.00    +0.000 A 
ENDBRANCH  23  26
ENDBRANCH  22  23
ENDBRANCH  17  18
ENDBRANCH   3  17
TORSDOF 8
ENDMDL
MODEL 6
REMARK VINA RESULT:      -7.3      4.941      7.989
REMARK  Name = 
REMARK  8 active torsions:
REMARK  status: ('A' for Active; 'I' for Inactive)
REMARK    1  A    between atoms: C_2  and  C_12
REMARK    2  A    between atoms: N_3  and  C_4
REMARK    3  A    between atoms: C_4  and  C_5
REMARK    4  A    between atoms: C_5  and  N_6
REMARK    5  A    between atoms: N_14  and  C_15
REMARK    6  A    between atoms: C_15  and  C_16
REMARK    7  A    between atoms: N_20  and  S_21
REMARK    8  A    between atoms: S_21  and  C_24
REMARK                            x       y       z     vdW  Elec       q    Type
REMARK                         _______ _______ _______ _____ _____    ______ ____
ROOT
ATOM      1  C   UNL     1       1.851   9.926  18.133  0.00  0.00    +0.000 C 
ATOM      2  O   UNL     1       2.690  10.308  17.329  0.00  0.00    +0.000 OA
ATOM      3  N   UNL     1       1.624   8.627  18.524  0.00  0.00    +0.000 N 
ATOM      4  H   UNL     1       0.791   8.470  19.093  0.00  0.00    +0.000 HD
ENDROOT
BRANCH   1   6
ATOM      5  O   UNL     1       1.298  11.526  19.819  0.00  0.00    +0.000 OA
ATOM      6  C   UNL     1       0.905  10.939  18.816  0.00  0.00    +0.000 C 
ATOM      7  N   UNL     1      -0.334  11.112  18.214  0.00  0.00    +0.000 N 
ATOM      8  H   UNL     1      -0.433  10.699  17.289  0.00  0.00    +0.000 HD
BRANCH   7   9
ATOM      9  C   UNL     1      -1.135  12.257  18.597  0.00  0.00    +0.000 C 
BRANCH   9  10
ATOM     10  C   UNL     1      -2.239  11.995  19.648  0.00  0.00    +0.000 C 
BRANCH  10  11
ATOM     11  N   UNL     1      -2.055  12.873  20.812  0.00  0.00    +0.000 NA
ATOM     12  C   UNL     1      -1.212  12.323  21.895  0.00  0.00    +0.000 C 
ATOM     13  C   UNL     1      -1.943  11.629  23.056  0.00  0.00    +0.000 C 
ATOM     14  O   UNL     1      -3.035  12.409  23.544  0.00  0.00    +0.000 OA
ATOM     15  C   UNL     1      -3.959  12.660  22.483  0.00  0.00    +0.000 C 
ATOM     16  C   UNL     1      -3.292  13.460  21.355  0.00  0.00    +0.000 C 
ENDBRANCH  10  11
ENDBRANCH   9  10
ENDBRANCH   7   9
ENDBRANCH   1   6
BRANCH   3  17
ATOM     17  C   UNL     1       2.305   7.489  17.925  0.00  0.00    +0.000 C 
BRANCH  17  18
ATOM     18  C   UNL     1       3.036   6.598  18.962  0.00  0.00    +0.000 C 
ATOM     19  O   UNL     1       2.248   6.614  20.168  0.00  0.00    +0.000 OA
ATOM     20  C   UNL     1       1.737   5.297  20.392  0.00  0.00    +0.000 C 
ATOM     21  C   UNL     1       1.927   4.545  19.094  0.00  0.00    +0.000 C 
ATOM     22  N   UNL     1       3.108   5.188  18.490  0.00  0.00    +0.000 NA
BRANCH  22  23
ATOM     23  S   UNL     1       4.615   4.466  18.825  0.00  0.00    +0.000 S 
ATOM     24  O   UNL     1       5.336   5.351  19.712  0.00  0.00    +0.000 OA
ATOM     25  O   UNL     1       4.373   3.079  19.169  0.00  0.00    +0.000 OA
BRANCH  23  26
ATOM     26  C   UNL     1       5.474   4.500  17.263  0.00  0.00    +0.000 A 
ATOM     27  C   UNL     1       4.740   4.364  16.078  0.00  0.00    +0.000 A 
ATOM     28  C   UNL     1       5.393   4.479  14.847  0.00  0.00    +0.000 A 
ATOM     29  C   UNL     1       6.760   4.734  14.813  0.00  0.00    +0.000 A 
ATOM     30  F   UNL     1       7.380   4.864  13.631  0.00  0.00    +0.000 F 
ATOM     31  C   UNL     1       7.494   4.874  15.989  0.00  0.00    +0.000 A 
ATOM     32  C   UNL     1       6.850   4.759  17.223  0.00  0.00    +0.000 A 
ENDBRANCH  23  26
ENDBRANCH  22  23
ENDBRANCH  17  18
ENDBRANCH   3  17
TORSDOF 8
ENDMDL
MODEL 7
REMARK VINA RESULT:      -7.3      1.328      2.013
REMARK  Name = 
REMARK  8 active torsions:
REMARK  status: ('A' for Active; 'I' for Inactive)
REMARK    1  A    between atoms: C_2  and  C_12
REMARK    2  A    between atoms: N_3  and  C_4
REMARK    3  A    between atoms: C_4  and  C_5
REMARK    4  A    between atoms: C_5  and  N_6
REMARK    5  A    between atoms: N_14  and  C_15
REMARK    6  A    between atoms: C_15  and  C_16
REMARK    7  A    between atoms: N_20  and  S_21
REMARK    8  A    between atoms: S_21  and  C_24
REMARK                            x       y       z     vdW  Elec       q    Type
REMARK                         _______ _______ _______ _____ _____    ______ ____
ROOT
ATOM      1  C   UNL     1       7.229   5.581  18.116  0.00  0.00    +0.000 C 
ATOM      2  O   UNL     1       7.919   4.639  17.751  0.00  0.00    +0.000 OA
ATOM      3  N   UNL     1       6.110   5.515  18.914  0.00  0.00    +0.000 N 
ATOM      4  H   UNL     1       5.572   6.378  19.002  0.00  0.00    +0.000 HD
ENDROOT
BRANCH   1   6
ATOM      5  O   UNL     1       7.122   7.433  16.611  0.00  0.00    +0.000 OA
ATOM      6  C   UNL     1       7.574   7.021  17.673  0.00  0.00    +0.000 C 
ATOM      7  N   UNL     1       8.375   7.746  18.545  0.00  0.00    +0.000 N 
ATOM      8  H   UNL     1       8.508   7.333  19.465  0.00  0.00    +0.000 HD
BRANCH   7   9
ATOM      9  C   UNL     1       8.473   9.180  18.362  0.00  0.00    +0.000 C 
BRANCH   9  10
ATOM     10  C   UNL     1       9.261   9.954  19.445  0.00  0.00    +0.000 C 
BRANCH  10  11
ATOM     11  N   UNL     1       9.320  11.384  19.112  0.00  0.00    +0.000 NA
ATOM     12  C   UNL     1       9.947  11.707  17.813  0.00  0.00    +0.000 C 
ATOM     13  C   UNL     1      11.439  12.076  17.838  0.00  0.00    +0.000 C 
ATOM     14  O   UNL     1      11.737  13.036  18.852  0.00  0.00    +0.000 OA
ATOM     15  C   UNL     1      11.353  12.521  20.130  0.00  0.00    +0.000 C 
ATOM     16  C   UNL     1       9.841  12.254  20.179  0.00  0.00    +0.000 C 
ENDBRANCH  10  11
ENDBRANCH   9  10
ENDBRANCH   7   9
ENDBRANCH   1   6
BRANCH   3  17
ATOM     17  C   UNL     1       5.521   4.258  19.350  0.00  0.00    +0.000 C 
BRANCH  17  18
ATOM     18  C   UNL     1       4.160   3.954  18.673  0.00  0.00    +0.000 C 
ATOM     19  O   UNL     1       4.431   3.141  17.516  0.00  0.00    +0.000 OA
ATOM     20  C   UNL     1       3.858   1.848  17.726  0.00  0.00    +0.000 C 
ATOM     21  C   UNL     1       3.538   1.764  19.202  0.00  0.00    +0.000 C 
ATOM     22  N   UNL     1       3.283   3.165  19.582  0.00  0.00    +0.000 NA
BRANCH  22  23
ATOM     23  S   UNL     1       1.659   3.679  19.527  0.00  0.00    +0.000 S 
ATOM     24  O   UNL     1       1.068   3.133  18.325  0.00  0.00    +0.000 OA
ATOM     25  O   UNL     1       1.077   3.443  20.833  0.00  0.00    +0.000 OA
BRANCH  23  26
ATOM     26  C   UNL     1       1.764   5.442  19.286  0.00  0.00    +0.000 A 
ATOM     27  C   UNL     1       1.709   6.287  20.403  0.00  0.00    +0.000 A 
ATOM     28  C   UNL     1       1.881   7.664  20.233  0.00  0.00    +0.000 A 
ATOM     29  C   UNL     1       2.112   8.178  18.961  0.00  0.00    +0.000 A 
ATOM     30  F   UNL     1       2.296   9.497  18.803  0.00  0.00    +0.000 F 
ATOM     31  C   UNL     1       2.172   7.342  17.848  0.00  0.00    +0.000 A 
ATOM     32  C   UNL     1       2.000   5.965  18.008  0.00  0.00    +0.000 A 
ENDBRANCH  23  26
ENDBRANCH  22  23
ENDBRANCH  17  18
ENDBRANCH   3  17
TORSDOF 8
ENDMDL
MODEL 8
REMARK VINA RESULT:      -7.3      3.966      5.944
REMARK  Name = 
REMARK  8 active torsions:
REMARK  status: ('A' for Active; 'I' for Inactive)
REMARK    1  A    between atoms: C_2  and  C_12
REMARK    2  A    between atoms: N_3  and  C_4
REMARK    3  A    between atoms: C_4  and  C_5
REMARK    4  A    between atoms: C_5  and  N_6
REMARK    5  A    between atoms: N_14  and  C_15
REMARK    6  A    between atoms: C_15  and  C_16
REMARK    7  A    between atoms: N_20  and  S_21
REMARK    8  A    between atoms: S_21  and  C_24
REMARK                            x       y       z     vdW  Elec       q    Type
REMARK                         _______ _______ _______ _____ _____    ______ ____
ROOT
ATOM      1  C   UNL     1       1.547   7.825  20.442  0.00  0.00    +0.000 C 
ATOM      2  O   UNL     1       0.994   8.109  21.495  0.00  0.00    +0.000 OA
ATOM      3  N   UNL     1       2.063   6.598  20.094  0.00  0.00    +0.000 N 
ATOM      4  H   UNL     1       2.618   6.573  19.237  0.00  0.00    +0.000 HD
ENDROOT
BRANCH   1   6
ATOM      5  O   UNL     1       2.315   8.581  18.310  0.00  0.00    +0.000 OA
ATOM      6  C   UNL     1       1.732   8.895  19.342  0.00  0.00    +0.000 C 
ATOM      7  N   UNL     1       1.198  10.146  19.619  0.00  0.00    +0.000 N 
ATOM      8  H   UNL     1       0.585  10.191  20.430  0.00  0.00    +0.000 HD
BRANCH   7   9
ATOM      9  C   UNL     1       1.048  11.090  18.530  0.00  0.00    +0.000 C 
BRANCH   9  10
ATOM     10  C   UNL     1       2.128  12.192  18.430  0.00  0.00    +0.000 C 
BRANCH  10  11
ATOM     11  N   UNL     1       1.974  13.160  19.526  0.00  0.00    +0.000 NA
ATOM     12  C   UNL     1       0.663  13.837  19.594  0.00  0.00    +0.000 C 
ATOM     13  C   UNL     1       0.560  15.215  18.918  0.00  0.00    +0.000 C 
ATOM     14  O   UNL     1       1.646  16.070  19.277  0.00  0.00    +0.000 OA
ATOM     15  C   UNL     1       2.884  15.453  18.913  0.00  0.00    +0.000 C 
ATOM     16  C   UNL     1       3.075  14.128  19.665  0.00  0.00    +0.000 C 
ENDBRANCH  10  11
ENDBRANCH   9  10
ENDBRANCH   7   9
ENDBRANCH   1   6
BRANCH   3  17
ATOM     17  C   UNL     1       2.118   5.471  21.013  0.00  0.00    +0.000 C 
BRANCH  17  18
ATOM     18  C   UNL     1       2.646   4.171  20.356  0.00  0.00    +0.000 C 
ATOM     19  O   UNL     1       1.573   3.210  20.390  0.00  0.00    +0.000 OA
ATOM     20  C   UNL     1       1.170   2.934  19.046  0.00  0.00    +0.000 C 
ATOM     21  C   UNL     1       1.776   4.024  18.191  0.00  0.00    +0.000 C 
ATOM     22  N   UNL     1       2.995   4.405  18.927  0.00  0.00    +0.000 NA
BRANCH  22  23
ATOM     23  S   UNL     1       4.432   3.611  18.470  0.00  0.00    +0.000 S 
ATOM     24  O   UNL     1       4.963   2.958  19.645  0.00  0.00    +0.000 OA
ATOM     25  O   UNL     1       4.161   2.877  17.250  0.00  0.00    +0.000 OA
BRANCH  23  26
ATOM     26  C   UNL     1       5.557   4.936  18.071  0.00  0.00    +0.000 A 
ATOM     27  C   UNL     1       5.138   5.946  17.196  0.00  0.00    +0.000 A 
ATOM     28  C   UNL     1       5.979   7.035  16.949  0.00  0.00    +0.000 A 
ATOM     29  C   UNL     1       7.218   7.107  17.579  0.00  0.00    +0.000 A 
ATOM     30  F   UNL     1       8.015   8.161  17.354  0.00  0.00    +0.000 F 
ATOM     31  C   UNL     1       7.638   6.106  18.453  0.00  0.00    +0.000 A 
ATOM     32  C   UNL     1       6.804   5.014  18.705  0.00  0.00    +0.000 A 
ENDBRANCH  23  26
ENDBRANCH  22  23
ENDBRANCH  17  18
ENDBRANCH   3  17
TORSDOF 8
ENDMDL
MODEL 9
REMARK VINA RESULT:      -7.2      5.045      7.930
REMARK  Name = 
REMARK  8 active torsions:
REMARK  status: ('A' for Active; 'I' for Inactive)
REMARK    1  A    between atoms: C_2  and  C_12
REMARK    2  A    between atoms: N_3  and  C_4
REMARK    3  A    between atoms: C_4  and  C_5
REMARK    4  A    between atoms: C_5  and  N_6
REMARK    5  A    between atoms: N_14  and  C_15
REMARK    6  A    between atoms: C_15  and  C_16
REMARK    7  A    between atoms: N_20  and  S_21
REMARK    8  A    between atoms: S_21  and  C_24
REMARK                            x       y       z     vdW  Elec       q    Type
REMARK                         _______ _______ _______ _____ _____    ______ ____
ROOT
ATOM      1  C   UNL     1       1.696   9.663  18.283  0.00  0.00    +0.000 C 
ATOM      2  O   UNL     1       2.441  10.363  17.612  0.00  0.00    +0.000 OA
ATOM      3  N   UNL     1       1.812   8.307  18.489  0.00  0.00    +0.000 N 
ATOM      4  H   UNL     1       1.024   7.857  18.956  0.00  0.00    +0.000 HD
ENDROOT
BRANCH   1   6
ATOM      5  O   UNL     1      -0.649   9.965  18.622  0.00  0.00    +0.000 OA
ATOM      6  C   UNL     1       0.474  10.282  18.998  0.00  0.00    +0.000 C 
ATOM      7  N   UNL     1       0.760  11.155  20.038  0.00  0.00    +0.000 N 
ATOM      8  H   UNL     1       1.729  11.166  20.349  0.00  0.00    +0.000 HD
BRANCH   7   9
ATOM      9  C   UNL     1      -0.307  11.518  20.949  0.00  0.00    +0.000 C 
BRANCH   9  10
ATOM     10  C   UNL     1      -0.158  12.880  21.667  0.00  0.00    +0.000 C 
BRANCH  10  11
ATOM     11  N   UNL     1      -0.732  12.812  23.018  0.00  0.00    +0.000 NA
ATOM     12  C   UNL     1      -1.829  11.838  23.192  0.00  0.00    +0.000 C 
ATOM     13  C   UNL     1      -3.263  12.379  23.060  0.00  0.00    +0.000 C 
ATOM     14  O   UNL     1      -3.456  13.574  23.817  0.00  0.00    +0.000 OA
ATOM     15  C   UNL     1      -2.529  14.572  23.384  0.00  0.00    +0.000 C 
ATOM     16  C   UNL     1      -1.082  14.112  23.615  0.00  0.00    +0.000 C 
ENDBRANCH  10  11
ENDBRANCH   9  10
ENDBRANCH   7   9
ENDBRANCH   1   6
BRANCH   3  17
ATOM     17  C   UNL     1       2.809   7.486  17.818  0.00  0.00    +0.000 C 
BRANCH  17  18
ATOM     18  C   UNL     1       3.367   6.350  18.712  0.00  0.00    +0.000 C 
ATOM     19  O   UNL     1       2.596   6.346  19.929  0.00  0.00    +0.000 OA
ATOM     20  C   UNL     1       1.854   5.126  19.992  0.00  0.00    +0.000 C 
ATOM     21  C   UNL     1       1.904   4.530  18.603  0.00  0.00    +0.000 C 
ATOM     22  N   UNL     1       3.182   5.025  18.059  0.00  0.00    +0.000 NA
BRANCH  22  23
ATOM     23  S   UNL     1       4.533   4.006  18.260  0.00  0.00    +0.000 S 
ATOM     24  O   UNL     1       5.310   4.523  19.364  0.00  0.00    +0.000 OA
ATOM     25  O   UNL     1       4.060   2.636  18.241  0.00  0.00    +0.000 OA
BRANCH  23  26
ATOM     26  C   UNL     1       5.503   4.268  16.787  0.00  0.00    +0.000 A 
ATOM     27  C   UNL     1       4.915   4.048  15.535  0.00  0.00    +0.000 A 
ATOM     28  C   UNL     1       5.638   4.338  14.375  0.00  0.00    +0.000 A 
ATOM     29  C   UNL     1       6.930   4.846  14.476  0.00  0.00    +0.000 A 
ATOM     30  F   UNL     1       7.614   5.141  13.361  0.00  0.00    +0.000 F 
ATOM     31  C   UNL     1       7.518   5.070  15.719  0.00  0.00    +0.000 A 
ATOM     32  C   UNL     1       6.802   4.783  16.884  0.00  0.00    +0.000 A 
ENDBRANCH  23  26
ENDBRANCH  22  23
ENDBRANCH  17  18
ENDBRANCH   3  17
TORSDOF 8
ENDMDL
