MODEL 1
REMARK VINA RESULT:      -7.5      0.000      0.000
REMARK  Name = 
REMARK  11 active torsions:
REMARK  status: ('A' for Active; 'I' for Inactive)
REMARK    1  A    between atoms: C_1  and  C_2
REMARK    2  A    between atoms: C_2  and  C_3
REMARK    3  A    between atoms: C_3  and  C_4
REMARK    4  A    between atoms: C_4  and  C_5
REMARK    5  A    between atoms: C_5  and  C_6
REMARK    6  A    between atoms: C_6  and  C_7
REMARK    7  A    between atoms: C_8  and  C_9
REMARK    8  A    between atoms: C_9  and  C_11
REMARK    9  A    between atoms: C_14  and  C_15
REMARK   10  A    between atoms: C_15  and  O_17
REMARK   11  A    between atoms: N_27  and  C_28
REMARK                            x       y       z     vdW  Elec       q    Type
REMARK                         _______ _______ _______ _____ _____    ______ ____
ROOT
ATOM      1  C   UNL     1       2.910   5.265  17.863  0.00  0.00    +0.000 A 
ATOM      2  C   UNL     1       3.389   6.582  17.856  0.00  0.00    +0.000 A 
ATOM      3  C   UNL     1       4.821   6.506  17.881  0.00  0.00    +0.000 A 
ATOM      4  C   UNL     1       5.852   7.475  17.881  0.00  0.00    +0.000 A 
ATOM      5  C   UNL     1       7.186   7.077  17.809  0.00  0.00    +0.000 A 
ATOM      6 CL   UNL     1       8.414   8.277  17.674  0.00  0.00    +0.000 Cl
ATOM      7  C   UNL     1       7.524   5.734  17.818  0.00  0.00    +0.000 A 
ATOM      8  C   UNL     1       6.531   4.751  17.884  0.00  0.00    +0.000 A 
ATOM      9  C   UNL     1       5.182   5.157  17.898  0.00  0.00    +0.000 A 
ATOM     10  N   UNL     1       4.012   4.427  17.944  0.00  0.00    +0.000 N 
ATOM     11  C   UNL     1       3.948   2.982  18.056  0.00  0.00    +0.000 C 
ENDROOT
BRANCH   2  12
ATOM     12  C   UNL     1       2.556   7.793  17.837  0.00  0.00    +0.000 C 
ATOM     13  O   UNL     1       2.355   8.422  16.800  0.00  0.00    +0.000 OA
BRANCH  12  14
ATOM     14  C   UNL     1       1.908   8.289  19.091  0.00  0.00    +0.000 A 
ATOM     15  C   UNL     1       1.189   9.494  19.039  0.00  0.00    +0.000 A 
ATOM     16  C   UNL     1       0.532   9.984  20.172  0.00  0.00    +0.000 A 
ATOM     17  C   UNL     1       0.573   9.275  21.377  0.00  0.00    +0.000 A 
ATOM     18  C   UNL     1       1.272   8.062  21.435  0.00  0.00    +0.000 A 
ATOM     19  C   UNL     1       1.972   7.598  20.314  0.00  0.00    +0.000 A 
BRANCH  17  20
ATOM     20  C   UNL     1      -0.154   9.836  22.547  0.00  0.00    +0.000 C 
ATOM     21  O   UNL     1      -0.129  11.016  22.835  0.00  0.00    +0.000 OA
BRANCH  20  22
ATOM     22  O   UNL     1      -0.803   8.912  23.290  0.00  0.00    +0.000 OA
ATOM     23  H   UNL     1      -1.746   8.791  23.085  0.00  0.00    +0.000 HD
ENDBRANCH  20  22
ENDBRANCH  17  20
ENDBRANCH  12  14
ENDBRANCH   2  12
BRANCH   1  24
ATOM     24  C   UNL     1       1.498   4.726  17.792  0.00  0.00    +0.000 C 
BRANCH  24  25
ATOM     25  C   UNL     1       1.130   3.712  18.888  0.00  0.00    +0.000 C 
BRANCH  25  26
ATOM     26  C   UNL     1       0.953   4.311  20.283  0.00  0.00    +0.000 C 
BRANCH  26  27
ATOM     27  C   UNL     1       2.250   4.266  21.084  0.00  0.00    +0.000 C 
BRANCH  27  29
ATOM     28  C   UNL     1       1.265   2.214  22.091  0.00  0.00    +0.000 C 
ATOM     29  C   UNL     1       2.548   2.868  21.612  0.00  0.00    +0.000 C 
ENDBRANCH  27  29
ENDBRANCH  26  27
ENDBRANCH  25  26
ENDBRANCH  24  25
ENDBRANCH   1  24
TORSDOF 9
ENDMDL
MODEL 2
REMARK VINA RESULT:      -7.4      2.431      5.161
REMARK  Name = 
REMARK  11 active torsions:
REMARK  status: ('A' for Active; 'I' for Inactive)
REMARK    1  A    between atoms: C_1  and  C_2
REMARK    2  A    between atoms: C_2  and  C_3
REMARK    3  A    between atoms: C_3  and  C_4
REMARK    4  A    between atoms: C_4  and  C_5
REMARK    5  A    between atoms: C_5  and  C_6
REMARK    6  A    between atoms: C_6  and  C_7
REMARK    7  A    between atoms: C_8  and  C_9
REMARK    8  A    between atoms: C_9  and  C_11
REMARK    9  A    between atoms: C_14  and  C_15
REMARK   10  A    between atoms: C_15  and  O_17
REMARK   11  A    between atoms: N_27  and  C_28
REMARK                            x       y       z     vdW  Elec       q    Type
REMARK                         _______ _______ _______ _____ _____    ______ ____
ROOT
ATOM      1  C   UNL     1       4.963   6.392  17.246  0.00  0.00    +0.000 A 
ATOM      2  C   UNL     1       3.617   6.481  17.622  0.00  0.00    +0.000 A 
ATOM      3  C   UNL     1       3.167   5.144  17.887  0.00  0.00    +0.000 A 
ATOM      4  C   UNL     1       1.934   4.592  18.303  0.00  0.00    +0.000 A 
ATOM      5  C   UNL     1       1.833   3.228  18.574  0.00  0.00    +0.000 A 
ATOM      6 CL   UNL     1       0.359   2.603  19.208  0.00  0.00    +0.000 Cl
ATOM      7  C   UNL     1       2.913   2.385  18.365  0.00  0.00    +0.000 A 
ATOM      8  C   UNL     1       4.128   2.890  17.891  0.00  0.00    +0.000 A 
ATOM      9  C   UNL     1       4.241   4.277  17.674  0.00  0.00    +0.000 A 
ATOM     10  N   UNL     1       5.299   5.047  17.233  0.00  0.00    +0.000 N 
ATOM     11  C   UNL     1       6.585   4.517  16.819  0.00  0.00    +0.000 C 
ENDROOT
BRANCH   2  12
ATOM     12  C   UNL     1       2.835   7.722  17.710  0.00  0.00    +0.000 C 
ATOM     13  O   UNL     1       2.710   8.476  16.747  0.00  0.00    +0.000 OA
BRANCH  12  14
ATOM     14  C   UNL     1       2.146   8.099  18.984  0.00  0.00    +0.000 A 
ATOM     15  C   UNL     1       1.454   9.318  19.034  0.00  0.00    +0.000 A 
ATOM     16  C   UNL     1       0.762   9.702  20.187  0.00  0.00    +0.000 A 
ATOM     17  C   UNL     1       0.739   8.868  21.310  0.00  0.00    +0.000 A 
ATOM     18  C   UNL     1       1.411   7.639  21.265  0.00  0.00    +0.000 A 
ATOM     19  C   UNL     1       2.147   7.280  20.128  0.00  0.00    +0.000 A 
BRANCH  17  20
ATOM     20  C   UNL     1      -0.023   9.319  22.505  0.00  0.00    +0.000 C 
ATOM     21  O   UNL     1       0.195  10.374  23.066  0.00  0.00    +0.000 OA
BRANCH  20  22
ATOM     22  O   UNL     1      -0.943   8.431  22.941  0.00  0.00    +0.000 OA
ATOM     23  H   UNL     1      -1.250   7.782  22.284  0.00  0.00    +0.000 HD
ENDBRANCH  20  22
ENDBRANCH  17  20
ENDBRANCH  12  14
ENDBRANCH   2  12
BRANCH   1  24
ATOM     24  C   UNL     1       5.967   7.471  16.905  0.00  0.00    +0.000 C 
BRANCH  24  25
ATOM     25  C   UNL     1       7.188   7.546  17.838  0.00  0.00    +0.000 C 
BRANCH  25  26
ATOM     26  C   UNL     1       8.023   8.818  17.701  0.00  0.00    +0.000 C 
BRANCH  26  27
ATOM     27  C   UNL     1       8.870   9.072  18.944  0.00  0.00    +0.000 C 
BRANCH  27  29
ATOM     28  C   UNL     1       9.911  11.135  18.017  0.00  0.00    +0.000 C 
ATOM     29  C   UNL     1       9.117  10.558  19.175  0.00  0.00    +0.000 C 
ENDBRANCH  27  29
ENDBRANCH  26  27
ENDBRANCH  25  26
ENDBRANCH  24  25
ENDBRANCH   1  24
TORSDOF 9
ENDMDL
MODEL 3
REMARK VINA RESULT:      -7.3      0.509      1.170
REMARK  Name = 
REMARK  11 active torsions:
REMARK  status: ('A' for Active; 'I' for Inactive)
REMARK    1  A    between atoms: C_1  and  C_2
REMARK    2  A    between atoms: C_2  and  C_3
REMARK    3  A    between atoms: C_3  and  C_4
REMARK    4  A    between atoms: C_4  and  C_5
REMARK    5  A    between atoms: C_5  and  C_6
REMARK    6  A    between atoms: C_6  and  C_7
REMARK    7  A    between atoms: C_8  and  C_9
REMARK    8  A    between atoms: C_9  and  C_11
REMARK    9  A    between atoms: C_14  and  C_15
REMARK   10  A    between atoms: C_15  and  O_17
REMARK   11  A    between atoms: N_27  and  C_28
REMARK                            x       y       z     vdW  Elec       q    Type
REMARK                         _______ _______ _______ _____ _____    ______ ____
ROOT
ATOM      1  C   UNL     1       2.880   5.297  17.888  0.00  0.00    +0.000 A 
ATOM      2  C   UNL     1       3.357   6.614  17.866  0.00  0.00    +0.000 A 
ATOM      3  C   UNL     1       4.790   6.539  17.879  0.00  0.00    +0.000 A 
ATOM      4  C   UNL     1       5.820   7.509  17.862  0.00  0.00    +0.000 A 
ATOM      5  C   UNL     1       7.153   7.111  17.782  0.00  0.00    +0.000 A 
ATOM      6 CL   UNL     1       8.379   8.311  17.627  0.00  0.00    +0.000 Cl
ATOM      7  C   UNL     1       7.493   5.768  17.799  0.00  0.00    +0.000 A 
ATOM      8  C   UNL     1       6.501   4.786  17.881  0.00  0.00    +0.000 A 
ATOM      9  C   UNL     1       5.152   5.191  17.904  0.00  0.00    +0.000 A 
ATOM     10  N   UNL     1       3.982   4.460  17.966  0.00  0.00    +0.000 N 
ATOM     11  C   UNL     1       3.921   3.016  18.090  0.00  0.00    +0.000 C 
ENDROOT
BRANCH   2  12
ATOM     12  C   UNL     1       2.524   7.824  17.844  0.00  0.00    +0.000 C 
ATOM     13  O   UNL     1       2.331   8.456  16.808  0.00  0.00    +0.000 OA
BRANCH  12  14
ATOM     14  C   UNL     1       1.865   8.316  19.095  0.00  0.00    +0.000 A 
ATOM     15  C   UNL     1       2.021   7.566  20.270  0.00  0.00    +0.000 A 
ATOM     16  C   UNL     1       1.458   8.000  21.475  0.00  0.00    +0.000 A 
ATOM     17  C   UNL     1       0.737   9.197  21.530  0.00  0.00    +0.000 A 
ATOM     18  C   UNL     1       0.591   9.963  20.366  0.00  0.00    +0.000 A 
ATOM     19  C   UNL     1       1.111   9.502  19.150  0.00  0.00    +0.000 A 
BRANCH  17  20
ATOM     20  C   UNL     1       0.171   9.617  22.840  0.00  0.00    +0.000 C 
ATOM     21  O   UNL     1       0.749   9.441  23.894  0.00  0.00    +0.000 OA
BRANCH  20  22
ATOM     22  O   UNL     1      -1.061  10.165  22.760  0.00  0.00    +0.000 OA
ATOM     23  H   UNL     1      -1.364  10.394  21.864  0.00  0.00    +0.000 HD
ENDBRANCH  20  22
ENDBRANCH  17  20
ENDBRANCH  12  14
ENDBRANCH   2  12
BRANCH   1  24
ATOM     24  C   UNL     1       1.467   4.757  17.833  0.00  0.00    +0.000 C 
BRANCH  24  25
ATOM     25  C   UNL     1       1.323   3.269  18.195  0.00  0.00    +0.000 C 
BRANCH  25  26
ATOM     26  C   UNL     1       0.743   2.999  19.582  0.00  0.00    +0.000 C 
BRANCH  26  27
ATOM     27  C   UNL     1       0.936   4.190  20.515  0.00  0.00    +0.000 C 
BRANCH  27  29
ATOM     28  C   UNL     1       2.449   2.573  21.653  0.00  0.00    +0.000 C 
ATOM     29  C   UNL     1       2.181   4.042  21.381  0.00  0.00    +0.000 C 
ENDBRANCH  27  29
ENDBRANCH  26  27
ENDBRANCH  25  26
ENDBRANCH  24  25
ENDBRANCH   1  24
TORSDOF 9
ENDMDL
MODEL 4
REMARK VINA RESULT:      -7.2      1.832      2.444
REMARK  Name = 
REMARK  11 active torsions:
REMARK  status: ('A' for Active; 'I' for Inactive)
REMARK    1  A    between atoms: C_1  and  C_2
REMARK    2  A    between atoms: C_2  and  C_3
REMARK    3  A    between atoms: C_3  and  C_4
REMARK    4  A    between atoms: C_4  and  C_5
REMARK    5  A    between atoms: C_5  and  C_6
REMARK    6  A    between atoms: C_6  and  C_7
REMARK    7  A    between atoms: C_8  and  C_9
REMARK    8  A    between atoms: C_9  and  C_11
REMARK    9  A    between atoms: C_14  and  C_15
REMARK   10  A    between atoms: C_15  and  O_17
REMARK   11  A    between atoms: N_27  and  C_28
REMARK                            x       y       z     vdW  Elec       q    Type
REMARK                         _______ _______ _______ _____ _____    ______ ____
ROOT
ATOM      1  C   UNL     1       3.911   4.408  17.181  0.00  0.00    +0.000 A 
ATOM      2  C   UNL     1       4.193   5.435  18.091  0.00  0.00    +0.000 A 
ATOM      3  C   UNL     1       5.434   6.028  17.680  0.00  0.00    +0.000 A 
ATOM      4  C   UNL     1       6.222   7.091  18.180  0.00  0.00    +0.000 A 
ATOM      5  C   UNL     1       7.358   7.505  17.487  0.00  0.00    +0.000 A 
ATOM      6 CL   UNL     1       8.224   8.886  18.042  0.00  0.00    +0.000 Cl
ATOM      7  C   UNL     1       7.775   6.834  16.348  0.00  0.00    +0.000 A 
ATOM      8  C   UNL     1       7.053   5.738  15.865  0.00  0.00    +0.000 A 
ATOM      9  C   UNL     1       5.874   5.359  16.536  0.00  0.00    +0.000 A 
ATOM     10  N   UNL     1       4.968   4.348  16.286  0.00  0.00    +0.000 N 
ATOM     11  C   UNL     1       5.105   3.365  15.227  0.00  0.00    +0.000 C 
ENDROOT
BRANCH   2  12
ATOM     12  C   UNL     1       3.362   5.805  19.245  0.00  0.00    +0.000 C 
ATOM     13  O   UNL     1       3.334   5.121  20.266  0.00  0.00    +0.000 OA
BRANCH  12  14
ATOM     14  C   UNL     1       2.532   7.050  19.216  0.00  0.00    +0.000 A 
ATOM     15  C   UNL     1       1.912   7.467  20.404  0.00  0.00    +0.000 A 
ATOM     16  C   UNL     1       1.156   8.643  20.441  0.00  0.00    +0.000 A 
ATOM     17  C   UNL     1       1.013   9.430  19.294  0.00  0.00    +0.000 A 
ATOM     18  C   UNL     1       1.642   9.033  18.107  0.00  0.00    +0.000 A 
ATOM     19  C   UNL     1       2.356   7.828  18.058  0.00  0.00    +0.000 A 
BRANCH  17  20
ATOM     20  C   UNL     1       0.208  10.678  19.394  0.00  0.00    +0.000 C 
ATOM     21  O   UNL     1       0.253  11.558  18.558  0.00  0.00    +0.000 OA
BRANCH  20  22
ATOM     22  O   UNL     1      -0.537  10.767  20.517  0.00  0.00    +0.000 OA
ATOM     23  H   UNL     1      -0.710   9.927  20.978  0.00  0.00    +0.000 HD
ENDBRANCH  20  22
ENDBRANCH  17  20
ENDBRANCH  12  14
ENDBRANCH   2  12
BRANCH   1  24
ATOM     24  C   UNL     1       2.720   3.480  17.077  0.00  0.00    +0.000 C 
BRANCH  24  25
ATOM     25  C   UNL     1       2.904   2.106  17.743  0.00  0.00    +0.000 C 
BRANCH  25  26
ATOM     26  C   UNL     1       2.229   1.959  19.107  0.00  0.00    +0.000 C 
BRANCH  26  27
ATOM     27  C   UNL     1       0.880   2.670  19.147  0.00  0.00    +0.000 C 
BRANCH  27  29
ATOM     28  C   UNL     1       1.356   2.709  21.590  0.00  0.00    +0.000 C 
ATOM     29  C   UNL     1       0.677   3.440  20.446  0.00  0.00    +0.000 C 
ENDBRANCH  27  29
ENDBRANCH  26  27
ENDBRANCH  25  26
ENDBRANCH  24  25
ENDBRANCH   1  24
TORSDOF 9
ENDMDL
MODEL 5
REMARK VINA RESULT:      -7.1      2.388      5.195
REMARK  Name = 
REMARK  11 active torsions:
REMARK  status: ('A' for Active; 'I' for Inactive)
REMARK    1  A    between atoms: C_1  and  C_2
REMARK    2  A    between atoms: C_2  and  C_3
REMARK    3  A    between atoms: C_3  and  C_4
REMARK    4  A    between atoms: C_4  and  C_5
REMARK    5  A    between atoms: C_5  and  C_6
REMARK    6  A    between atoms: C_6  and  C_7
REMARK    7  A    between atoms: C_8  and  C_9
REMARK    8  A    between atoms: C_9  and  C_11
REMARK    9  A    between atoms: C_14  and  C_15
REMARK   10  A    between atoms: C_15  and  O_17
REMARK   11  A    between atoms: N_27  and  C_28
REMARK                            x       y       z     vdW  Elec       q    Type
REMARK                         _______ _______ _______ _____ _____    ______ ____
ROOT
ATOM      1  C   UNL     1       5.209   6.290  17.553  0.00  0.00    +0.000 A 
ATOM      2  C   UNL     1       3.818   6.382  17.687  0.00  0.00    +0.000 A 
ATOM      3  C   UNL     1       3.326   5.047  17.878  0.00  0.00    +0.000 A 
ATOM      4  C   UNL     1       2.038   4.499  18.074  0.00  0.00    +0.000 A 
ATOM      5  C   UNL     1       1.889   3.137  18.332  0.00  0.00    +0.000 A 
ATOM      6 CL   UNL     1       0.325   2.518  18.701  0.00  0.00    +0.000 Cl
ATOM      7  C   UNL     1       2.986   2.292  18.320  0.00  0.00    +0.000 A 
ATOM      8  C   UNL     1       4.267   2.793  18.064  0.00  0.00    +0.000 A 
ATOM      9  C   UNL     1       4.419   4.178  17.860  0.00  0.00    +0.000 A 
ATOM     10  N   UNL     1       5.539   4.944  17.607  0.00  0.00    +0.000 N 
ATOM     11  C   UNL     1       6.877   4.410  17.428  0.00  0.00    +0.000 C 
ENDROOT
BRANCH   2  12
ATOM     12  C   UNL     1       3.035   7.625  17.628  0.00  0.00    +0.000 C 
ATOM     13  O   UNL     1       3.022   8.333  16.623  0.00  0.00    +0.000 OA
BRANCH  12  14
ATOM     14  C   UNL     1       2.209   8.058  18.798  0.00  0.00    +0.000 A 
ATOM     15  C   UNL     1       2.212   7.258  19.951  0.00  0.00    +0.000 A 
ATOM     16  C   UNL     1       1.488   7.636  21.086  0.00  0.00    +0.000 A 
ATOM     17  C   UNL     1       0.754   8.827  21.095  0.00  0.00    +0.000 A 
ATOM     18  C   UNL     1       0.758   9.643  19.956  0.00  0.00    +0.000 A 
ATOM     19  C   UNL     1       1.442   9.237  18.802  0.00  0.00    +0.000 A 
BRANCH  17  20
ATOM     20  C   UNL     1       0.012   9.187  22.333  0.00  0.00    +0.000 C 
ATOM     21  O   UNL     1      -0.876   8.497  22.792  0.00  0.00    +0.000 OA
BRANCH  20  22
ATOM     22  O   UNL     1       0.379  10.369  22.873  0.00  0.00    +0.000 OA
ATOM     23  H   UNL     1       0.658  10.341  23.805  0.00  0.00    +0.000 HD
ENDBRANCH  20  22
ENDBRANCH  17  20
ENDBRANCH  12  14
ENDBRANCH   2  12
BRANCH   1  24
ATOM     24  C   UNL     1       6.260   7.366  17.386  0.00  0.00    +0.000 C 
BRANCH  24  25
ATOM     25  C   UNL     1       7.670   6.979  17.861  0.00  0.00    +0.000 C 
BRANCH  25  26
ATOM     26  C   UNL     1       8.444   8.101  18.553  0.00  0.00    +0.000 C 
BRANCH  26  27
ATOM     27  C   UNL     1       8.144   9.460  17.930  0.00  0.00    +0.000 C 
BRANCH  27  29
ATOM     28  C   UNL     1       9.405  10.540  19.785  0.00  0.00    +0.000 C 
ATOM     29  C   UNL     1       9.203  10.498  18.281  0.00  0.00    +0.000 C 
ENDBRANCH  27  29
ENDBRANCH  26  27
ENDBRANCH  25  26
ENDBRANCH  24  25
ENDBRANCH   1  24
TORSDOF 9
ENDMDL
MODEL 6
REMARK VINA RESULT:      -7.1      1.892      2.463
REMARK  Name = 
REMARK  11 active torsions:
REMARK  status: ('A' for Active; 'I' for Inactive)
REMARK    1  A    between atoms: C_1  and  C_2
REMARK    2  A    between atoms: C_2  and  C_3
REMARK    3  A    between atoms: C_3  and  C_4
REMARK    4  A    between atoms: C_4  and  C_5
REMARK    5  A    between atoms: C_5  and  C_6
REMARK    6  A    between atoms: C_6  and  C_7
REMARK    7  A    between atoms: C_8  and  C_9
REMARK    8  A    between atoms: C_9  and  C_11
REMARK    9  A    between atoms: C_14  and  C_15
REMARK   10  A    between atoms: C_15  and  O_17
REMARK   11  A    between atoms: N_27  and  C_28
REMARK                            x       y       z     vdW  Elec       q    Type
REMARK                         _______ _______ _______ _____ _____    ______ ____
ROOT
ATOM      1  C   UNL     1       3.733   4.505  17.332  0.00  0.00    +0.000 A 
ATOM      2  C   UNL     1       4.028   5.583  18.177  0.00  0.00    +0.000 A 
ATOM      3  C   UNL     1       5.292   6.113  17.751  0.00  0.00    +0.000 A 
ATOM      4  C   UNL     1       6.102   7.184  18.194  0.00  0.00    +0.000 A 
ATOM      5  C   UNL     1       7.261   7.520  17.496  0.00  0.00    +0.000 A 
ATOM      6 CL   UNL     1       8.157   8.910  17.974  0.00  0.00    +0.000 Cl
ATOM      7  C   UNL     1       7.678   6.763  16.413  0.00  0.00    +0.000 A 
ATOM      8  C   UNL     1       6.934   5.657  15.991  0.00  0.00    +0.000 A 
ATOM      9  C   UNL     1       5.733   5.357  16.663  0.00  0.00    +0.000 A 
ATOM     10  N   UNL     1       4.803   4.356  16.463  0.00  0.00    +0.000 N 
ATOM     11  C   UNL     1       4.930   3.301  15.476  0.00  0.00    +0.000 C 
ENDROOT
BRANCH   2  12
ATOM     12  C   UNL     1       3.189   6.052  19.288  0.00  0.00    +0.000 C 
ATOM     13  O   UNL     1       3.076   5.408  20.329  0.00  0.00    +0.000 OA
BRANCH  12  14
ATOM     14  C   UNL     1       2.454   7.352  19.188  0.00  0.00    +0.000 A 
ATOM     15  C   UNL     1       2.432   8.013  17.951  0.00  0.00    +0.000 A 
ATOM     16  C   UNL     1       1.727   9.211  17.792  0.00  0.00    +0.000 A 
ATOM     17  C   UNL     1       1.023   9.766  18.865  0.00  0.00    +0.000 A 
ATOM     18  C   UNL     1       1.023   9.105  20.100  0.00  0.00    +0.000 A 
ATOM     19  C   UNL     1       1.770   7.932  20.272  0.00  0.00    +0.000 A 
BRANCH  17  20
ATOM     20  C   UNL     1       0.281  11.035  18.638  0.00  0.00    +0.000 C 
ATOM     21  O   UNL     1       0.599  12.086  19.158  0.00  0.00    +0.000 OA
BRANCH  20  22
ATOM     22  O   UNL     1      -0.804  10.906  17.844  0.00  0.00    +0.000 OA
ATOM     23  H   UNL     1      -0.843  11.508  17.079  0.00  0.00    +0.000 HD
ENDBRANCH  20  22
ENDBRANCH  17  20
ENDBRANCH  12  14
ENDBRANCH   2  12
BRANCH   1  24
ATOM     24  C   UNL     1       2.518   3.605  17.267  0.00  0.00    +0.000 C 
BRANCH  24  25
ATOM     25  C   UNL     1       2.722   2.192  17.839  0.00  0.00    +0.000 C 
BRANCH  25  26
ATOM     26  C   UNL     1       1.819   1.842  19.022  0.00  0.00    +0.000 C 
BRANCH  26  27
ATOM     27  C   UNL     1       0.838   2.967  19.334  0.00  0.00    +0.000 C 
BRANCH  27  29
ATOM     28  C   UNL     1       1.920   2.547  21.536  0.00  0.00    +0.000 C 
ATOM     29  C   UNL     1       0.861   3.355  20.807  0.00  0.00    +0.000 C 
ENDBRANCH  27  29
ENDBRANCH  26  27
ENDBRANCH  25  26
ENDBRANCH  24  25
ENDBRANCH   1  24
TORSDOF 9
ENDMDL
MODEL 7
REMARK VINA RESULT:      -7.1      1.959      2.511
REMARK  Name = 
REMARK  11 active torsions:
REMARK  status: ('A' for Active; 'I' for Inactive)
REMARK    1  A    between atoms: C_1  and  C_2
REMARK    2  A    between atoms: C_2  and  C_3
REMARK    3  A    between atoms: C_3  and  C_4
REMARK    4  A    between atoms: C_4  and  C_5
REMARK    5  A    between atoms: C_5  and  C_6
REMARK    6  A    between atoms: C_6  and  C_7
REMARK    7  A    between atoms: C_8  and  C_9
REMARK    8  A    between atoms: C_9  and  C_11
REMARK    9  A    between atoms: C_14  and  C_15
REMARK   10  A    between atoms: C_15  and  O_17
REMARK   11  A    between atoms: N_27  and  C_28
REMARK                            x       y       z     vdW  Elec       q    Type
REMARK                         _______ _______ _______ _____ _____    ______ ____
ROOT
ATOM      1  C   UNL     1       2.364   4.516  18.105  0.00  0.00    +0.000 A 
ATOM      2  C   UNL     1       3.011   5.607  18.699  0.00  0.00    +0.000 A 
ATOM      3  C   UNL     1       4.283   5.744  18.047  0.00  0.00    +0.000 A 
ATOM      4  C   UNL     1       5.364   6.644  18.193  0.00  0.00    +0.000 A 
ATOM      5  C   UNL     1       6.451   6.578  17.324  0.00  0.00    +0.000 A 
ATOM      6 CL   UNL     1       7.690   7.769  17.436  0.00  0.00    +0.000 Cl
ATOM      7  C   UNL     1       6.526   5.586  16.360  0.00  0.00    +0.000 A 
ATOM      8  C   UNL     1       5.504   4.640  16.233  0.00  0.00    +0.000 A 
ATOM      9  C   UNL     1       4.380   4.746  17.076  0.00  0.00    +0.000 A 
ATOM     10  N   UNL     1       3.234   3.981  17.167  0.00  0.00    +0.000 N 
ATOM     11  C   UNL     1       2.979   2.787  16.384  0.00  0.00    +0.000 C 
ENDROOT
BRANCH   2  12
ATOM     12  C   UNL     1       2.470   6.431  19.789  0.00  0.00    +0.000 C 
ATOM     13  O   UNL     1       2.438   6.026  20.949  0.00  0.00    +0.000 OA
BRANCH  12  14
ATOM     14  C   UNL     1       1.953   7.808  19.516  0.00  0.00    +0.000 A 
ATOM     15  C   UNL     1       2.088   8.327  18.219  0.00  0.00    +0.000 A 
ATOM     16  C   UNL     1       1.589   9.594  17.900  0.00  0.00    +0.000 A 
ATOM     17  C   UNL     1       0.936  10.363  18.868  0.00  0.00    +0.000 A 
ATOM     18  C   UNL     1       0.779   9.847  20.161  0.00  0.00    +0.000 A 
ATOM     19  C   UNL     1       1.325   8.600  20.493  0.00  0.00    +0.000 A 
BRANCH  17  20
ATOM     20  C   UNL     1       0.413  11.698  18.471  0.00  0.00    +0.000 C 
ATOM     21  O   UNL     1       1.001  12.733  18.712  0.00  0.00    +0.000 OA
BRANCH  20  22
ATOM     22  O   UNL     1      -0.793  11.661  17.864  0.00  0.00    +0.000 OA
ATOM     23  H   UNL     1      -1.418  10.997  18.204  0.00  0.00    +0.000 HD
ENDBRANCH  20  22
ENDBRANCH  17  20
ENDBRANCH  12  14
ENDBRANCH   2  12
BRANCH   1  24
ATOM     24  C   UNL     1       0.987   3.935  18.341  0.00  0.00    +0.000 C 
BRANCH  24  25
ATOM     25  C   UNL     1       0.943   2.716  19.277  0.00  0.00    +0.000 C 
BRANCH  25  26
ATOM     26  C   UNL     1       1.073   3.045  20.764  0.00  0.00    +0.000 C 
BRANCH  26  27
ATOM     27  C   UNL     1       2.462   2.704  21.297  0.00  0.00    +0.000 C 
BRANCH  27  29
ATOM     28  C   UNL     1       4.653   2.554  20.126  0.00  0.00    +0.000 C 
ATOM     29  C   UNL     1       3.285   1.916  20.286  0.00  0.00    +0.000 C 
ENDBRANCH  27  29
ENDBRANCH  26  27
ENDBRANCH  25  26
ENDBRANCH  24  25
ENDBRANCH   1  24
TORSDOF 9
ENDMDL
MODEL 8
REMARK VINA RESULT:      -7.0      4.849      8.754
REMARK  Name = 
REMARK  11 active torsions:
REMARK  status: ('A' for Active; 'I' for Inactive)
REMARK    1  A    between atoms: C_1  and  C_2
REMARK    2  A    between atoms: C_2  and  C_3
REMARK    3  A    between atoms: C_3  and  C_4
REMARK    4  A    between atoms: C_4  and  C_5
REMARK    5  A    between atoms: C_5  and  C_6
REMARK    6  A    between atoms: C_6  and  C_7
REMARK    7  A    between atoms: C_8  and  C_9
REMARK    8  A    between atoms: C_9  and  C_11
REMARK    9  A    between atoms: C_14  and  C_15
REMARK   10  A    between atoms: C_15  and  O_17
REMARK   11  A    between atoms: N_27  and  C_28
REMARK                            x       y       z     vdW  Elec       q    Type
REMARK                         _______ _______ _______ _____ _____    ______ ____
ROOT
ATOM      1  C   UNL     1      -1.824  12.331  19.850  0.00  0.00    +0.000 A 
ATOM      2  C   UNL     1      -1.109  11.719  18.812  0.00  0.00    +0.000 A 
ATOM      3  C   UNL     1      -2.067  11.336  17.814  0.00  0.00    +0.000 A 
ATOM      4  C   UNL     1      -1.966  10.697  16.557  0.00  0.00    +0.000 A 
ATOM      5  C   UNL     1      -3.096  10.547  15.756  0.00  0.00    +0.000 A 
ATOM      6 CL   UNL     1      -2.924   9.888  14.174  0.00  0.00    +0.000 Cl
ATOM      7  C   UNL     1      -4.343  10.947  16.210  0.00  0.00    +0.000 A 
ATOM      8  C   UNL     1      -4.486  11.522  17.476  0.00  0.00    +0.000 A 
ATOM      9  C   UNL     1      -3.332  11.724  18.259  0.00  0.00    +0.000 A 
ATOM     10  N   UNL     1      -3.168  12.272  19.515  0.00  0.00    +0.000 N 
ATOM     11  C   UNL     1      -4.255  12.727  20.362  0.00  0.00    +0.000 C 
ENDROOT
BRANCH   2  12
ATOM     12  C   UNL     1       0.345  11.512  18.784  0.00  0.00    +0.000 C 
ATOM     13  O   UNL     1       1.125  12.434  18.554  0.00  0.00    +0.000 OA
BRANCH  12  14
ATOM     14  C   UNL     1       0.926  10.159  19.053  0.00  0.00    +0.000 A 
ATOM     15  C   UNL     1       0.796   9.622  20.343  0.00  0.00    +0.000 A 
ATOM     16  C   UNL     1       1.286   8.346  20.639  0.00  0.00    +0.000 A 
ATOM     17  C   UNL     1       1.907   7.578  19.649  0.00  0.00    +0.000 A 
ATOM     18  C   UNL     1       2.026   8.097  18.353  0.00  0.00    +0.000 A 
ATOM     19  C   UNL     1       1.581   9.395  18.071  0.00  0.00    +0.000 A 
BRANCH  17  20
ATOM     20  C   UNL     1       2.399   6.223  20.016  0.00  0.00    +0.000 C 
ATOM     21  O   UNL     1       1.686   5.377  20.517  0.00  0.00    +0.000 OA
BRANCH  20  22
ATOM     22  O   UNL     1       3.718   6.033  19.790  0.00  0.00    +0.000 OA
ATOM     23  H   UNL     1       4.114   6.595  19.101  0.00  0.00    +0.000 HD
ENDBRANCH  20  22
ENDBRANCH  17  20
ENDBRANCH  12  14
ENDBRANCH   2  12
BRANCH   1  24
ATOM     24  C   UNL     1      -1.346  12.978  21.132  0.00  0.00    +0.000 C 
BRANCH  24  25
ATOM     25  C   UNL     1      -1.242  12.032  22.340  0.00  0.00    +0.000 C 
BRANCH  25  26
ATOM     26  C   UNL     1      -1.844  12.577  23.635  0.00  0.00    +0.000 C 
BRANCH  26  27
ATOM     27  C   UNL     1      -3.312  12.187  23.782  0.00  0.00    +0.000 C 
BRANCH  27  29
ATOM     28  C   UNL     1      -5.667  12.983  23.892  0.00  0.00    +0.000 C 
ATOM     29  C   UNL     1      -4.210  13.401  23.978  0.00  0.00    +0.000 C 
ENDBRANCH  27  29
ENDBRANCH  26  27
ENDBRANCH  25  26
ENDBRANCH  24  25
ENDBRANCH   1  24
TORSDOF 9
ENDMDL
MODEL 9
REMARK VINA RESULT:      -7.0      2.782      4.977
REMARK  Name = 
REMARK  11 active torsions:
REMARK  status: ('A' for Active; 'I' for Inactive)
REMARK    1  A    between atoms: C_1  and  C_2
REMARK    2  A    between atoms: C_2  and  C_3
REMARK    3  A    between atoms: C_3  and  C_4
REMARK    4  A    between atoms: C_4  and  C_5
REMARK    5  A    between atoms: C_5  and  C_6
REMARK    6  A    between atoms: C_6  and  C_7
REMARK    7  A    between atoms: C_8  and  C_9
REMARK    8  A    between atoms: C_9  and  C_11
REMARK    9  A    between atoms: C_14  and  C_15
REMARK   10  A    between atoms: C_15  and  O_17
REMARK   11  A    between atoms: N_27  and  C_28
REMARK                            x       y       z     vdW  Elec       q    Type
REMARK                         _______ _______ _______ _____ _____    ______ ____
ROOT
ATOM      1  C   UNL     1       1.598   7.652  20.012  0.00  0.00    +0.000 A 
ATOM      2  C   UNL     1       2.115   8.257  18.860  0.00  0.00    +0.000 A 
ATOM      3  C   UNL     1       2.996   7.305  18.246  0.00  0.00    +0.000 A 
ATOM      4  C   UNL     1       3.794   7.322  17.079  0.00  0.00    +0.000 A 
ATOM      5  C   UNL     1       4.484   6.176  16.686  0.00  0.00    +0.000 A 
ATOM      6 CL   UNL     1       5.339   6.181  15.192  0.00  0.00    +0.000 Cl
ATOM      7  C   UNL     1       4.462   5.034  17.471  0.00  0.00    +0.000 A 
ATOM      8  C   UNL     1       3.734   5.007  18.665  0.00  0.00    +0.000 A 
ATOM      9  C   UNL     1       2.993   6.148  19.028  0.00  0.00    +0.000 A 
ATOM     10  N   UNL     1       2.186   6.401  20.120  0.00  0.00    +0.000 N 
ATOM     11  C   UNL     1       1.981   5.479  21.221  0.00  0.00    +0.000 C 
ENDROOT
BRANCH   2  12
ATOM     12  C   UNL     1       1.804   9.617  18.397  0.00  0.00    +0.000 C 
ATOM     13  O   UNL     1       2.687  10.395  18.039  0.00  0.00    +0.000 OA
BRANCH  12  14
ATOM     14  C   UNL     1       0.387  10.092  18.331  0.00  0.00    +0.000 A 
ATOM     15  C   UNL     1       0.038  11.252  19.040  0.00  0.00    +0.000 A 
ATOM     16  C   UNL     1      -1.263  11.762  18.982  0.00  0.00    +0.000 A 
ATOM     17  C   UNL     1      -2.239  11.127  18.207  0.00  0.00    +0.000 A 
ATOM     18  C   UNL     1      -1.897   9.978  17.481  0.00  0.00    +0.000 A 
ATOM     19  C   UNL     1      -0.608   9.440  17.580  0.00  0.00    +0.000 A 
BRANCH  17  20
ATOM     20  C   UNL     1      -3.603  11.718  18.173  0.00  0.00    +0.000 C 
ATOM     21  O   UNL     1      -4.255  11.931  19.176  0.00  0.00    +0.000 OA
BRANCH  20  22
ATOM     22  O   UNL     1      -4.074  11.951  16.927  0.00  0.00    +0.000 OA
ATOM     23  H   UNL     1      -4.658  11.264  16.561  0.00  0.00    +0.000 HD
ENDBRANCH  20  22
ENDBRANCH  17  20
ENDBRANCH  12  14
ENDBRANCH   2  12
BRANCH   1  24
ATOM     24  C   UNL     1       0.587   8.150  21.022  0.00  0.00    +0.000 C 
BRANCH  24  25
ATOM     25  C   UNL     1       1.166   9.013  22.155  0.00  0.00    +0.000 C 
BRANCH  25  26
ATOM     26  C   UNL     1       0.131   9.563  23.136  0.00  0.00    +0.000 C 
BRANCH  26  27
ATOM     27  C   UNL     1      -0.966  10.343  22.419  0.00  0.00    +0.000 C 
BRANCH  27  29
ATOM     28  C   UNL     1      -2.522  12.283  22.535  0.00  0.00    +0.000 C 
ATOM     29  C   UNL     1      -1.234  11.691  23.077  0.00  0.00    +0.000 C 
ENDBRANCH  27  29
ENDBRANCH  26  27
ENDBRANCH  25  26
ENDBRANCH  24  25
ENDBRANCH   1  24
TORSDOF 9
ENDMDL
