MODEL 1
REMARK VINA RESULT:      -8.5      0.000      0.000
REMARK  Name = 
REMARK  10 active torsions:
REMARK  status: ('A' for Active; 'I' for Inactive)
REMARK    1  A    between atoms: C_1  and  C_2
REMARK    2  A    between atoms: N_6  and  C_7
REMARK    3  A    between atoms: C_10  and  C_11
REMARK    4  A    between atoms: N_16  and  C_17
REMARK    5  A    between atoms: N_21  and  C_22
REMARK    6  A    between atoms: C_22  and  C_23
REMARK    7  A    between atoms: C_23  and  N_24
REMARK    8  A    between atoms: N_24  and  C_25
REMARK    9  A    between atoms: N_24  and  C_26
REMARK   10  A    between atoms: C_31  and  C_32
REMARK                            x       y       z     vdW  Elec       q    Type
REMARK                         _______ _______ _______ _____ _____    ______ ____
ROOT
ATOM      1  C   UNL     1       2.377   6.049  19.986  0.00  0.00    +0.000 A 
ATOM      2  C   UNL     1       1.682   5.137  20.748  0.00  0.00    +0.000 A 
ATOM      3  C   UNL     1       2.200   3.868  20.799  0.00  0.00    +0.000 A 
ATOM      4  N   UNL     1       3.336   3.501  20.181  0.00  0.00    +0.000 NA
ATOM      5  C   UNL     1       3.936   4.433  19.432  0.00  0.00    +0.000 A 
ATOM      6  N   UNL     1       5.113   4.076  18.787  0.00  0.00    +0.000 N 
ATOM      7  N   UNL     1       3.484   5.692  19.307  0.00  0.00    +0.000 NA
ATOM      8  H   UNL     1       5.508   3.225  19.153  0.00  0.00    +0.000 HD
ENDROOT
BRANCH   6   9
ATOM      9  C   UNL     1       5.603   4.558  17.571  0.00  0.00    +0.000 A 
ATOM     10  C   UNL     1       4.847   5.439  16.807  0.00  0.00    +0.000 A 
ATOM     11  C   UNL     1       5.302   5.836  15.548  0.00  0.00    +0.000 A 
ATOM     12  C   UNL     1       6.505   5.341  15.053  0.00  0.00    +0.000 A 
ATOM     13  N   UNL     1       6.817   5.598  13.730  0.00  0.00    +0.000 N 
ATOM     14  N   UNL     1       7.259   4.492  15.773  0.00  0.00    +0.000 NA
ATOM     15  C   UNL     1       6.794   4.120  16.991  0.00  0.00    +0.000 A 
ATOM     16  H   UNL     1       6.751   6.559  13.404  0.00  0.00    +0.000 HD
BRANCH  13  17
ATOM     17  C   UNL     1       7.809   4.765  13.079  0.00  0.00    +0.000 C 
BRANCH  17  18
ATOM     18  C   UNL     1       7.161   4.083  11.853  0.00  0.00    +0.000 C 
BRANCH  18  19
ATOM     19  N   UNL     1       6.235   2.973  12.181  0.00  0.00    +0.000 NA
ATOM     20  C   UNL     1       4.850   3.321  11.853  0.00  0.00    +0.000 C 
ATOM     21  C   UNL     1       6.625   1.770  11.436  0.00  0.00    +0.000 C 
ENDBRANCH  18  19
ENDBRANCH  17  18
ENDBRANCH  13  17
ENDBRANCH   6   9
BRANCH   1  25
ATOM     22  C   UNL     1       1.046  10.181  19.562  0.00  0.00    +0.000 A 
ATOM     23  C   UNL     1       1.584   9.452  18.487  0.00  0.00    +0.000 A 
ATOM     24  C   UNL     1       2.035   8.128  18.621  0.00  0.00    +0.000 A 
ATOM     25  C   UNL     1       1.957   7.455  19.845  0.00  0.00    +0.000 A 
ATOM     26  C   UNL     1       1.433   8.175  20.926  0.00  0.00    +0.000 A 
ATOM     27  C   UNL     1       0.970   9.497  20.793  0.00  0.00    +0.000 A 
BRANCH  22  33
ATOM     28  C   UNL     1      -1.823  11.478  19.299  0.00  0.00    +0.000 C 
ATOM     29  C   UNL     1      -0.530  11.900  18.600  0.00  0.00    +0.000 C 
ATOM     30  C   UNL     1      -0.438  13.435  18.539  0.00  0.00    +0.000 C 
ATOM     31  C   UNL     1       0.924  13.804  19.107  0.00  0.00    +0.000 C 
ATOM     32  C   UNL     1       1.312  12.631  19.985  0.00  0.00    +0.000 C 
ATOM     33  N   UNL     1       0.642  11.487  19.378  0.00  0.00    +0.000 N 
ENDBRANCH  22  33
BRANCH  27  34
ATOM     34  C   UNL     1       0.347  10.058  21.953  0.00  0.00    +0.000 C 
ATOM     35  N   UNL     1      -0.163  10.492  22.915  0.00  0.00    +0.000 NA
ENDBRANCH  27  34
ENDBRANCH   1  25
TORSDOF 7
ENDMDL
MODEL 2
REMARK VINA RESULT:      -8.4      0.440      1.085
REMARK  Name = 
REMARK  10 active torsions:
REMARK  status: ('A' for Active; 'I' for Inactive)
REMARK    1  A    between atoms: C_1  and  C_2
REMARK    2  A    between atoms: N_6  and  C_7
REMARK    3  A    between atoms: C_10  and  C_11
REMARK    4  A    between atoms: N_16  and  C_17
REMARK    5  A    between atoms: N_21  and  C_22
REMARK    6  A    between atoms: C_22  and  C_23
REMARK    7  A    between atoms: C_23  and  N_24
REMARK    8  A    between atoms: N_24  and  C_25
REMARK    9  A    between atoms: N_24  and  C_26
REMARK   10  A    between atoms: C_31  and  C_32
REMARK                            x       y       z     vdW  Elec       q    Type
REMARK                         _______ _______ _______ _____ _____    ______ ____
ROOT
ATOM      1  C   UNL     1       2.403   6.179  20.014  0.00  0.00    +0.000 A 
ATOM      2  C   UNL     1       1.736   5.280  20.815  0.00  0.00    +0.000 A 
ATOM      3  C   UNL     1       2.283   4.024  20.903  0.00  0.00    +0.000 A 
ATOM      4  N   UNL     1       3.418   3.660  20.284  0.00  0.00    +0.000 NA
ATOM      5  C   UNL     1       3.990   4.579  19.496  0.00  0.00    +0.000 A 
ATOM      6  N   UNL     1       5.166   4.225  18.848  0.00  0.00    +0.000 N 
ATOM      7  N   UNL     1       3.508   5.823  19.333  0.00  0.00    +0.000 NA
ATOM      8  H   UNL     1       5.584   3.395  19.238  0.00  0.00    +0.000 HD
ENDROOT
BRANCH   6   9
ATOM      9  C   UNL     1       5.631   4.675  17.610  0.00  0.00    +0.000 A 
ATOM     10  C   UNL     1       4.835   5.490  16.813  0.00  0.00    +0.000 A 
ATOM     11  C   UNL     1       5.268   5.852  15.537  0.00  0.00    +0.000 A 
ATOM     12  C   UNL     1       6.490   5.387  15.057  0.00  0.00    +0.000 A 
ATOM     13  N   UNL     1       6.786   5.601  13.722  0.00  0.00    +0.000 N 
ATOM     14  N   UNL     1       7.282   4.602  15.808  0.00  0.00    +0.000 NA
ATOM     15  C   UNL     1       6.837   4.263  17.043  0.00  0.00    +0.000 A 
ATOM     16  H   UNL     1       6.678   6.543  13.356  0.00  0.00    +0.000 HD
BRANCH  13  17
ATOM     17  C   UNL     1       7.810   4.784  13.102  0.00  0.00    +0.000 C 
BRANCH  17  18
ATOM     18  C   UNL     1       7.230   4.148  11.818  0.00  0.00    +0.000 C 
BRANCH  18  19
ATOM     19  N   UNL     1       6.480   2.888  12.036  0.00  0.00    +0.000 NA
ATOM     20  C   UNL     1       5.057   3.057  11.732  0.00  0.00    +0.000 C 
ATOM     21  C   UNL     1       7.037   1.830  11.186  0.00  0.00    +0.000 C 
ENDBRANCH  18  19
ENDBRANCH  17  18
ENDBRANCH  13  17
ENDBRANCH   6   9
BRANCH   1  25
ATOM     22  C   UNL     1       0.977  10.265  19.466  0.00  0.00    +0.000 A 
ATOM     23  C   UNL     1       1.516   9.510  18.409  0.00  0.00    +0.000 A 
ATOM     24  C   UNL     1       1.997   8.202  18.583  0.00  0.00    +0.000 A 
ATOM     25  C   UNL     1       1.950   7.571  19.831  0.00  0.00    +0.000 A 
ATOM     26  C   UNL     1       1.425   8.317  20.894  0.00  0.00    +0.000 A 
ATOM     27  C   UNL     1       0.932   9.623  20.721  0.00  0.00    +0.000 A 
BRANCH  22  33
ATOM     28  C   UNL     1       2.460  12.822  18.349  0.00  0.00    +0.000 C 
ATOM     29  C   UNL     1       1.363  12.758  19.412  0.00  0.00    +0.000 C 
ATOM     30  C   UNL     1       0.381  13.930  19.232  0.00  0.00    +0.000 C 
ATOM     31  C   UNL     1      -1.010  13.318  19.188  0.00  0.00    +0.000 C 
ATOM     32  C   UNL     1      -0.792  11.882  18.756  0.00  0.00    +0.000 C 
ATOM     33  N   UNL     1       0.542  11.555  19.243  0.00  0.00    +0.000 N 
ENDBRANCH  22  33
BRANCH  27  34
ATOM     34  C   UNL     1       0.313  10.211  21.870  0.00  0.00    +0.000 C 
ATOM     35  N   UNL     1      -0.190  10.717  22.799  0.00  0.00    +0.000 NA
ENDBRANCH  27  34
ENDBRANCH   1  25
TORSDOF 7
ENDMDL
MODEL 3
REMARK VINA RESULT:      -8.4      2.589      9.746
REMARK  Name = 
REMARK  10 active torsions:
REMARK  status: ('A' for Active; 'I' for Inactive)
REMARK    1  A    between atoms: C_1  and  C_2
REMARK    2  A    between atoms: N_6  and  C_7
REMARK    3  A    between atoms: C_10  and  C_11
REMARK    4  A    between atoms: N_16  and  C_17
REMARK    5  A    between atoms: N_21  and  C_22
REMARK    6  A    between atoms: C_22  and  C_23
REMARK    7  A    between atoms: C_23  and  N_24
REMARK    8  A    between atoms: N_24  and  C_25
REMARK    9  A    between atoms: N_24  and  C_26
REMARK   10  A    between atoms: C_31  and  C_32
REMARK                            x       y       z     vdW  Elec       q    Type
REMARK                         _______ _______ _______ _____ _____    ______ ____
ROOT
ATOM      1  C   UNL     1       1.523   8.079  20.053  0.00  0.00    +0.000 A 
ATOM      2  C   UNL     1       0.998   7.547  21.209  0.00  0.00    +0.000 A 
ATOM      3  C   UNL     1       0.124   8.347  21.903  0.00  0.00    +0.000 A 
ATOM      4  N   UNL     1      -0.249   9.572  21.496  0.00  0.00    +0.000 NA
ATOM      5  C   UNL     1       0.330  10.033  20.381  0.00  0.00    +0.000 A 
ATOM      6  N   UNL     1      -0.042  11.297  19.941  0.00  0.00    +0.000 N 
ATOM      7  N   UNL     1       1.214   9.328  19.655  0.00  0.00    +0.000 NA
ATOM      8  H   UNL     1      -0.888  11.622  20.381  0.00  0.00    +0.000 HD
ENDROOT
BRANCH   6   9
ATOM      9  C   UNL     1       0.736  12.225  19.245  0.00  0.00    +0.000 A 
ATOM     10  C   UNL     1       1.891  11.823  18.586  0.00  0.00    +0.000 A 
ATOM     11  C   UNL     1       2.714  12.773  17.979  0.00  0.00    +0.000 A 
ATOM     12  C   UNL     1       2.383  14.124  18.043  0.00  0.00    +0.000 A 
ATOM     13  N   UNL     1       3.322  15.043  17.607  0.00  0.00    +0.000 N 
ATOM     14  N   UNL     1       1.269  14.541  18.669  0.00  0.00    +0.000 NA
ATOM     15  C   UNL     1       0.489  13.598  19.253  0.00  0.00    +0.000 A 
ATOM     16  H   UNL     1       3.741  14.897  16.693  0.00  0.00    +0.000 HD
BRANCH  13  17
ATOM     17  C   UNL     1       3.198  16.419  18.046  0.00  0.00    +0.000 C 
BRANCH  17  18
ATOM     18  C   UNL     1       2.638  17.266  16.881  0.00  0.00    +0.000 C 
BRANCH  18  19
ATOM     19  N   UNL     1       1.719  18.353  17.292  0.00  0.00    +0.000 NA
ATOM     20  C   UNL     1       0.629  18.522  16.329  0.00  0.00    +0.000 C 
ATOM     21  C   UNL     1       1.158  18.050  18.614  0.00  0.00    +0.000 C 
ENDBRANCH  18  19
ENDBRANCH  17  18
ENDBRANCH  13  17
ENDBRANCH   6   9
BRANCH   1  25
ATOM     22  C   UNL     1       4.369   5.915  17.555  0.00  0.00    +0.000 A 
ATOM     23  C   UNL     1       3.889   7.191  17.212  0.00  0.00    +0.000 A 
ATOM     24  C   UNL     1       2.956   7.884  18.000  0.00  0.00    +0.000 A 
ATOM     25  C   UNL     1       2.462   7.338  19.190  0.00  0.00    +0.000 A 
ATOM     26  C   UNL     1       2.926   6.063  19.537  0.00  0.00    +0.000 A 
ATOM     27  C   UNL     1       3.869   5.370  18.756  0.00  0.00    +0.000 A 
BRANCH  22  33
ATOM     28  C   UNL     1       7.466   5.353  17.846  0.00  0.00    +0.000 C 
ATOM     29  C   UNL     1       6.676   5.643  16.569  0.00  0.00    +0.000 C 
ATOM     30  C   UNL     1       7.186   4.758  15.418  0.00  0.00    +0.000 C 
ATOM     31  C   UNL     1       5.961   4.075  14.830  0.00  0.00    +0.000 C 
ATOM     32  C   UNL     1       4.933   4.089  15.943  0.00  0.00    +0.000 C 
ATOM     33  N   UNL     1       5.267   5.270  16.730  0.00  0.00    +0.000 N 
ENDBRANCH  22  33
BRANCH  27  34
ATOM     34  C   UNL     1       4.341   4.134  19.302  0.00  0.00    +0.000 C 
ATOM     35  N   UNL     1       4.750   3.125  19.734  0.00  0.00    +0.000 NA
ENDBRANCH  27  34
ENDBRANCH   1  25
TORSDOF 7
ENDMDL
MODEL 4
REMARK VINA RESULT:      -8.4      3.293      9.054
REMARK  Name = 
REMARK  10 active torsions:
REMARK  status: ('A' for Active; 'I' for Inactive)
REMARK    1  A    between atoms: C_1  and  C_2
REMARK    2  A    between atoms: N_6  and  C_7
REMARK    3  A    between atoms: C_10  and  C_11
REMARK    4  A    between atoms: N_16  and  C_17
REMARK    5  A    between atoms: N_21  and  C_22
REMARK    6  A    between atoms: C_22  and  C_23
REMARK    7  A    between atoms: C_23  and  N_24
REMARK    8  A    between atoms: N_24  and  C_25
REMARK    9  A    between atoms: N_24  and  C_26
REMARK   10  A    between atoms: C_31  and  C_32
REMARK                            x       y       z     vdW  Elec       q    Type
REMARK                         _______ _______ _______ _____ _____    ______ ____
ROOT
ATOM      1  C   UNL     1       0.629   9.296  21.297  0.00  0.00    +0.000 A 
ATOM      2  C   UNL     1       0.000   9.092  22.505  0.00  0.00    +0.000 A 
ATOM      3  C   UNL     1      -0.558  10.199  23.093  0.00  0.00    +0.000 A 
ATOM      4  N   UNL     1      -0.541  11.425  22.542  0.00  0.00    +0.000 NA
ATOM      5  C   UNL     1       0.117  11.549  21.383  0.00  0.00    +0.000 A 
ATOM      6  N   UNL     1       0.145  12.807  20.794  0.00  0.00    +0.000 N 
ATOM      7  N   UNL     1       0.713  10.524  20.752  0.00  0.00    +0.000 NA
ATOM      8  H   UNL     1      -0.543  13.429  21.188  0.00  0.00    +0.000 HD
ENDROOT
BRANCH   6   9
ATOM      9  C   UNL     1       1.151  13.358  19.998  0.00  0.00    +0.000 A 
ATOM     10  C   UNL     1       1.267  12.998  18.660  0.00  0.00    +0.000 A 
ATOM     11  C   UNL     1       2.335  13.477  17.900  0.00  0.00    +0.000 A 
ATOM     12  C   UNL     1       3.290  14.305  18.484  0.00  0.00    +0.000 A 
ATOM     13  N   UNL     1       4.432  14.591  17.757  0.00  0.00    +0.000 N 
ATOM     14  N   UNL     1       3.200  14.673  19.774  0.00  0.00    +0.000 NA
ATOM     15  C   UNL     1       2.154  14.193  20.491  0.00  0.00    +0.000 A 
ATOM     16  H   UNL     1       4.318  14.920  16.802  0.00  0.00    +0.000 HD
BRANCH  13  17
ATOM     17  C   UNL     1       5.602  15.071  18.467  0.00  0.00    +0.000 C 
BRANCH  17  18
ATOM     18  C   UNL     1       6.867  14.516  17.774  0.00  0.00    +0.000 C 
BRANCH  18  19
ATOM     19  N   UNL     1       8.020  15.448  17.756  0.00  0.00    +0.000 NA
ATOM     20  C   UNL     1       7.750  16.644  18.556  0.00  0.00    +0.000 C 
ATOM     21  C   UNL     1       9.210  14.769  18.282  0.00  0.00    +0.000 C 
ENDBRANCH  18  19
ENDBRANCH  17  18
ENDBRANCH  13  17
ENDBRANCH   6   9
BRANCH   1  25
ATOM     22  C   UNL     1       2.577   6.078  19.089  0.00  0.00    +0.000 A 
ATOM     23  C   UNL     1       2.472   7.383  18.577  0.00  0.00    +0.000 A 
ATOM     24  C   UNL     1       1.827   8.418  19.272  0.00  0.00    +0.000 A 
ATOM     25  C   UNL     1       1.262   8.204  20.534  0.00  0.00    +0.000 A 
ATOM     26  C   UNL     1       1.350   6.905  21.050  0.00  0.00    +0.000 A 
ATOM     27  C   UNL     1       2.005   5.868  20.361  0.00  0.00    +0.000 A 
BRANCH  22  33
ATOM     28  C   UNL     1       5.496   4.874  19.227  0.00  0.00    +0.000 C 
ATOM     29  C   UNL     1       4.622   5.088  17.990  0.00  0.00    +0.000 C 
ATOM     30  C   UNL     1       4.775   3.903  17.021  0.00  0.00    +0.000 C 
ATOM     31  C   UNL     1       3.367   3.425  16.705  0.00  0.00    +0.000 C 
ATOM     32  C   UNL     1       2.523   3.894  17.873  0.00  0.00    +0.000 C 
ATOM     33  N   UNL     1       3.200   5.093  18.351  0.00  0.00    +0.000 N 
ENDBRANCH  22  33
BRANCH  27  34
ATOM     34  C   UNL     1       2.124   4.629  21.069  0.00  0.00    +0.000 C 
ATOM     35  N   UNL     1       2.233   3.628  21.669  0.00  0.00    +0.000 NA
ENDBRANCH  27  34
ENDBRANCH   1  25
TORSDOF 7
ENDMDL
MODEL 5
REMARK VINA RESULT:      -8.2      3.184      8.910
REMARK  Name = 
REMARK  10 active torsions:
REMARK  status: ('A' for Active; 'I' for Inactive)
REMARK    1  A    between atoms: C_1  and  C_2
REMARK    2  A    between atoms: N_6  and  C_7
REMARK    3  A    between atoms: C_10  and  C_11
REMARK    4  A    between atoms: N_16  and  C_17
REMARK    5  A    between atoms: N_21  and  C_22
REMARK    6  A    between atoms: C_22  and  C_23
REMARK    7  A    between atoms: C_23  and  N_24
REMARK    8  A    between atoms: N_24  and  C_25
REMARK    9  A    between atoms: N_24  and  C_26
REMARK   10  A    between atoms: C_31  and  C_32
REMARK                            x       y       z     vdW  Elec       q    Type
REMARK                         _______ _______ _______ _____ _____    ______ ____
ROOT
ATOM      1  C   UNL     1       1.444   8.364  20.141  0.00  0.00    +0.000 A 
ATOM      2  C   UNL     1       0.769   7.812  21.207  0.00  0.00    +0.000 A 
ATOM      3  C   UNL     1      -0.053   8.658  21.908  0.00  0.00    +0.000 A 
ATOM      4  N   UNL     1      -0.242   9.950  21.588  0.00  0.00    +0.000 NA
ATOM      5  C   UNL     1       0.474  10.421  20.560  0.00  0.00    +0.000 A 
ATOM      6  N   UNL     1       0.293  11.753  20.210  0.00  0.00    +0.000 N 
ATOM      7  N   UNL     1       1.320   9.669  19.835  0.00  0.00    +0.000 NA
ATOM      8  H   UNL     1      -0.539  12.147  20.619  0.00  0.00    +0.000 HD
ENDROOT
BRANCH   6   9
ATOM      9  C   UNL     1       1.229  12.628  19.654  0.00  0.00    +0.000 A 
ATOM     10  C   UNL     1       1.200  12.919  18.295  0.00  0.00    +0.000 A 
ATOM     11  C   UNL     1       2.199  13.714  17.732  0.00  0.00    +0.000 A 
ATOM     12  C   UNL     1       3.230  14.206  18.528  0.00  0.00    +0.000 A 
ATOM     13  N   UNL     1       4.301  14.816  17.899  0.00  0.00    +0.000 N 
ATOM     14  N   UNL     1       3.280  13.945  19.846  0.00  0.00    +0.000 NA
ATOM     15  C   UNL     1       2.299  13.168  20.368  0.00  0.00    +0.000 A 
ATOM     16  H   UNL     1       4.101  15.541  17.215  0.00  0.00    +0.000 HD
BRANCH  13  17
ATOM     17  C   UNL     1       5.548  14.945  18.626  0.00  0.00    +0.000 C 
BRANCH  17  18
ATOM     18  C   UNL     1       6.709  14.497  17.709  0.00  0.00    +0.000 C 
BRANCH  18  19
ATOM     19  N   UNL     1       7.943  14.095  18.425  0.00  0.00    +0.000 NA
ATOM     20  C   UNL     1       8.586  12.950  17.776  0.00  0.00    +0.000 C 
ATOM     21  C   UNL     1       8.880  15.223  18.463  0.00  0.00    +0.000 C 
ENDBRANCH  18  19
ENDBRANCH  17  18
ENDBRANCH  13  17
ENDBRANCH   6   9
BRANCH   1  25
ATOM     22  C   UNL     1       4.196   6.070  17.653  0.00  0.00    +0.000 A 
ATOM     23  C   UNL     1       3.795   7.376  17.320  0.00  0.00    +0.000 A 
ATOM     24  C   UNL     1       2.892   8.112  18.105  0.00  0.00    +0.000 A 
ATOM     25  C   UNL     1       2.350   7.581  19.281  0.00  0.00    +0.000 A 
ATOM     26  C   UNL     1       2.734   6.277  19.616  0.00  0.00    +0.000 A 
ATOM     27  C   UNL     1       3.647   5.540  18.839  0.00  0.00    +0.000 A 
BRANCH  22  33
ATOM     28  C   UNL     1       7.273   5.410  17.933  0.00  0.00    +0.000 C 
ATOM     29  C   UNL     1       6.486   5.709  16.656  0.00  0.00    +0.000 C 
ATOM     30  C   UNL     1       6.959   4.792  15.514  0.00  0.00    +0.000 C 
ATOM     31  C   UNL     1       5.708   4.142  14.943  0.00  0.00    +0.000 C 
ATOM     32  C   UNL     1       4.688   4.205  16.062  0.00  0.00    +0.000 C 
ATOM     33  N   UNL     1       5.066   5.385  16.831  0.00  0.00    +0.000 N 
ENDBRANCH  22  33
BRANCH  27  34
ATOM     34  C   UNL     1       4.039   4.272  19.374  0.00  0.00    +0.000 C 
ATOM     35  N   UNL     1       4.386   3.242  19.812  0.00  0.00    +0.000 NA
ENDBRANCH  27  34
ENDBRANCH   1  25
TORSDOF 7
ENDMDL
MODEL 6
REMARK VINA RESULT:      -8.1      3.313      8.832
REMARK  Name = 
REMARK  10 active torsions:
REMARK  status: ('A' for Active; 'I' for Inactive)
REMARK    1  A    between atoms: C_1  and  C_2
REMARK    2  A    between atoms: N_6  and  C_7
REMARK    3  A    between atoms: C_10  and  C_11
REMARK    4  A    between atoms: N_16  and  C_17
REMARK    5  A    between atoms: N_21  and  C_22
REMARK    6  A    between atoms: C_22  and  C_23
REMARK    7  A    between atoms: C_23  and  N_24
REMARK    8  A    between atoms: N_24  and  C_25
REMARK    9  A    between atoms: N_24  and  C_26
REMARK   10  A    between atoms: C_31  and  C_32
REMARK                            x       y       z     vdW  Elec       q    Type
REMARK                         _______ _______ _______ _____ _____    ______ ____
ROOT
ATOM      1  C   UNL     1       0.707   9.426  21.299  0.00  0.00    +0.000 A 
ATOM      2  C   UNL     1       0.065   9.219  22.500  0.00  0.00    +0.000 A 
ATOM      3  C   UNL     1      -0.469  10.330  23.102  0.00  0.00    +0.000 A 
ATOM      4  N   UNL     1      -0.418  11.564  22.570  0.00  0.00    +0.000 NA
ATOM      5  C   UNL     1       0.251  11.690  21.418  0.00  0.00    +0.000 A 
ATOM      6  N   UNL     1       0.314  12.956  20.850  0.00  0.00    +0.000 N 
ATOM      7  N   UNL     1       0.825  10.660  20.774  0.00  0.00    +0.000 NA
ATOM      8  H   UNL     1      -0.360  13.589  21.249  0.00  0.00    +0.000 HD
ENDROOT
BRANCH   6   9
ATOM      9  C   UNL     1       1.339  13.495  20.069  0.00  0.00    +0.000 A 
ATOM     10  C   UNL     1       1.352  13.298  18.693  0.00  0.00    +0.000 A 
ATOM     11  C   UNL     1       2.432  13.755  17.935  0.00  0.00    +0.000 A 
ATOM     12  C   UNL     1       3.500  14.395  18.558  0.00  0.00    +0.000 A 
ATOM     13  N   UNL     1       4.633  14.649  17.805  0.00  0.00    +0.000 N 
ATOM     14  N   UNL     1       3.510  14.603  19.886  0.00  0.00    +0.000 NA
ATOM     15  C   UNL     1       2.451  14.148  20.600  0.00  0.00    +0.000 A 
ATOM     16  H   UNL     1       4.513  15.107  16.906  0.00  0.00    +0.000 HD
BRANCH  13  17
ATOM     17  C   UNL     1       5.880  14.907  18.498  0.00  0.00    +0.000 C 
BRANCH  17  18
ATOM     18  C   UNL     1       7.030  14.220  17.727  0.00  0.00    +0.000 C 
BRANCH  18  19
ATOM     19  N   UNL     1       8.145  13.741  18.579  0.00  0.00    +0.000 NA
ATOM     20  C   UNL     1       9.261  13.250  17.767  0.00  0.00    +0.000 C 
ATOM     21  C   UNL     1       8.612  14.833  19.440  0.00  0.00    +0.000 C 
ENDBRANCH  18  19
ENDBRANCH  17  18
ENDBRANCH  13  17
ENDBRANCH   6   9
BRANCH   1  25
ATOM     22  C   UNL     1       2.589   6.199  19.048  0.00  0.00    +0.000 A 
ATOM     23  C   UNL     1       2.473   7.503  18.535  0.00  0.00    +0.000 A 
ATOM     24  C   UNL     1       1.848   8.541  19.245  0.00  0.00    +0.000 A 
ATOM     25  C   UNL     1       1.317   8.331  20.522  0.00  0.00    +0.000 A 
ATOM     26  C   UNL     1       1.418   7.034  21.039  0.00  0.00    +0.000 A 
ATOM     27  C   UNL     1       2.052   5.993  20.335  0.00  0.00    +0.000 A 
BRANCH  22  33
ATOM     28  C   UNL     1       1.392   3.771  17.418  0.00  0.00    +0.000 C 
ATOM     29  C   UNL     1       2.712   3.830  18.187  0.00  0.00    +0.000 C 
ATOM     30  C   UNL     1       3.814   3.094  17.406  0.00  0.00    +0.000 C 
ATOM     31  C   UNL     1       4.983   4.061  17.302  0.00  0.00    +0.000 C 
ATOM     32  C   UNL     1       4.367   5.437  17.464  0.00  0.00    +0.000 C 
ATOM     33  N   UNL     1       3.191   5.212  18.296  0.00  0.00    +0.000 N 
ENDBRANCH  22  33
BRANCH  27  34
ATOM     34  C   UNL     1       2.189   4.757  21.043  0.00  0.00    +0.000 C 
ATOM     35  N   UNL     1       2.278   3.735  21.609  0.00  0.00    +0.000 NA
ENDBRANCH  27  34
ENDBRANCH   1  25
TORSDOF 7
ENDMDL
MODEL 7
REMARK VINA RESULT:      -8.1      3.010      9.646
REMARK  Name = 
REMARK  10 active torsions:
REMARK  status: ('A' for Active; 'I' for Inactive)
REMARK    1  A    between atoms: C_1  and  C_2
REMARK    2  A    between atoms: N_6  and  C_7
REMARK    3  A    between atoms: C_10  and  C_11
REMARK    4  A    between atoms: N_16  and  C_17
REMARK    5  A    between atoms: N_21  and  C_22
REMARK    6  A    between atoms: C_22  and  C_23
REMARK    7  A    between atoms: C_23  and  N_24
REMARK    8  A    between atoms: N_24  and  C_25
REMARK    9  A    between atoms: N_24  and  C_26
REMARK   10  A    between atoms: C_31  and  C_32
REMARK                            x       y       z     vdW  Elec       q    Type
REMARK                         _______ _______ _______ _____ _____    ______ ____
ROOT
ATOM      1  C   UNL     1       1.491   8.201  20.098  0.00  0.00    +0.000 A 
ATOM      2  C   UNL     1       0.796   7.602  21.125  0.00  0.00    +0.000 A 
ATOM      3  C   UNL     1      -0.044   8.415  21.844  0.00  0.00    +0.000 A 
ATOM      4  N   UNL     1      -0.231   9.718  21.575  0.00  0.00    +0.000 NA
ATOM      5  C   UNL     1       0.504  10.235  20.584  0.00  0.00    +0.000 A 
ATOM      6  N   UNL     1       0.324  11.580  20.287  0.00  0.00    +0.000 N 
ATOM      7  N   UNL     1       1.368   9.518  19.846  0.00  0.00    +0.000 NA
ATOM      8  H   UNL     1      -0.518  11.953  20.695  0.00  0.00    +0.000 HD
ENDROOT
BRANCH   6   9
ATOM      9  C   UNL     1       1.268  12.481  19.788  0.00  0.00    +0.000 A 
ATOM     10  C   UNL     1       1.589  12.487  18.435  0.00  0.00    +0.000 A 
ATOM     11  C   UNL     1       2.604  13.322  17.965  0.00  0.00    +0.000 A 
ATOM     12  C   UNL     1       3.302  14.138  18.851  0.00  0.00    +0.000 A 
ATOM     13  N   UNL     1       4.426  14.793  18.380  0.00  0.00    +0.000 N 
ATOM     14  N   UNL     1       3.010  14.155  20.163  0.00  0.00    +0.000 NA
ATOM     15  C   UNL     1       2.021  13.334  20.595  0.00  0.00    +0.000 A 
ATOM     16  H   UNL     1       4.342  15.321  17.516  0.00  0.00    +0.000 HD
BRANCH  13  17
ATOM     17  C   UNL     1       5.394  15.284  19.342  0.00  0.00    +0.000 C 
BRANCH  17  18
ATOM     18  C   UNL     1       5.977  16.619  18.825  0.00  0.00    +0.000 C 
BRANCH  18  19
ATOM     19  N   UNL     1       5.625  17.805  19.643  0.00  0.00    +0.000 NA
ATOM     20  C   UNL     1       4.483  17.527  20.518  0.00  0.00    +0.000 C 
ATOM     21  C   UNL     1       6.779  18.201  20.458  0.00  0.00    +0.000 C 
ENDBRANCH  18  19
ENDBRANCH  17  18
ENDBRANCH  13  17
ENDBRANCH   6   9
BRANCH   1  25
ATOM     22  C   UNL     1       4.306   6.032  17.569  0.00  0.00    +0.000 A 
ATOM     23  C   UNL     1       3.813   7.303  17.224  0.00  0.00    +0.000 A 
ATOM     24  C   UNL     1       2.889   7.997  18.023  0.00  0.00    +0.000 A 
ATOM     25  C   UNL     1       2.419   7.458  19.225  0.00  0.00    +0.000 A 
ATOM     26  C   UNL     1       2.895   6.188  19.573  0.00  0.00    +0.000 A 
ATOM     27  C   UNL     1       3.828   5.494  18.781  0.00  0.00    +0.000 A 
BRANCH  22  33
ATOM     28  C   UNL     1       7.414   5.512  17.798  0.00  0.00    +0.000 C 
ATOM     29  C   UNL     1       6.593   5.773  16.535  0.00  0.00    +0.000 C 
ATOM     30  C   UNL     1       7.088   4.877  15.386  0.00  0.00    +0.000 C 
ATOM     31  C   UNL     1       5.859   4.170  14.836  0.00  0.00    +0.000 C 
ATOM     32  C   UNL     1       4.856   4.189  15.972  0.00  0.00    +0.000 C 
ATOM     33  N   UNL     1       5.193   5.385  16.733  0.00  0.00    +0.000 N 
ENDBRANCH  22  33
BRANCH  27  34
ATOM     34  C   UNL     1       4.316   4.264  19.329  0.00  0.00    +0.000 C 
ATOM     35  N   UNL     1       4.737   3.271  19.786  0.00  0.00    +0.000 NA
ENDBRANCH  27  34
ENDBRANCH   1  25
TORSDOF 7
ENDMDL
MODEL 8
REMARK VINA RESULT:      -8.1      3.101      9.383
REMARK  Name = 
REMARK  10 active torsions:
REMARK  status: ('A' for Active; 'I' for Inactive)
REMARK    1  A    between atoms: C_1  and  C_2
REMARK    2  A    between atoms: N_6  and  C_7
REMARK    3  A    between atoms: C_10  and  C_11
REMARK    4  A    between atoms: N_16  and  C_17
REMARK    5  A    between atoms: N_21  and  C_22
REMARK    6  A    between atoms: C_22  and  C_23
REMARK    7  A    between atoms: C_23  and  N_24
REMARK    8  A    between atoms: N_24  and  C_25
REMARK    9  A    between atoms: N_24  and  C_26
REMARK   10  A    between atoms: C_31  and  C_32
REMARK                            x       y       z     vdW  Elec       q    Type
REMARK                         _______ _______ _______ _____ _____    ______ ____
ROOT
ATOM      1  C   UNL     1       0.696   9.447  21.296  0.00  0.00    +0.000 A 
ATOM      2  C   UNL     1       0.040   9.241  22.489  0.00  0.00    +0.000 A 
ATOM      3  C   UNL     1      -0.491  10.355  23.089  0.00  0.00    +0.000 A 
ATOM      4  N   UNL     1      -0.423  11.590  22.562  0.00  0.00    +0.000 NA
ATOM      5  C   UNL     1       0.259  11.714  21.418  0.00  0.00    +0.000 A 
ATOM      6  N   UNL     1       0.339  12.982  20.855  0.00  0.00    +0.000 N 
ATOM      7  N   UNL     1       0.831  10.682  20.777  0.00  0.00    +0.000 NA
ATOM      8  H   UNL     1      -0.334  13.619  21.249  0.00  0.00    +0.000 HD
ENDROOT
BRANCH   6   9
ATOM      9  C   UNL     1       1.377  13.513  20.087  0.00  0.00    +0.000 A 
ATOM     10  C   UNL     1       1.238  13.647  18.710  0.00  0.00    +0.000 A 
ATOM     11  C   UNL     1       2.316  14.085  17.941  0.00  0.00    +0.000 A 
ATOM     12  C   UNL     1       3.534  14.378  18.549  0.00  0.00    +0.000 A 
ATOM     13  N   UNL     1       4.627  14.613  17.733  0.00  0.00    +0.000 N 
ATOM     14  N   UNL     1       3.695  14.263  19.879  0.00  0.00    +0.000 NA
ATOM     15  C   UNL     1       2.633  13.833  20.604  0.00  0.00    +0.000 A 
ATOM     16  H   UNL     1       4.521  15.283  16.977  0.00  0.00    +0.000 HD
BRANCH  13  17
ATOM     17  C   UNL     1       5.954  14.493  18.304  0.00  0.00    +0.000 C 
BRANCH  17  18
ATOM     18  C   UNL     1       6.543  15.909  18.498  0.00  0.00    +0.000 C 
BRANCH  18  19
ATOM     19  N   UNL     1       6.483  16.419  19.889  0.00  0.00    +0.000 NA
ATOM     20  C   UNL     1       7.803  16.843  20.358  0.00  0.00    +0.000 C 
ATOM     21  C   UNL     1       5.554  17.553  19.958  0.00  0.00    +0.000 C 
ENDBRANCH  18  19
ENDBRANCH  17  18
ENDBRANCH  13  17
ENDBRANCH   6   9
BRANCH   1  25
ATOM     22  C   UNL     1       2.574   6.210  19.055  0.00  0.00    +0.000 A 
ATOM     23  C   UNL     1       2.478   7.518  18.546  0.00  0.00    +0.000 A 
ATOM     24  C   UNL     1       1.855   8.560  19.253  0.00  0.00    +0.000 A 
ATOM     25  C   UNL     1       1.305   8.349  20.522  0.00  0.00    +0.000 A 
ATOM     26  C   UNL     1       1.385   7.048  21.034  0.00  0.00    +0.000 A 
ATOM     27  C   UNL     1       2.018   6.004  20.334  0.00  0.00    +0.000 A 
BRANCH  22  33
ATOM     28  C   UNL     1       5.484   4.980  19.141  0.00  0.00    +0.000 C 
ATOM     29  C   UNL     1       4.590   5.202  17.920  0.00  0.00    +0.000 C 
ATOM     30  C   UNL     1       4.716   4.015  16.949  0.00  0.00    +0.000 C 
ATOM     31  C   UNL     1       3.298   3.550  16.658  0.00  0.00    +0.000 C 
ATOM     32  C   UNL     1       2.479   4.027  17.841  0.00  0.00    +0.000 C 
ATOM     33  N   UNL     1       3.176   5.220  18.306  0.00  0.00    +0.000 N 
ENDBRANCH  22  33
BRANCH  27  34
ATOM     34  C   UNL     1       2.132   4.763  21.037  0.00  0.00    +0.000 C 
ATOM     35  N   UNL     1       2.252   3.750  21.614  0.00  0.00    +0.000 NA
ENDBRANCH  27  34
ENDBRANCH   1  25
TORSDOF 7
ENDMDL
MODEL 9
REMARK VINA RESULT:      -7.9      2.832      9.315
REMARK  Name = 
REMARK  10 active torsions:
REMARK  status: ('A' for Active; 'I' for Inactive)
REMARK    1  A    between atoms: C_1  and  C_2
REMARK    2  A    between atoms: N_6  and  C_7
REMARK    3  A    between atoms: C_10  and  C_11
REMARK    4  A    between atoms: N_16  and  C_17
REMARK    5  A    between atoms: N_21  and  C_22
REMARK    6  A    between atoms: C_22  and  C_23
REMARK    7  A    between atoms: C_23  and  N_24
REMARK    8  A    between atoms: N_24  and  C_25
REMARK    9  A    between atoms: N_24  and  C_26
REMARK   10  A    between atoms: C_31  and  C_32
REMARK                            x       y       z     vdW  Elec       q    Type
REMARK                         _______ _______ _______ _____ _____    ______ ____
ROOT
ATOM      1  C   UNL     1       1.453   8.309  20.045  0.00  0.00    +0.000 A 
ATOM      2  C   UNL     1       0.859   7.797  21.177  0.00  0.00    +0.000 A 
ATOM      3  C   UNL     1       0.009   8.638  21.850  0.00  0.00    +0.000 A 
ATOM      4  N   UNL     1      -0.279   9.887  21.445  0.00  0.00    +0.000 NA
ATOM      5  C   UNL     1       0.363  10.324  20.356  0.00  0.00    +0.000 A 
ATOM      6  N   UNL     1       0.078  11.612  19.919  0.00  0.00    +0.000 N 
ATOM      7  N   UNL     1       1.230   9.577  19.652  0.00  0.00    +0.000 NA
ATOM      8  H   UNL     1      -0.762  11.981  20.334  0.00  0.00    +0.000 HD
ENDROOT
BRANCH   6   9
ATOM      9  C   UNL     1       0.931  12.501  19.260  0.00  0.00    +0.000 A 
ATOM     10  C   UNL     1       1.933  12.026  18.422  0.00  0.00    +0.000 A 
ATOM     11  C   UNL     1       2.841  12.916  17.848  0.00  0.00    +0.000 A 
ATOM     12  C   UNL     1       2.752  14.278  18.124  0.00  0.00    +0.000 A 
ATOM     13  N   UNL     1       3.785  15.095  17.701  0.00  0.00    +0.000 N 
ATOM     14  N   UNL     1       1.790  14.766  18.927  0.00  0.00    +0.000 NA
ATOM     15  C   UNL     1       0.921  13.879  19.474  0.00  0.00    +0.000 A 
ATOM     16  H   UNL     1       4.084  15.022  16.732  0.00  0.00    +0.000 HD
BRANCH  13  17
ATOM     17  C   UNL     1       3.939  16.395  18.325  0.00  0.00    +0.000 C 
BRANCH  17  18
ATOM     18  C   UNL     1       5.441  16.647  18.589  0.00  0.00    +0.000 C 
BRANCH  18  19
ATOM     19  N   UNL     1       6.252  15.419  18.765  0.00  0.00    +0.000 NA
ATOM     20  C   UNL     1       7.550  15.539  18.097  0.00  0.00    +0.000 C 
ATOM     21  C   UNL     1       6.461  15.166  20.195  0.00  0.00    +0.000 C 
ENDBRANCH  18  19
ENDBRANCH  17  18
ENDBRANCH  13  17
ENDBRANCH   6   9
BRANCH   1  25
ATOM     22  C   UNL     1       4.255   6.009  17.619  0.00  0.00    +0.000 A 
ATOM     23  C   UNL     1       3.858   7.313  17.274  0.00  0.00    +0.000 A 
ATOM     24  C   UNL     1       2.940   8.051  18.038  0.00  0.00    +0.000 A 
ATOM     25  C   UNL     1       2.377   7.524  19.206  0.00  0.00    +0.000 A 
ATOM     26  C   UNL     1       2.757   6.221  19.554  0.00  0.00    +0.000 A 
ATOM     27  C   UNL     1       3.685   5.483  18.796  0.00  0.00    +0.000 A 
BRANCH  22  33
ATOM     28  C   UNL     1       7.317   5.318  17.980  0.00  0.00    +0.000 C 
ATOM     29  C   UNL     1       6.569   5.634  16.684  0.00  0.00    +0.000 C 
ATOM     30  C   UNL     1       7.065   4.722  15.549  0.00  0.00    +0.000 C 
ATOM     31  C   UNL     1       5.825   4.088  14.937  0.00  0.00    +0.000 C 
ATOM     32  C   UNL     1       4.775   4.152  16.028  0.00  0.00    +0.000 C 
ATOM     33  N   UNL     1       5.142   5.322  16.817  0.00  0.00    +0.000 N 
ENDBRANCH  22  33
BRANCH  27  34
ATOM     34  C   UNL     1       4.069   4.218  19.344  0.00  0.00    +0.000 C 
ATOM     35  N   UNL     1       4.357   3.178  19.801  0.00  0.00    +0.000 NA
ENDBRANCH  27  34
ENDBRANCH   1  25
TORSDOF 7
ENDMDL
