MODEL 1
REMARK VINA RESULT:      -7.1      0.000      0.000
REMARK  Name = 
REMARK  19 active torsions:
REMARK  status: ('A' for Active; 'I' for Inactive)
REMARK    1  A    between atoms: O_1  and  C_2
REMARK    2  A    between atoms: C_7  and  C_8
REMARK    3  A    between atoms: C_8  and  N_9
REMARK    4  A    between atoms: N_9  and  C_10
REMARK    5  A    between atoms: C_10  and  C_11
REMARK    6  A    between atoms: C_11  and  C_12
REMARK    7  A    between atoms: C_12  and  N_13
REMARK    8  A    between atoms: N_13  and  C_14
REMARK    9  A    between atoms: C_14  and  C_15
REMARK   10  A    between atoms: C_15  and  C_16
REMARK   11  A    between atoms: C_16  and  C_17
REMARK   12  A    between atoms: C_17  and  N_18
REMARK   13  A    between atoms: N_18  and  C_19
REMARK   14  A    between atoms: C_19  and  C_20
REMARK   15  A    between atoms: C_20  and  C_21
REMARK   16  A    between atoms: C_21  and  N_22
REMARK   17  A    between atoms: N_22  and  C_23
REMARK   18  A    between atoms: C_23  and  C_24
REMARK   19  A    between atoms: C_33  and  O_34
REMARK                            x       y       z     vdW  Elec       q    Type
REMARK                         _______ _______ _______ _____ _____    ______ ____
ROOT
ATOM      1  C   UNL     1       2.417   6.605  19.739  0.00  0.00    +0.000 C 
ENDROOT
BRANCH   1   2
ATOM      2  N   UNL     1       2.102   5.760  20.892  0.00  0.00    +0.000 NA
ATOM      3  H   UNL     1       1.710   6.327  21.643  0.00  0.00    +0.000 HD
BRANCH   2   4
ATOM      4  C   UNL     1       1.150   4.717  20.521  0.00  0.00    +0.000 C 
BRANCH   4   5
ATOM      5  C   UNL     1       1.683   3.360  20.966  0.00  0.00    +0.000 C 
BRANCH   5   6
ATOM      6  C   UNL     1       1.655   2.377  19.800  0.00  0.00    +0.000 C 
BRANCH   6   7
ATOM      7  N   UNL     1       3.014   2.174  19.313  0.00  0.00    +0.000 NA
ATOM      8  H   UNL     1       3.247   1.182  19.354  0.00  0.00    +0.000 HD
BRANCH   7   9
ATOM      9  C   UNL     1       3.153   2.617  17.926  0.00  0.00    +0.000 C 
BRANCH   9  10
ATOM     10  C   UNL     1       4.036   3.842  17.833  0.00  0.00    +0.000 A 
ATOM     11  C   UNL     1       3.742   4.814  16.869  0.00  0.00    +0.000 A 
ATOM     12  C   UNL     1       4.582   5.909  16.682  0.00  0.00    +0.000 A 
ATOM     13  C   UNL     1       5.742   6.064  17.452  0.00  0.00    +0.000 A 
ATOM     14  C   UNL     1       6.613   7.134  17.193  0.00  0.00    +0.000 A 
ATOM     15  C   UNL     1       7.772   7.312  17.944  0.00  0.00    +0.000 A 
ATOM     16  C   UNL     1       8.045   6.454  19.000  0.00  0.00    +0.000 A 
ATOM     17  C   UNL     1       7.183   5.387  19.274  0.00  0.00    +0.000 A 
ATOM     18  C   UNL     1       6.037   5.136  18.479  0.00  0.00    +0.000 A 
ATOM     19  C   UNL     1       5.172   4.020  18.636  0.00  0.00    +0.000 A 
BRANCH  19  20
ATOM     20  O   UNL     1       5.428   3.040  19.566  0.00  0.00    +0.000 OA
ATOM     21  H   UNL     1       6.280   3.236  19.986  0.00  0.00    +0.000 HD
ENDBRANCH  19  20
ENDBRANCH   9  10
ENDBRANCH   7   9
ENDBRANCH   6   7
ENDBRANCH   5   6
ENDBRANCH   4   5
ENDBRANCH   2   4
ENDBRANCH   1   2
BRANCH   1  22
ATOM     22  C   UNL     1       1.833   8.000  19.937  0.00  0.00    +0.000 C 
BRANCH  22  23
ATOM     23  C   UNL     1       1.602   8.288  21.421  0.00  0.00    +0.000 C 
BRANCH  23  24
ATOM     24  C   UNL     1       0.305   9.069  21.613  0.00  0.00    +0.000 C 
BRANCH  24  25
ATOM     25  N   UNL     1       0.475  10.088  22.652  0.00  0.00    +0.000 NA
ATOM     26  H   UNL     1       0.663   9.631  23.543  0.00  0.00    +0.000 HD
BRANCH  25  27
ATOM     27  C   UNL     1      -0.721  10.915  22.749  0.00  0.00    +0.000 C 
BRANCH  27  28
ATOM     28  C   UNL     1      -1.264  11.147  21.344  0.00  0.00    +0.000 C 
BRANCH  28  29
ATOM     29  C   UNL     1      -0.600  12.357  20.695  0.00  0.00    +0.000 C 
BRANCH  29  30
ATOM     30  N   UNL     1      -1.319  12.649  19.463  0.00  0.00    +0.000 NA
ATOM     31  H   UNL     1      -1.431  13.657  19.358  0.00  0.00    +0.000 HD
BRANCH  30  32
ATOM     32  C   UNL     1      -2.646  12.013  19.439  0.00  0.00    +0.000 C 
BRANCH  32  38
ATOM     33  C   UNL     1      -2.084  10.708  17.298  0.00  0.00    +0.000 A 
ATOM     34  C   UNL     1      -2.447  10.248  16.024  0.00  0.00    +0.000 A 
ATOM     35  C   UNL     1      -3.699  10.571  15.490  0.00  0.00    +0.000 A 
ATOM     36  C   UNL     1      -4.587  11.353  16.225  0.00  0.00    +0.000 A 
ATOM     37  C   UNL     1      -4.230  11.804  17.496  0.00  0.00    +0.000 A 
ATOM     38  C   UNL     1      -2.978  11.480  18.061  0.00  0.00    +0.000 A 
BRANCH  33  39
ATOM     39  O   UNL     1      -0.835  10.418  17.794  0.00  0.00    +0.000 OA
ATOM     40  H   UNL     1      -0.720   9.452  17.831  0.00  0.00    +0.000 HD
ENDBRANCH  33  39
ENDBRANCH  32  38
ENDBRANCH  30  32
ENDBRANCH  29  30
ENDBRANCH  28  29
ENDBRANCH  27  28
ENDBRANCH  25  27
ENDBRANCH  24  25
ENDBRANCH  23  24
ENDBRANCH  22  23
ENDBRANCH   1  22
TORSDOF 19
ENDMDL
MODEL 2
REMARK VINA RESULT:      -7.0      1.795      9.608
REMARK  Name = 
REMARK  19 active torsions:
REMARK  status: ('A' for Active; 'I' for Inactive)
REMARK    1  A    between atoms: O_1  and  C_2
REMARK    2  A    between atoms: C_7  and  C_8
REMARK    3  A    between atoms: C_8  and  N_9
REMARK    4  A    between atoms: N_9  and  C_10
REMARK    5  A    between atoms: C_10  and  C_11
REMARK    6  A    between atoms: C_11  and  C_12
REMARK    7  A    between atoms: C_12  and  N_13
REMARK    8  A    between atoms: N_13  and  C_14
REMARK    9  A    between atoms: C_14  and  C_15
REMARK   10  A    between atoms: C_15  and  C_16
REMARK   11  A    between atoms: C_16  and  C_17
REMARK   12  A    between atoms: C_17  and  N_18
REMARK   13  A    between atoms: N_18  and  C_19
REMARK   14  A    between atoms: C_19  and  C_20
REMARK   15  A    between atoms: C_20  and  C_21
REMARK   16  A    between atoms: C_21  and  N_22
REMARK   17  A    between atoms: N_22  and  C_23
REMARK   18  A    between atoms: C_23  and  C_24
REMARK   19  A    between atoms: C_33  and  O_34
REMARK                            x       y       z     vdW  Elec       q    Type
REMARK                         _______ _______ _______ _____ _____    ______ ____
ROOT
ATOM      1  C   UNL     1       2.261   8.032  19.807  0.00  0.00    +0.000 C 
ENDROOT
BRANCH   1   2
ATOM      2  N   UNL     1       0.967   8.454  20.346  0.00  0.00    +0.000 NA
ATOM      3  H   UNL     1       0.249   7.773  20.101  0.00  0.00    +0.000 HD
BRANCH   2   4
ATOM      4  C   UNL     1       1.033   8.592  21.797  0.00  0.00    +0.000 C 
BRANCH   4   5
ATOM      5  C   UNL     1      -0.302   9.107  22.322  0.00  0.00    +0.000 C 
BRANCH   5   6
ATOM      6  C   UNL     1      -0.296  10.631  22.369  0.00  0.00    +0.000 C 
BRANCH   6   7
ATOM      7  N   UNL     1       0.905  11.125  21.707  0.00  0.00    +0.000 NA
ATOM      8  H   UNL     1       1.268  10.409  21.078  0.00  0.00    +0.000 HD
BRANCH   7   9
ATOM      9  C   UNL     1       0.621  12.323  20.915  0.00  0.00    +0.000 C 
BRANCH   9  10
ATOM     10  C   UNL     1      -0.623  12.136  20.075  0.00  0.00    +0.000 A 
ATOM     11  C   UNL     1      -1.828  12.692  20.521  0.00  0.00    +0.000 A 
ATOM     12  C   UNL     1      -3.016  12.464  19.830  0.00  0.00    +0.000 A 
ATOM     13  C   UNL     1      -3.035  11.672  18.675  0.00  0.00    +0.000 A 
ATOM     14  C   UNL     1      -4.255  11.393  18.040  0.00  0.00    +0.000 A 
ATOM     15  C   UNL     1      -4.303  10.609  16.890  0.00  0.00    +0.000 A 
ATOM     16  C   UNL     1      -3.123  10.141  16.329  0.00  0.00    +0.000 A 
ATOM     17  C   UNL     1      -1.898  10.417  16.946  0.00  0.00    +0.000 A 
ATOM     18  C   UNL     1      -1.827  11.147  18.159  0.00  0.00    +0.000 A 
ATOM     19  C   UNL     1      -0.632  11.381  18.892  0.00  0.00    +0.000 A 
BRANCH  19  20
ATOM     20  O   UNL     1       0.571  10.848  18.493  0.00  0.00    +0.000 OA
ATOM     21  H   UNL     1       1.277  11.450  18.776  0.00  0.00    +0.000 HD
ENDBRANCH  19  20
ENDBRANCH   9  10
ENDBRANCH   7   9
ENDBRANCH   6   7
ENDBRANCH   5   6
ENDBRANCH   4   5
ENDBRANCH   2   4
ENDBRANCH   1   2
BRANCH   1  22
ATOM     22  C   UNL     1       2.079   7.439  18.414  0.00  0.00    +0.000 C 
BRANCH  22  23
ATOM     23  C   UNL     1       3.238   6.503  18.065  0.00  0.00    +0.000 C 
BRANCH  23  24
ATOM     24  C   UNL     1       4.109   7.122  16.976  0.00  0.00    +0.000 C 
BRANCH  24  25
ATOM     25  N   UNL     1       5.486   6.633  17.088  0.00  0.00    +0.000 NA
ATOM     26  H   UNL     1       6.105   7.417  17.288  0.00  0.00    +0.000 HD
BRANCH  25  27
ATOM     27  C   UNL     1       5.888   5.970  15.855  0.00  0.00    +0.000 C 
BRANCH  27  28
ATOM     28  C   UNL     1       6.566   4.653  16.213  0.00  0.00    +0.000 C 
BRANCH  28  29
ATOM     29  C   UNL     1       5.562   3.504  16.206  0.00  0.00    +0.000 C 
BRANCH  29  30
ATOM     30  N   UNL     1       4.980   3.418  17.539  0.00  0.00    +0.000 NA
ATOM     31  H   UNL     1       5.623   2.940  18.167  0.00  0.00    +0.000 HD
BRANCH  30  32
ATOM     32  C   UNL     1       3.694   2.701  17.529  0.00  0.00    +0.000 C 
BRANCH  32  38
ATOM     33  C   UNL     1       3.622   2.572  20.094  0.00  0.00    +0.000 A 
ATOM     34  C   UNL     1       2.912   2.690  21.298  0.00  0.00    +0.000 A 
ATOM     35  C   UNL     1       1.556   3.035  21.284  0.00  0.00    +0.000 A 
ATOM     36  C   UNL     1       0.909   3.260  20.071  0.00  0.00    +0.000 A 
ATOM     37  C   UNL     1       1.616   3.151  18.874  0.00  0.00    +0.000 A 
ATOM     38  C   UNL     1       2.987   2.818  18.864  0.00  0.00    +0.000 A 
BRANCH  33  39
ATOM     39  O   UNL     1       4.943   2.193  20.120  0.00  0.00    +0.000 OA
ATOM     40  H   UNL     1       5.136   1.760  20.970  0.00  0.00    +0.000 HD
ENDBRANCH  33  39
ENDBRANCH  32  38
ENDBRANCH  30  32
ENDBRANCH  29  30
ENDBRANCH  28  29
ENDBRANCH  27  28
ENDBRANCH  25  27
ENDBRANCH  24  25
ENDBRANCH  23  24
ENDBRANCH  22  23
ENDBRANCH   1  22
TORSDOF 19
ENDMDL
MODEL 3
REMARK VINA RESULT:      -6.8      3.489      5.375
REMARK  Name = 
REMARK  19 active torsions:
REMARK  status: ('A' for Active; 'I' for Inactive)
REMARK    1  A    between atoms: O_1  and  C_2
REMARK    2  A    between atoms: C_7  and  C_8
REMARK    3  A    between atoms: C_8  and  N_9
REMARK    4  A    between atoms: N_9  and  C_10
REMARK    5  A    between atoms: C_10  and  C_11
REMARK    6  A    between atoms: C_11  and  C_12
REMARK    7  A    between atoms: C_12  and  N_13
REMARK    8  A    between atoms: N_13  and  C_14
REMARK    9  A    between atoms: C_14  and  C_15
REMARK   10  A    between atoms: C_15  and  C_16
REMARK   11  A    between atoms: C_16  and  C_17
REMARK   12  A    between atoms: C_17  and  N_18
REMARK   13  A    between atoms: N_18  and  C_19
REMARK   14  A    between atoms: C_19  and  C_20
REMARK   15  A    between atoms: C_20  and  C_21
REMARK   16  A    between atoms: C_21  and  N_22
REMARK   17  A    between atoms: N_22  and  C_23
REMARK   18  A    between atoms: C_23  and  C_24
REMARK   19  A    between atoms: C_33  and  O_34
REMARK                            x       y       z     vdW  Elec       q    Type
REMARK                         _______ _______ _______ _____ _____    ______ ____
ROOT
ATOM      1  C   UNL     1       2.854   6.806  18.944  0.00  0.00    +0.000 C 
ENDROOT
BRANCH   1   2
ATOM      2  N   UNL     1       4.209   6.480  18.495  0.00  0.00    +0.000 NA
ATOM      3  H   UNL     1       4.327   5.469  18.448  0.00  0.00    +0.000 HD
BRANCH   2   4
ATOM      4  C   UNL     1       4.469   7.062  17.182  0.00  0.00    +0.000 C 
BRANCH   4   5
ATOM      5  C   UNL     1       5.964   7.007  16.887  0.00  0.00    +0.000 C 
BRANCH   5   6
ATOM      6  C   UNL     1       6.293   5.758  16.078  0.00  0.00    +0.000 C 
BRANCH   6   7
ATOM      7  N   UNL     1       6.203   4.589  16.944  0.00  0.00    +0.000 NA
ATOM      8  H   UNL     1       5.876   4.872  17.867  0.00  0.00    +0.000 HD
BRANCH   7   9
ATOM      9  C   UNL     1       5.263   3.603  16.410  0.00  0.00    +0.000 C 
BRANCH   9  10
ATOM     10  C   UNL     1       4.101   3.392  17.357  0.00  0.00    +0.000 A 
ATOM     11  C   UNL     1       2.797   3.508  16.860  0.00  0.00    +0.000 A 
ATOM     12  C   UNL     1       1.700   3.418  17.713  0.00  0.00    +0.000 A 
ATOM     13  C   UNL     1       1.874   3.211  19.088  0.00  0.00    +0.000 A 
ATOM     14  C   UNL     1       0.757   3.200  19.938  0.00  0.00    +0.000 A 
ATOM     15  C   UNL     1       0.901   2.995  21.308  0.00  0.00    +0.000 A 
ATOM     16  C   UNL     1       2.160   2.743  21.836  0.00  0.00    +0.000 A 
ATOM     17  C   UNL     1       3.281   2.743  21.000  0.00  0.00    +0.000 A 
ATOM     18  C   UNL     1       3.173   3.024  19.615  0.00  0.00    +0.000 A 
ATOM     19  C   UNL     1       4.276   3.138  18.725  0.00  0.00    +0.000 A 
BRANCH  19  20
ATOM     20  O   UNL     1       5.572   3.037  19.172  0.00  0.00    +0.000 OA
ATOM     21  H   UNL     1       6.036   3.857  18.942  0.00  0.00    +0.000 HD
ENDBRANCH  19  20
ENDBRANCH   9  10
ENDBRANCH   7   9
ENDBRANCH   6   7
ENDBRANCH   5   6
ENDBRANCH   4   5
ENDBRANCH   2   4
ENDBRANCH   1   2
BRANCH   1  22
ATOM     22  C   UNL     1       2.292   7.958  18.118  0.00  0.00    +0.000 C 
BRANCH  22  23
ATOM     23  C   UNL     1       1.525   8.941  19.004  0.00  0.00    +0.000 C 
BRANCH  23  24
ATOM     24  C   UNL     1       0.896  10.041  18.154  0.00  0.00    +0.000 C 
BRANCH  24  25
ATOM     25  N   UNL     1       1.776  11.212  18.107  0.00  0.00    +0.000 NA
ATOM     26  H   UNL     1       2.731  10.922  18.312  0.00  0.00    +0.000 HD
BRANCH  25  27
ATOM     27  C   UNL     1       1.334  12.216  19.066  0.00  0.00    +0.000 C 
BRANCH  27  28
ATOM     28  C   UNL     1       0.016  12.805  18.576  0.00  0.00    +0.000 C 
BRANCH  28  29
ATOM     29  C   UNL     1      -0.777  13.405  19.733  0.00  0.00    +0.000 C 
BRANCH  29  30
ATOM     30  N   UNL     1      -1.047  14.799  19.409  0.00  0.00    +0.000 NA
ATOM     31  H   UNL     1      -1.315  14.879  18.429  0.00  0.00    +0.000 HD
BRANCH  30  32
ATOM     32  C   UNL     1       0.122  15.657  19.661  0.00  0.00    +0.000 C 
BRANCH  32  38
ATOM     33  C   UNL     1      -0.793  17.520  18.147  0.00  0.00    +0.000 A 
ATOM     34  C   UNL     1      -0.593  18.479  17.144  0.00  0.00    +0.000 A 
ATOM     35  C   UNL     1       0.668  18.631  16.557  0.00  0.00    +0.000 A 
ATOM     36  C   UNL     1       1.727  17.825  16.968  0.00  0.00    +0.000 A 
ATOM     37  C   UNL     1       1.531  16.876  17.972  0.00  0.00    +0.000 A 
ATOM     38  C   UNL     1       0.272  16.715  18.588  0.00  0.00    +0.000 A 
BRANCH  33  39
ATOM     39  O   UNL     1      -2.047  17.354  18.687  0.00  0.00    +0.000 OA
ATOM     40  H   UNL     1      -2.494  18.216  18.731  0.00  0.00    +0.000 HD
ENDBRANCH  33  39
ENDBRANCH  32  38
ENDBRANCH  30  32
ENDBRANCH  29  30
ENDBRANCH  28  29
ENDBRANCH  27  28
ENDBRANCH  25  27
ENDBRANCH  24  25
ENDBRANCH  23  24
ENDBRANCH  22  23
ENDBRANCH   1  22
TORSDOF 19
ENDMDL
MODEL 4
REMARK VINA RESULT:      -6.7      5.966      8.841
REMARK  Name = 
REMARK  19 active torsions:
REMARK  status: ('A' for Active; 'I' for Inactive)
REMARK    1  A    between atoms: O_1  and  C_2
REMARK    2  A    between atoms: C_7  and  C_8
REMARK    3  A    between atoms: C_8  and  N_9
REMARK    4  A    between atoms: N_9  and  C_10
REMARK    5  A    between atoms: C_10  and  C_11
REMARK    6  A    between atoms: C_11  and  C_12
REMARK    7  A    between atoms: C_12  and  N_13
REMARK    8  A    between atoms: N_13  and  C_14
REMARK    9  A    between atoms: C_14  and  C_15
REMARK   10  A    between atoms: C_15  and  C_16
REMARK   11  A    between atoms: C_16  and  C_17
REMARK   12  A    between atoms: C_17  and  N_18
REMARK   13  A    between atoms: N_18  and  C_19
REMARK   14  A    between atoms: C_19  and  C_20
REMARK   15  A    between atoms: C_20  and  C_21
REMARK   16  A    between atoms: C_21  and  N_22
REMARK   17  A    between atoms: N_22  and  C_23
REMARK   18  A    between atoms: C_23  and  C_24
REMARK   19  A    between atoms: C_33  and  O_34
REMARK                            x       y       z     vdW  Elec       q    Type
REMARK                         _______ _______ _______ _____ _____    ______ ____
ROOT
ATOM      1  C   UNL     1       8.192   9.907  18.238  0.00  0.00    +0.000 C 
ENDROOT
BRANCH   1   2
ATOM      2  N   UNL     1       7.994   8.600  17.610  0.00  0.00    +0.000 NA
ATOM      3  H   UNL     1       8.605   8.507  16.799  0.00  0.00    +0.000 HD
BRANCH   2   4
ATOM      4  C   UNL     1       8.273   7.526  18.558  0.00  0.00    +0.000 C 
BRANCH   4   5
ATOM      5  C   UNL     1       7.360   6.341  18.267  0.00  0.00    +0.000 C 
BRANCH   5   6
ATOM      6  C   UNL     1       7.280   6.095  16.764  0.00  0.00    +0.000 C 
BRANCH   6   7
ATOM      7  N   UNL     1       5.942   6.433  16.294  0.00  0.00    +0.000 NA
ATOM      8  H   UNL     1       6.007   6.936  15.410  0.00  0.00    +0.000 HD
BRANCH   7   9
ATOM      9  C   UNL     1       5.137   5.231  16.076  0.00  0.00    +0.000 C 
BRANCH   9  10
ATOM     10  C   UNL     1       4.110   5.058  17.174  0.00  0.00    +0.000 A 
ATOM     11  C   UNL     1       3.471   6.194  17.684  0.00  0.00    +0.000 A 
ATOM     12  C   UNL     1       2.592   6.093  18.760  0.00  0.00    +0.000 A 
ATOM     13  C   UNL     1       2.329   4.855  19.359  0.00  0.00    +0.000 A 
ATOM     14  C   UNL     1       1.500   4.790  20.490  0.00  0.00    +0.000 A 
ATOM     15  C   UNL     1       1.221   3.572  21.104  0.00  0.00    +0.000 A 
ATOM     16  C   UNL     1       1.723   2.397  20.561  0.00  0.00    +0.000 A 
ATOM     17  C   UNL     1       2.544   2.446  19.430  0.00  0.00    +0.000 A 
ATOM     18  C   UNL     1       2.907   3.677  18.830  0.00  0.00    +0.000 A 
ATOM     19  C   UNL     1       3.812   3.811  17.743  0.00  0.00    +0.000 A 
BRANCH  19  20
ATOM     20  O   UNL     1       4.467   2.722  17.216  0.00  0.00    +0.000 OA
ATOM     21  H   UNL     1       3.877   2.294  16.576  0.00  0.00    +0.000 HD
ENDBRANCH  19  20
ENDBRANCH   9  10
ENDBRANCH   7   9
ENDBRANCH   6   7
ENDBRANCH   5   6
ENDBRANCH   4   5
ENDBRANCH   2   4
ENDBRANCH   1   2
BRANCH   1  22
ATOM     22  C   UNL     1       9.608  10.010  18.797  0.00  0.00    +0.000 C 
BRANCH  22  23
ATOM     23  C   UNL     1       9.871  11.406  19.363  0.00  0.00    +0.000 C 
BRANCH  23  24
ATOM     24  C   UNL     1      11.240  11.910  18.914  0.00  0.00    +0.000 C 
BRANCH  24  25
ATOM     25  N   UNL     1      11.290  12.010  17.453  0.00  0.00    +0.000 NA
ATOM     26  H   UNL     1      11.859  11.251  17.083  0.00  0.00    +0.000 HD
BRANCH  25  27
ATOM     27  C   UNL     1      11.841  13.298  17.053  0.00  0.00    +0.000 C 
BRANCH  27  28
ATOM     28  C   UNL     1      11.452  14.337  18.099  0.00  0.00    +0.000 C 
BRANCH  28  29
ATOM     29  C   UNL     1      11.035  15.647  17.438  0.00  0.00    +0.000 C 
BRANCH  29  30
ATOM     30  N   UNL     1       9.644  15.513  17.028  0.00  0.00    +0.000 NA
ATOM     31  H   UNL     1       9.227  16.435  16.912  0.00  0.00    +0.000 HD
BRANCH  30  32
ATOM     32  C   UNL     1       8.856  14.747  18.007  0.00  0.00    +0.000 C 
BRANCH  32  38
ATOM     33  C   UNL     1       7.235  16.598  18.748  0.00  0.00    +0.000 A 
ATOM     34  C   UNL     1       5.927  17.086  18.887  0.00  0.00    +0.000 A 
ATOM     35  C   UNL     1       4.840  16.306  18.478  0.00  0.00    +0.000 A 
ATOM     36  C   UNL     1       5.056  15.043  17.933  0.00  0.00    +0.000 A 
ATOM     37  C   UNL     1       6.357  14.561  17.787  0.00  0.00    +0.000 A 
ATOM     38  C   UNL     1       7.470  15.334  18.180  0.00  0.00    +0.000 A 
BRANCH  33  39
ATOM     39  O   UNL     1       8.292  17.357  19.192  0.00  0.00    +0.000 OA
ATOM     40  H   UNL     1       8.930  16.784  19.651  0.00  0.00    +0.000 HD
ENDBRANCH  33  39
ENDBRANCH  32  38
ENDBRANCH  30  32
ENDBRANCH  29  30
ENDBRANCH  28  29
ENDBRANCH  27  28
ENDBRANCH  25  27
ENDBRANCH  24  25
ENDBRANCH  23  24
ENDBRANCH  22  23
ENDBRANCH   1  22
TORSDOF 19
ENDMDL
MODEL 5
REMARK VINA RESULT:      -6.7      6.095     10.659
REMARK  Name = 
REMARK  19 active torsions:
REMARK  status: ('A' for Active; 'I' for Inactive)
REMARK    1  A    between atoms: O_1  and  C_2
REMARK    2  A    between atoms: C_7  and  C_8
REMARK    3  A    between atoms: C_8  and  N_9
REMARK    4  A    between atoms: N_9  and  C_10
REMARK    5  A    between atoms: C_10  and  C_11
REMARK    6  A    between atoms: C_11  and  C_12
REMARK    7  A    between atoms: C_12  and  N_13
REMARK    8  A    between atoms: N_13  and  C_14
REMARK    9  A    between atoms: C_14  and  C_15
REMARK   10  A    between atoms: C_15  and  C_16
REMARK   11  A    between atoms: C_16  and  C_17
REMARK   12  A    between atoms: C_17  and  N_18
REMARK   13  A    between atoms: N_18  and  C_19
REMARK   14  A    between atoms: C_19  and  C_20
REMARK   15  A    between atoms: C_20  and  C_21
REMARK   16  A    between atoms: C_21  and  N_22
REMARK   17  A    between atoms: N_22  and  C_23
REMARK   18  A    between atoms: C_23  and  C_24
REMARK   19  A    between atoms: C_33  and  O_34
REMARK                            x       y       z     vdW  Elec       q    Type
REMARK                         _______ _______ _______ _____ _____    ______ ____
ROOT
ATOM      1  C   UNL     1       8.505  10.393  17.982  0.00  0.00    +0.000 C 
ENDROOT
BRANCH   1   2
ATOM      2  N   UNL     1       9.135  11.352  18.891  0.00  0.00    +0.000 NA
ATOM      3  H   UNL     1       8.721  11.277  19.819  0.00  0.00    +0.000 HD
BRANCH   2   4
ATOM      4  C   UNL     1      10.572  11.110  18.977  0.00  0.00    +0.000 C 
BRANCH   4   5
ATOM      5  C   UNL     1      11.307  12.442  19.081  0.00  0.00    +0.000 C 
BRANCH   5   6
ATOM      6  C   UNL     1      10.395  13.580  18.637  0.00  0.00    +0.000 C 
BRANCH   6   7
ATOM      7  N   UNL     1       9.624  14.050  19.782  0.00  0.00    +0.000 NA
ATOM      8  H   UNL     1       8.839  13.420  19.947  0.00  0.00    +0.000 HD
BRANCH   7   9
ATOM      9  C   UNL     1      10.442  14.087  20.994  0.00  0.00    +0.000 C 
BRANCH   9  10
ATOM     10  C   UNL     1       9.578  14.011  22.235  0.00  0.00    +0.000 A 
ATOM     11  C   UNL     1       9.424  15.160  23.020  0.00  0.00    +0.000 A 
ATOM     12  C   UNL     1       8.720  15.113  24.220  0.00  0.00    +0.000 A 
ATOM     13  C   UNL     1       8.149  13.916  24.672  0.00  0.00    +0.000 A 
ATOM     14  C   UNL     1       7.510  13.876  25.921  0.00  0.00    +0.000 A 
ATOM     15  C   UNL     1       6.934  12.699  26.394  0.00  0.00    +0.000 A 
ATOM     16  C   UNL     1       6.942  11.562  25.597  0.00  0.00    +0.000 A 
ATOM     17  C   UNL     1       7.569  11.589  24.347  0.00  0.00    +0.000 A 
ATOM     18  C   UNL     1       8.230  12.750  23.874  0.00  0.00    +0.000 A 
ATOM     19  C   UNL     1       8.969  12.822  22.662  0.00  0.00    +0.000 A 
BRANCH  19  20
ATOM     20  O   UNL     1       9.150  11.717  21.865  0.00  0.00    +0.000 OA
ATOM     21  H   UNL     1       8.434  11.089  22.051  0.00  0.00    +0.000 HD
ENDBRANCH  19  20
ENDBRANCH   9  10
ENDBRANCH   7   9
ENDBRANCH   6   7
ENDBRANCH   5   6
ENDBRANCH   4   5
ENDBRANCH   2   4
ENDBRANCH   1   2
BRANCH   1  22
ATOM     22  C   UNL     1       8.624   8.981  18.546  0.00  0.00    +0.000 C 
BRANCH  22  23
ATOM     23  C   UNL     1       7.887   7.976  17.659  0.00  0.00    +0.000 C 
BRANCH  23  24
ATOM     24  C   UNL     1       7.782   6.626  18.363  0.00  0.00    +0.000 C 
BRANCH  24  25
ATOM     25  N   UNL     1       6.600   5.899  17.893  0.00  0.00    +0.000 NA
ATOM     26  H   UNL     1       6.753   4.898  18.010  0.00  0.00    +0.000 HD
BRANCH  25  27
ATOM     27  C   UNL     1       6.338   6.211  16.494  0.00  0.00    +0.000 C 
BRANCH  27  28
ATOM     28  C   UNL     1       5.180   5.343  16.014  0.00  0.00    +0.000 C 
BRANCH  28  29
ATOM     29  C   UNL     1       5.548   3.863  16.073  0.00  0.00    +0.000 C 
BRANCH  29  30
ATOM     30  N   UNL     1       4.800   3.265  17.171  0.00  0.00    +0.000 NA
ATOM     31  H   UNL     1       4.652   2.274  16.988  0.00  0.00    +0.000 HD
BRANCH  30  32
ATOM     32  C   UNL     1       3.495   3.918  17.365  0.00  0.00    +0.000 C 
BRANCH  32  38
ATOM     33  C   UNL     1       3.624   3.028  19.771  0.00  0.00    +0.000 A 
ATOM     34  C   UNL     1       2.994   2.682  20.975  0.00  0.00    +0.000 A 
ATOM     35  C   UNL     1       1.607   2.817  21.107  0.00  0.00    +0.000 A 
ATOM     36  C   UNL     1       0.851   3.295  20.039  0.00  0.00    +0.000 A 
ATOM     37  C   UNL     1       1.479   3.647  18.844  0.00  0.00    +0.000 A 
ATOM     38  C   UNL     1       2.877   3.532  18.693  0.00  0.00    +0.000 A 
BRANCH  33  39
ATOM     39  O   UNL     1       4.982   2.852  19.642  0.00  0.00    +0.000 OA
ATOM     40  H   UNL     1       5.443   3.447  20.259  0.00  0.00    +0.000 HD
ENDBRANCH  33  39
ENDBRANCH  32  38
ENDBRANCH  30  32
ENDBRANCH  29  30
ENDBRANCH  28  29
ENDBRANCH  27  28
ENDBRANCH  25  27
ENDBRANCH  24  25
ENDBRANCH  23  24
ENDBRANCH  22  23
ENDBRANCH   1  22
TORSDOF 19
ENDMDL
MODEL 6
REMARK VINA RESULT:      -6.6      3.611      5.517
REMARK  Name = 
REMARK  19 active torsions:
REMARK  status: ('A' for Active; 'I' for Inactive)
REMARK    1  A    between atoms: O_1  and  C_2
REMARK    2  A    between atoms: C_7  and  C_8
REMARK    3  A    between atoms: C_8  and  N_9
REMARK    4  A    between atoms: N_9  and  C_10
REMARK    5  A    between atoms: C_10  and  C_11
REMARK    6  A    between atoms: C_11  and  C_12
REMARK    7  A    between atoms: C_12  and  N_13
REMARK    8  A    between atoms: N_13  and  C_14
REMARK    9  A    between atoms: C_14  and  C_15
REMARK   10  A    between atoms: C_15  and  C_16
REMARK   11  A    between atoms: C_16  and  C_17
REMARK   12  A    between atoms: C_17  and  N_18
REMARK   13  A    between atoms: N_18  and  C_19
REMARK   14  A    between atoms: C_19  and  C_20
REMARK   15  A    between atoms: C_20  and  C_21
REMARK   16  A    between atoms: C_21  and  N_22
REMARK   17  A    between atoms: N_22  and  C_23
REMARK   18  A    between atoms: C_23  and  C_24
REMARK   19  A    between atoms: C_33  and  O_34
REMARK                            x       y       z     vdW  Elec       q    Type
REMARK                         _______ _______ _______ _____ _____    ______ ____
ROOT
ATOM      1  C   UNL     1       4.070   7.278  17.054  0.00  0.00    +0.000 C 
ENDROOT
BRANCH   1   2
ATOM      2  N   UNL     1       5.147   6.723  17.876  0.00  0.00    +0.000 NA
ATOM      3  H   UNL     1       5.140   5.706  17.819  0.00  0.00    +0.000 HD
BRANCH   2   4
ATOM      4  C   UNL     1       6.443   7.228  17.434  0.00  0.00    +0.000 C 
BRANCH   4   5
ATOM      5  C   UNL     1       7.459   6.092  17.432  0.00  0.00    +0.000 C 
BRANCH   5   6
ATOM      6  C   UNL     1       7.085   5.054  16.380  0.00  0.00    +0.000 C 
BRANCH   6   7
ATOM      7  N   UNL     1       6.399   3.942  17.026  0.00  0.00    +0.000 NA
ATOM      8  H   UNL     1       6.194   4.184  17.995  0.00  0.00    +0.000 HD
BRANCH   7   9
ATOM      9  C   UNL     1       5.134   3.637  16.357  0.00  0.00    +0.000 C 
BRANCH   9  10
ATOM     10  C   UNL     1       4.029   3.402  17.364  0.00  0.00    +0.000 A 
ATOM     11  C   UNL     1       2.699   3.487  16.936  0.00  0.00    +0.000 A 
ATOM     12  C   UNL     1       1.651   3.375  17.846  0.00  0.00    +0.000 A 
ATOM     13  C   UNL     1       1.901   3.176  19.210  0.00  0.00    +0.000 A 
ATOM     14  C   UNL     1       0.831   3.143  20.118  0.00  0.00    +0.000 A 
ATOM     15  C   UNL     1       1.052   2.946  21.479  0.00  0.00    +0.000 A 
ATOM     16  C   UNL     1       2.342   2.724  21.941  0.00  0.00    +0.000 A 
ATOM     17  C   UNL     1       3.417   2.746  21.047  0.00  0.00    +0.000 A 
ATOM     18  C   UNL     1       3.230   3.021  19.669  0.00  0.00    +0.000 A 
ATOM     19  C   UNL     1       4.281   3.156  18.722  0.00  0.00    +0.000 A 
BRANCH  19  20
ATOM     20  O   UNL     1       5.601   3.086  19.100  0.00  0.00    +0.000 OA
ATOM     21  H   UNL     1       5.932   2.200  18.883  0.00  0.00    +0.000 HD
ENDBRANCH  19  20
ENDBRANCH   9  10
ENDBRANCH   7   9
ENDBRANCH   6   7
ENDBRANCH   5   6
ENDBRANCH   4   5
ENDBRANCH   2   4
ENDBRANCH   1   2
BRANCH   1  22
ATOM     22  C   UNL     1       2.880   7.650  17.934  0.00  0.00    +0.000 C 
BRANCH  22  23
ATOM     23  C   UNL     1       2.509   9.123  17.755  0.00  0.00    +0.000 C 
BRANCH  23  24
ATOM     24  C   UNL     1       1.073   9.366  18.209  0.00  0.00    +0.000 C 
BRANCH  24  25
ATOM     25  N   UNL     1       1.045  10.337  19.306  0.00  0.00    +0.000 NA
ATOM     26  H   UNL     1       0.408  10.006  20.030  0.00  0.00    +0.000 HD
BRANCH  25  27
ATOM     27  C   UNL     1       0.621  11.642  18.815  0.00  0.00    +0.000 C 
BRANCH  27  28
ATOM     28  C   UNL     1       1.625  12.686  19.289  0.00  0.00    +0.000 C 
BRANCH  28  29
ATOM     29  C   UNL     1       2.737  12.878  18.262  0.00  0.00    +0.000 C 
BRANCH  29  30
ATOM     30  N   UNL     1       2.744  14.283  17.875  0.00  0.00    +0.000 NA
ATOM     31  H   UNL     1       3.696  14.578  17.666  0.00  0.00    +0.000 HD
BRANCH  30  32
ATOM     32  C   UNL     1       2.194  15.145  18.934  0.00  0.00    +0.000 C 
BRANCH  32  38
ATOM     33  C   UNL     1       1.853  17.315  17.602  0.00  0.00    +0.000 A 
ATOM     34  C   UNL     1       1.005  18.311  17.096  0.00  0.00    +0.000 A 
ATOM     35  C   UNL     1      -0.370  18.262  17.354  0.00  0.00    +0.000 A 
ATOM     36  C   UNL     1      -0.897  17.222  18.117  0.00  0.00    +0.000 A 
ATOM     37  C   UNL     1      -0.054  16.227  18.613  0.00  0.00    +0.000 A 
ATOM     38  C   UNL     1       1.332  16.248  18.354  0.00  0.00    +0.000 A 
BRANCH  33  39
ATOM     39  O   UNL     1       3.206  17.398  17.375  0.00  0.00    +0.000 OA
ATOM     40  H   UNL     1       3.468  18.334  17.333  0.00  0.00    +0.000 HD
ENDBRANCH  33  39
ENDBRANCH  32  38
ENDBRANCH  30  32
ENDBRANCH  29  30
ENDBRANCH  28  29
ENDBRANCH  27  28
ENDBRANCH  25  27
ENDBRANCH  24  25
ENDBRANCH  23  24
ENDBRANCH  22  23
ENDBRANCH   1  22
TORSDOF 19
ENDMDL
MODEL 7
REMARK VINA RESULT:      -6.6      4.621      8.178
REMARK  Name = 
REMARK  19 active torsions:
REMARK  status: ('A' for Active; 'I' for Inactive)
REMARK    1  A    between atoms: O_1  and  C_2
REMARK    2  A    between atoms: C_7  and  C_8
REMARK    3  A    between atoms: C_8  and  N_9
REMARK    4  A    between atoms: N_9  and  C_10
REMARK    5  A    between atoms: C_10  and  C_11
REMARK    6  A    between atoms: C_11  and  C_12
REMARK    7  A    between atoms: C_12  and  N_13
REMARK    8  A    between atoms: N_13  and  C_14
REMARK    9  A    between atoms: C_14  and  C_15
REMARK   10  A    between atoms: C_15  and  C_16
REMARK   11  A    between atoms: C_16  and  C_17
REMARK   12  A    between atoms: C_17  and  N_18
REMARK   13  A    between atoms: N_18  and  C_19
REMARK   14  A    between atoms: C_19  and  C_20
REMARK   15  A    between atoms: C_20  and  C_21
REMARK   16  A    between atoms: C_21  and  N_22
REMARK   17  A    between atoms: N_22  and  C_23
REMARK   18  A    between atoms: C_23  and  C_24
REMARK   19  A    between atoms: C_33  and  O_34
REMARK                            x       y       z     vdW  Elec       q    Type
REMARK                         _______ _______ _______ _____ _____    ______ ____
ROOT
ATOM      1  C   UNL     1       6.997   4.437  16.468  0.00  0.00    +0.000 C 
ENDROOT
BRANCH   1   2
ATOM      2  N   UNL     1       7.319   5.841  16.210  0.00  0.00    +0.000 NA
ATOM      3  H   UNL     1       7.593   5.963  15.236  0.00  0.00    +0.000 HD
BRANCH   2   4
ATOM      4  C   UNL     1       6.171   6.694  16.505  0.00  0.00    +0.000 C 
BRANCH   4   5
ATOM      5  C   UNL     1       6.553   7.709  17.576  0.00  0.00    +0.000 C 
BRANCH   5   6
ATOM      6  C   UNL     1       8.065   7.719  17.776  0.00  0.00    +0.000 C 
BRANCH   6   7
ATOM      7  N   UNL     1       8.439   8.903  18.539  0.00  0.00    +0.000 NA
ATOM      8  H   UNL     1       9.433   8.863  18.766  0.00  0.00    +0.000 HD
BRANCH   7   9
ATOM      9  C   UNL     1       8.195  10.127  17.775  0.00  0.00    +0.000 C 
BRANCH   9  10
ATOM     10  C   UNL     1       9.109  11.243  18.230  0.00  0.00    +0.000 A 
ATOM     11  C   UNL     1      10.153  10.941  19.113  0.00  0.00    +0.000 A 
ATOM     12  C   UNL     1      10.959  11.951  19.633  0.00  0.00    +0.000 A 
ATOM     13  C   UNL     1      10.744  13.292  19.289  0.00  0.00    +0.000 A 
ATOM     14  C   UNL     1      11.520  14.298  19.886  0.00  0.00    +0.000 A 
ATOM     15  C   UNL     1      11.327  15.638  19.561  0.00  0.00    +0.000 A 
ATOM     16  C   UNL     1      10.394  15.983  18.593  0.00  0.00    +0.000 A 
ATOM     17  C   UNL     1       9.619  14.991  17.984  0.00  0.00    +0.000 A 
ATOM     18  C   UNL     1       9.740  13.627  18.351  0.00  0.00    +0.000 A 
ATOM     19  C   UNL     1       8.922  12.580  17.848  0.00  0.00    +0.000 A 
BRANCH  19  20
ATOM     20  O   UNL     1       7.882  12.833  16.985  0.00  0.00    +0.000 OA
ATOM     21  H   UNL     1       8.038  12.333  16.168  0.00  0.00    +0.000 HD
ENDBRANCH  19  20
ENDBRANCH   9  10
ENDBRANCH   7   9
ENDBRANCH   6   7
ENDBRANCH   5   6
ENDBRANCH   4   5
ENDBRANCH   2   4
ENDBRANCH   1   2
BRANCH   1  22
ATOM     22  C   UNL     1       5.485   4.251  16.541  0.00  0.00    +0.000 C 
BRANCH  22  23
ATOM     23  C   UNL     1       5.059   3.785  17.933  0.00  0.00    +0.000 C 
BRANCH  23  24
ATOM     24  C   UNL     1       3.716   3.064  17.863  0.00  0.00    +0.000 C 
BRANCH  24  25
ATOM     25  N   UNL     1       3.352   2.537  19.180  0.00  0.00    +0.000 NA
ATOM     26  H   UNL     1       3.997   1.789  19.433  0.00  0.00    +0.000 HD
BRANCH  25  27
ATOM     27  C   UNL     1       1.982   2.042  19.166  0.00  0.00    +0.000 C 
BRANCH  27  28
ATOM     28  C   UNL     1       1.035   3.237  19.175  0.00  0.00    +0.000 C 
BRANCH  28  29
ATOM     29  C   UNL     1       1.139   4.005  20.488  0.00  0.00    +0.000 C 
BRANCH  29  30
ATOM     30  N   UNL     1       2.241   4.950  20.362  0.00  0.00    +0.000 NA
ATOM     31  H   UNL     1       3.066   4.584  20.835  0.00  0.00    +0.000 HD
BRANCH  30  32
ATOM     32  C   UNL     1       1.903   6.264  20.932  0.00  0.00    +0.000 C 
BRANCH  32  38
ATOM     33  C   UNL     1       1.297   8.587  20.017  0.00  0.00    +0.000 A 
ATOM     34  C   UNL     1       1.376   9.554  19.004  0.00  0.00    +0.000 A 
ATOM     35  C   UNL     1       2.094   9.287  17.833  0.00  0.00    +0.000 A 
ATOM     36  C   UNL     1       2.731   8.059  17.673  0.00  0.00    +0.000 A 
ATOM     37  C   UNL     1       2.660   7.101  18.684  0.00  0.00    +0.000 A 
ATOM     38  C   UNL     1       1.953   7.352  19.879  0.00  0.00    +0.000 A 
BRANCH  33  39
ATOM     39  O   UNL     1       0.554   8.847  21.145  0.00  0.00    +0.000 OA
ATOM     40  H   UNL     1       1.105   8.699  21.934  0.00  0.00    +0.000 HD
ENDBRANCH  33  39
ENDBRANCH  32  38
ENDBRANCH  30  32
ENDBRANCH  29  30
ENDBRANCH  28  29
ENDBRANCH  27  28
ENDBRANCH  25  27
ENDBRANCH  24  25
ENDBRANCH  23  24
ENDBRANCH  22  23
ENDBRANCH   1  22
TORSDOF 19
ENDMDL
MODEL 8
REMARK VINA RESULT:      -6.6      2.527     10.197
REMARK  Name = 
REMARK  19 active torsions:
REMARK  status: ('A' for Active; 'I' for Inactive)
REMARK    1  A    between atoms: O_1  and  C_2
REMARK    2  A    between atoms: C_7  and  C_8
REMARK    3  A    between atoms: C_8  and  N_9
REMARK    4  A    between atoms: N_9  and  C_10
REMARK    5  A    between atoms: C_10  and  C_11
REMARK    6  A    between atoms: C_11  and  C_12
REMARK    7  A    between atoms: C_12  and  N_13
REMARK    8  A    between atoms: N_13  and  C_14
REMARK    9  A    between atoms: C_14  and  C_15
REMARK   10  A    between atoms: C_15  and  C_16
REMARK   11  A    between atoms: C_16  and  C_17
REMARK   12  A    between atoms: C_17  and  N_18
REMARK   13  A    between atoms: N_18  and  C_19
REMARK   14  A    between atoms: C_19  and  C_20
REMARK   15  A    between atoms: C_20  and  C_21
REMARK   16  A    between atoms: C_21  and  N_22
REMARK   17  A    between atoms: N_22  and  C_23
REMARK   18  A    between atoms: C_23  and  C_24
REMARK   19  A    between atoms: C_33  and  O_34
REMARK                            x       y       z     vdW  Elec       q    Type
REMARK                         _______ _______ _______ _____ _____    ______ ____
ROOT
ATOM      1  C   UNL     1       3.074   5.890  19.546  0.00  0.00    +0.000 C 
ENDROOT
BRANCH   1   2
ATOM      2  N   UNL     1       3.126   7.018  18.615  0.00  0.00    +0.000 NA
ATOM      3  H   UNL     1       2.964   6.693  17.663  0.00  0.00    +0.000 HD
BRANCH   2   4
ATOM      4  C   UNL     1       2.124   8.021  18.965  0.00  0.00    +0.000 C 
BRANCH   4   5
ATOM      5  C   UNL     1       1.853   8.912  17.759  0.00  0.00    +0.000 C 
BRANCH   5   6
ATOM      6  C   UNL     1       1.756  10.370  18.194  0.00  0.00    +0.000 C 
BRANCH   6   7
ATOM      7  N   UNL     1       0.753  10.490  19.245  0.00  0.00    +0.000 NA
ATOM      8  H   UNL     1       0.846   9.712  19.897  0.00  0.00    +0.000 HD
BRANCH   7   9
ATOM      9  C   UNL     1       0.917  11.735  19.996  0.00  0.00    +0.000 C 
BRANCH   9  10
ATOM     10  C   UNL     1      -0.319  12.043  20.814  0.00  0.00    +0.000 A 
ATOM     11  C   UNL     1      -0.321  11.724  22.177  0.00  0.00    +0.000 A 
ATOM     12  C   UNL     1      -1.469  11.900  22.947  0.00  0.00    +0.000 A 
ATOM     13  C   UNL     1      -2.648  12.396  22.376  0.00  0.00    +0.000 A 
ATOM     14  C   UNL     1      -3.813  12.492  23.154  0.00  0.00    +0.000 A 
ATOM     15  C   UNL     1      -4.998  12.983  22.612  0.00  0.00    +0.000 A 
ATOM     16  C   UNL     1      -5.017  13.437  21.301  0.00  0.00    +0.000 A 
ATOM     17  C   UNL     1      -3.863  13.355  20.515  0.00  0.00    +0.000 A 
ATOM     18  C   UNL     1      -2.664  12.789  21.017  0.00  0.00    +0.000 A 
ATOM     19  C   UNL     1      -1.485  12.584  20.251  0.00  0.00    +0.000 A 
BRANCH  19  20
ATOM     20  O   UNL     1      -1.441  12.876  18.908  0.00  0.00    +0.000 OA
ATOM     21  H   UNL     1      -2.045  13.617  18.740  0.00  0.00    +0.000 HD
ENDBRANCH  19  20
ENDBRANCH   9  10
ENDBRANCH   7   9
ENDBRANCH   6   7
ENDBRANCH   5   6
ENDBRANCH   4   5
ENDBRANCH   2   4
ENDBRANCH   1   2
BRANCH   1  22
ATOM     22  C   UNL     1       1.758   5.908  20.317  0.00  0.00    +0.000 C 
BRANCH  22  23
ATOM     23  C   UNL     1       1.320   4.489  20.683  0.00  0.00    +0.000 C 
BRANCH  23  24
ATOM     24  C   UNL     1       2.340   3.845  21.617  0.00  0.00    +0.000 C 
BRANCH  24  25
ATOM     25  N   UNL     1       2.573   2.451  21.231  0.00  0.00    +0.000 NA
ATOM     26  H   UNL     1       2.889   1.925  22.044  0.00  0.00    +0.000 HD
BRANCH  25  27
ATOM     27  C   UNL     1       3.563   2.380  20.164  0.00  0.00    +0.000 C 
BRANCH  27  28
ATOM     28  C   UNL     1       2.879   1.870  18.901  0.00  0.00    +0.000 C 
BRANCH  28  29
ATOM     29  C   UNL     1       3.712   2.188  17.664  0.00  0.00    +0.000 C 
BRANCH  29  30
ATOM     30  N   UNL     1       4.734   3.151  18.053  0.00  0.00    +0.000 NA
ATOM     31  H   UNL     1       4.395   3.719  18.829  0.00  0.00    +0.000 HD
BRANCH  30  32
ATOM     32  C   UNL     1       5.109   4.033  16.937  0.00  0.00    +0.000 C 
BRANCH  32  38
ATOM     33  C   UNL     1       6.111   6.394  16.783  0.00  0.00    +0.000 A 
ATOM     34  C   UNL     1       7.010   7.366  17.245  0.00  0.00    +0.000 A 
ATOM     35  C   UNL     1       7.872   7.076  18.309  0.00  0.00    +0.000 A 
ATOM     36  C   UNL     1       7.839   5.819  18.909  0.00  0.00    +0.000 A 
ATOM     37  C   UNL     1       6.939   4.855  18.454  0.00  0.00    +0.000 A 
ATOM     38  C   UNL     1       6.051   5.129  17.392  0.00  0.00    +0.000 A 
BRANCH  33  39
ATOM     39  O   UNL     1       5.299   6.678  15.710  0.00  0.00    +0.000 OA
ATOM     40  H   UNL     1       5.801   7.188  15.053  0.00  0.00    +0.000 HD
ENDBRANCH  33  39
ENDBRANCH  32  38
ENDBRANCH  30  32
ENDBRANCH  29  30
ENDBRANCH  28  29
ENDBRANCH  27  28
ENDBRANCH  25  27
ENDBRANCH  24  25
ENDBRANCH  23  24
ENDBRANCH  22  23
ENDBRANCH   1  22
TORSDOF 19
ENDMDL
MODEL 9
REMARK VINA RESULT:      -6.6      2.390      4.108
REMARK  Name = 
REMARK  19 active torsions:
REMARK  status: ('A' for Active; 'I' for Inactive)
REMARK    1  A    between atoms: O_1  and  C_2
REMARK    2  A    between atoms: C_7  and  C_8
REMARK    3  A    between atoms: C_8  and  N_9
REMARK    4  A    between atoms: N_9  and  C_10
REMARK    5  A    between atoms: C_10  and  C_11
REMARK    6  A    between atoms: C_11  and  C_12
REMARK    7  A    between atoms: C_12  and  N_13
REMARK    8  A    between atoms: N_13  and  C_14
REMARK    9  A    between atoms: C_14  and  C_15
REMARK   10  A    between atoms: C_15  and  C_16
REMARK   11  A    between atoms: C_16  and  C_17
REMARK   12  A    between atoms: C_17  and  N_18
REMARK   13  A    between atoms: N_18  and  C_19
REMARK   14  A    between atoms: C_19  and  C_20
REMARK   15  A    between atoms: C_20  and  C_21
REMARK   16  A    between atoms: C_21  and  N_22
REMARK   17  A    between atoms: N_22  and  C_23
REMARK   18  A    between atoms: C_23  and  C_24
REMARK   19  A    between atoms: C_33  and  O_34
REMARK                            x       y       z     vdW  Elec       q    Type
REMARK                         _______ _______ _______ _____ _____    ______ ____
ROOT
ATOM      1  C   UNL     1       1.375   8.802  17.707  0.00  0.00    +0.000 C 
ENDROOT
BRANCH   1   2
ATOM      2  N   UNL     1       2.496   8.303  18.505  0.00  0.00    +0.000 NA
ATOM      3  H   UNL     1       2.209   8.184  19.475  0.00  0.00    +0.000 HD
BRANCH   2   4
ATOM      4  C   UNL     1       2.974   7.028  17.978  0.00  0.00    +0.000 C 
BRANCH   4   5
ATOM      5  C   UNL     1       4.469   7.122  17.695  0.00  0.00    +0.000 C 
BRANCH   5   6
ATOM      6  C   UNL     1       4.796   6.441  16.371  0.00  0.00    +0.000 C 
BRANCH   6   7
ATOM      7  N   UNL     1       5.738   5.355  16.611  0.00  0.00    +0.000 NA
ATOM      8  H   UNL     1       6.002   5.342  17.595  0.00  0.00    +0.000 HD
BRANCH   7   9
ATOM      9  C   UNL     1       5.148   4.057  16.281  0.00  0.00    +0.000 C 
BRANCH   9  10
ATOM     10  C   UNL     1       4.057   3.691  17.263  0.00  0.00    +0.000 A 
ATOM     11  C   UNL     1       2.729   3.677  16.820  0.00  0.00    +0.000 A 
ATOM     12  C   UNL     1       1.685   3.440  17.711  0.00  0.00    +0.000 A 
ATOM     13  C   UNL     1       1.937   3.213  19.070  0.00  0.00    +0.000 A 
ATOM     14  C   UNL     1       0.864   3.054  19.962  0.00  0.00    +0.000 A 
ATOM     15  C   UNL     1       1.087   2.827  21.317  0.00  0.00    +0.000 A 
ATOM     16  C   UNL     1       2.386   2.700  21.788  0.00  0.00    +0.000 A 
ATOM     17  C   UNL     1       3.465   2.849  20.911  0.00  0.00    +0.000 A 
ATOM     18  C   UNL     1       3.270   3.157  19.542  0.00  0.00    +0.000 A 
ATOM     19  C   UNL     1       4.315   3.418  18.615  0.00  0.00    +0.000 A 
BRANCH  19  20
ATOM     20  O   UNL     1       5.632   3.448  19.008  0.00  0.00    +0.000 OA
ATOM     21  H   UNL     1       5.756   2.780  19.701  0.00  0.00    +0.000 HD
ENDBRANCH  19  20
ENDBRANCH   9  10
ENDBRANCH   7   9
ENDBRANCH   6   7
ENDBRANCH   5   6
ENDBRANCH   4   5
ENDBRANCH   2   4
ENDBRANCH   1   2
BRANCH   1  22
ATOM     22  C   UNL     1       0.819  10.079  18.329  0.00  0.00    +0.000 C 
BRANCH  22  23
ATOM     23  C   UNL     1       0.969  10.055  19.851  0.00  0.00    +0.000 C 
BRANCH  23  24
ATOM     24  C   UNL     1       0.661  11.430  20.436  0.00  0.00    +0.000 C 
BRANCH  24  25
ATOM     25  N   UNL     1      -0.787  11.629  20.529  0.00  0.00    +0.000 NA
ATOM     26  H   UNL     1      -1.003  12.612  20.368  0.00  0.00    +0.000 HD
BRANCH  25  27
ATOM     27  C   UNL     1      -1.272  11.212  21.839  0.00  0.00    +0.000 C 
BRANCH  27  28
ATOM     28  C   UNL     1      -1.180  12.401  22.789  0.00  0.00    +0.000 C 
BRANCH  28  29
ATOM     29  C   UNL     1      -2.547  13.052  22.981  0.00  0.00    +0.000 C 
BRANCH  29  30
ATOM     30  N   UNL     1      -3.516  12.278  22.217  0.00  0.00    +0.000 NA
ATOM     31  H   UNL     1      -3.034  11.574  21.659  0.00  0.00    +0.000 HD
BRANCH  30  32
ATOM     32  C   UNL     1      -4.320  13.131  21.327  0.00  0.00    +0.000 C 
BRANCH  32  38
ATOM     33  C   UNL     1      -4.624  11.982  19.050  0.00  0.00    +0.000 A 
ATOM     34  C   UNL     1      -5.401  11.217  18.168  0.00  0.00    +0.000 A 
ATOM     35  C   UNL     1      -6.675  10.783  18.549  0.00  0.00    +0.000 A 
ATOM     36  C   UNL     1      -7.174  11.113  19.807  0.00  0.00    +0.000 A 
ATOM     37  C   UNL     1      -6.398  11.867  20.688  0.00  0.00    +0.000 A 
ATOM     38  C   UNL     1      -5.105  12.304  20.330  0.00  0.00    +0.000 A 
BRANCH  33  39
ATOM     39  O   UNL     1      -3.390  12.436  18.647  0.00  0.00    +0.000 OA
ATOM     40  H   UNL     1      -2.728  11.738  18.791  0.00  0.00    +0.000 HD
ENDBRANCH  33  39
ENDBRANCH  32  38
ENDBRANCH  30  32
ENDBRANCH  29  30
ENDBRANCH  28  29
ENDBRANCH  27  28
ENDBRANCH  25  27
ENDBRANCH  24  25
ENDBRANCH  23  24
ENDBRANCH  22  23
ENDBRANCH   1  22
TORSDOF 19
ENDMDL
