MODEL 1
REMARK VINA RESULT:      -8.8      0.000      0.000
REMARK  Name = 
REMARK  4 active torsions:
REMARK  status: ('A' for Active; 'I' for Inactive)
REMARK    1  A    between atoms: C_1  and  C_19
REMARK    2  A    between atoms: C_2  and  C_3
REMARK    3  A    between atoms: C_19  and  C_20
REMARK    4  A    between atoms: C_20  and  N_21
REMARK                            x       y       z     vdW  Elec       q    Type
REMARK                         _______ _______ _______ _____ _____    ______ ____
ROOT
ATOM      1  C   UNL     1       3.576   5.706  17.731  0.00  0.00    +0.000 A 
ATOM      2  C   UNL     1       3.086   4.586  18.557  0.00  0.00    +0.000 A 
ATOM      3  C   UNL     1       3.846   3.358  18.387  0.00  0.00    +0.000 A 
ATOM      4  N   UNL     1       4.763   3.179  17.413  0.00  0.00    +0.000 NA
ATOM      5  C   UNL     1       5.091   4.184  16.613  0.00  0.00    +0.000 A 
ATOM      6  C   UNL     1       6.057   3.922  15.652  0.00  0.00    +0.000 A 
ATOM      7  C   UNL     1       6.526   4.910  14.795  0.00  0.00    +0.000 A 
ATOM      8  C   UNL     1       6.021   6.200  14.881  0.00  0.00    +0.000 A 
ATOM      9  C   UNL     1       5.055   6.478  15.842  0.00  0.00    +0.000 A 
ATOM     10  C   UNL     1       4.568   5.481  16.731  0.00  0.00    +0.000 A 
ATOM     11  C   UNL     1       3.931   2.110  19.308  0.00  0.00    +0.000 C 
ATOM     12  C   UNL     1       3.126   2.502  20.463  0.00  0.00    +0.000 C 
ATOM     13  C   UNL     1       2.401   1.984  21.642  0.00  0.00    +0.000 C 
ATOM     14  C   UNL     1       1.342   3.132  21.808  0.00  0.00    +0.000 C 
ATOM     15  C   UNL     1       0.828   3.802  20.436  0.00  0.00    +0.000 C 
ATOM     16  C   UNL     1       1.819   4.809  19.537  0.00  0.00    +0.000 C 
ENDROOT
BRANCH   1  18
ATOM     17  C   UNL     1       2.651   8.323  17.872  0.00  0.00    +0.000 C 
ATOM     18  C   UNL     1       3.182   7.134  17.820  0.00  0.00    +0.000 C 
BRANCH  17  19
ATOM     19  C   UNL     1       2.032   9.709  17.933  0.00  0.00    +0.000 C 
BRANCH  19  20
ATOM     20  C   UNL     1       0.659   9.702  18.603  0.00  0.00    +0.000 C 
BRANCH  20  21
ATOM     21  N   UNL     1       0.731  10.048  20.038  0.00  0.00    +0.000 NA
ATOM     22  C   UNL     1      -0.435  10.840  20.469  0.00  0.00    +0.000 C 
ATOM     23  C   UNL     1      -0.348  11.214  21.947  0.00  0.00    +0.000 C 
ATOM     24  C   UNL     1      -0.201   9.974  22.815  0.00  0.00    +0.000 C 
ATOM     25  C   UNL     1       0.977   9.137  22.334  0.00  0.00    +0.000 C 
ATOM     26  C   UNL     1       0.860   8.822  20.841  0.00  0.00    +0.000 C 
ENDBRANCH  20  21
ENDBRANCH  19  20
ENDBRANCH  17  19
ENDBRANCH   1  18
TORSDOF 4
ENDMDL
MODEL 2
REMARK VINA RESULT:      -8.5      1.281      1.965
REMARK  Name = 
REMARK  4 active torsions:
REMARK  status: ('A' for Active; 'I' for Inactive)
REMARK    1  A    between atoms: C_1  and  C_19
REMARK    2  A    between atoms: C_2  and  C_3
REMARK    3  A    between atoms: C_19  and  C_20
REMARK    4  A    between atoms: C_20  and  N_21
REMARK                            x       y       z     vdW  Elec       q    Type
REMARK                         _______ _______ _______ _____ _____    ______ ____
ROOT
ATOM      1  C   UNL     1       3.554   5.701  17.755  0.00  0.00    +0.000 A 
ATOM      2  C   UNL     1       3.090   4.573  18.585  0.00  0.00    +0.000 A 
ATOM      3  C   UNL     1       3.894   3.369  18.437  0.00  0.00    +0.000 A 
ATOM      4  N   UNL     1       4.830   3.213  17.477  0.00  0.00    +0.000 NA
ATOM      5  C   UNL     1       5.135   4.222  16.672  0.00  0.00    +0.000 A 
ATOM      6  C   UNL     1       6.122   3.984  15.727  0.00  0.00    +0.000 A 
ATOM      7  C   UNL     1       6.569   4.980  14.867  0.00  0.00    +0.000 A 
ATOM      8  C   UNL     1       6.020   6.253  14.934  0.00  0.00    +0.000 A 
ATOM      9  C   UNL     1       5.032   6.507  15.880  0.00  0.00    +0.000 A 
ATOM     10  C   UNL     1       4.567   5.501  16.771  0.00  0.00    +0.000 A 
ATOM     11  C   UNL     1       4.008   2.134  19.370  0.00  0.00    +0.000 C 
ATOM     12  C   UNL     1       3.175   2.508  20.511  0.00  0.00    +0.000 C 
ATOM     13  C   UNL     1       2.452   1.976  21.685  0.00  0.00    +0.000 C 
ATOM     14  C   UNL     1       1.352   3.089  21.826  0.00  0.00    +0.000 C 
ATOM     15  C   UNL     1       0.835   3.729  20.441  0.00  0.00    +0.000 C 
ATOM     16  C   UNL     1       1.803   4.761  19.546  0.00  0.00    +0.000 C 
ENDROOT
BRANCH   1  18
ATOM     17  C   UNL     1       2.539   8.286  17.858  0.00  0.00    +0.000 C 
ATOM     18  C   UNL     1       3.111   7.116  17.826  0.00  0.00    +0.000 C 
BRANCH  17  19
ATOM     19  C   UNL     1       1.873   9.652  17.895  0.00  0.00    +0.000 C 
BRANCH  19  20
ATOM     20  C   UNL     1       1.148   9.907  19.215  0.00  0.00    +0.000 C 
BRANCH  20  21
ATOM     21  N   UNL     1      -0.272  10.265  19.018  0.00  0.00    +0.000 NA
ATOM     22  C   UNL     1      -0.492  11.717  19.133  0.00  0.00    +0.000 C 
ATOM     23  C   UNL     1      -1.963  12.082  18.949  0.00  0.00    +0.000 C 
ATOM     24  C   UNL     1      -2.489  11.573  17.616  0.00  0.00    +0.000 C 
ATOM     25  C   UNL     1      -2.216  10.080  17.484  0.00  0.00    +0.000 C 
ATOM     26  C   UNL     1      -0.737   9.764  17.714  0.00  0.00    +0.000 C 
ENDBRANCH  20  21
ENDBRANCH  19  20
ENDBRANCH  17  19
ENDBRANCH   1  18
TORSDOF 4
ENDMDL
MODEL 3
REMARK VINA RESULT:      -8.4      1.141      1.891
REMARK  Name = 
REMARK  4 active torsions:
REMARK  status: ('A' for Active; 'I' for Inactive)
REMARK    1  A    between atoms: C_1  and  C_19
REMARK    2  A    between atoms: C_2  and  C_3
REMARK    3  A    between atoms: C_19  and  C_20
REMARK    4  A    between atoms: C_20  and  N_21
REMARK                            x       y       z     vdW  Elec       q    Type
REMARK                         _______ _______ _______ _____ _____    ______ ____
ROOT
ATOM      1  C   UNL     1       3.576   5.682  17.715  0.00  0.00    +0.000 A 
ATOM      2  C   UNL     1       3.103   4.564  18.554  0.00  0.00    +0.000 A 
ATOM      3  C   UNL     1       3.909   3.359  18.430  0.00  0.00    +0.000 A 
ATOM      4  N   UNL     1       4.855   3.190  17.484  0.00  0.00    +0.000 NA
ATOM      5  C   UNL     1       5.170   4.189  16.670  0.00  0.00    +0.000 A 
ATOM      6  C   UNL     1       6.168   3.938  15.739  0.00  0.00    +0.000 A 
ATOM      7  C   UNL     1       6.625   4.922  14.871  0.00  0.00    +0.000 A 
ATOM      8  C   UNL     1       6.075   6.196  14.915  0.00  0.00    +0.000 A 
ATOM      9  C   UNL     1       5.076   6.463  15.845  0.00  0.00    +0.000 A 
ATOM     10  C   UNL     1       4.600   5.469  16.745  0.00  0.00    +0.000 A 
ATOM     11  C   UNL     1       4.012   2.136  19.382  0.00  0.00    +0.000 C 
ATOM     12  C   UNL     1       3.165   2.525  20.508  0.00  0.00    +0.000 C 
ATOM     13  C   UNL     1       2.428   2.009  21.680  0.00  0.00    +0.000 C 
ATOM     14  C   UNL     1       1.327   3.123  21.794  0.00  0.00    +0.000 C 
ATOM     15  C   UNL     1       0.826   3.745  20.394  0.00  0.00    +0.000 C 
ATOM     16  C   UNL     1       1.805   4.765  19.497  0.00  0.00    +0.000 C 
ENDROOT
BRANCH   1  18
ATOM     17  C   UNL     1       2.559   8.266  17.806  0.00  0.00    +0.000 C 
ATOM     18  C   UNL     1       3.132   7.097  17.761  0.00  0.00    +0.000 C 
BRANCH  17  19
ATOM     19  C   UNL     1       1.890   9.630  17.858  0.00  0.00    +0.000 C 
BRANCH  19  20
ATOM     20  C   UNL     1       0.905   9.748  19.019  0.00  0.00    +0.000 C 
BRANCH  20  21
ATOM     21  N   UNL     1      -0.151  10.751  18.764  0.00  0.00    +0.000 NA
ATOM     22  C   UNL     1      -1.169  10.247  17.826  0.00  0.00    +0.000 C 
ATOM     23  C   UNL     1      -2.247  11.292  17.549  0.00  0.00    +0.000 C 
ATOM     24  C   UNL     1      -2.902  11.756  18.839  0.00  0.00    +0.000 C 
ATOM     25  C   UNL     1      -1.839  12.232  19.821  0.00  0.00    +0.000 C 
ATOM     26  C   UNL     1      -0.765  11.164  20.036  0.00  0.00    +0.000 C 
ENDBRANCH  20  21
ENDBRANCH  19  20
ENDBRANCH  17  19
ENDBRANCH   1  18
TORSDOF 4
ENDMDL
MODEL 4
REMARK VINA RESULT:      -8.4      1.904      7.857
REMARK  Name = 
REMARK  4 active torsions:
REMARK  status: ('A' for Active; 'I' for Inactive)
REMARK    1  A    between atoms: C_1  and  C_19
REMARK    2  A    between atoms: C_2  and  C_3
REMARK    3  A    between atoms: C_19  and  C_20
REMARK    4  A    between atoms: C_20  and  N_21
REMARK                            x       y       z     vdW  Elec       q    Type
REMARK                         _______ _______ _______ _____ _____    ______ ____
ROOT
ATOM      1  C   UNL     1       3.241   6.218  18.956  0.00  0.00    +0.000 A 
ATOM      2  C   UNL     1       2.291   7.312  19.234  0.00  0.00    +0.000 A 
ATOM      3  C   UNL     1       1.461   7.081  20.406  0.00  0.00    +0.000 A 
ATOM      4  N   UNL     1       1.393   5.897  21.049  0.00  0.00    +0.000 NA
ATOM      5  C   UNL     1       2.187   4.897  20.690  0.00  0.00    +0.000 A 
ATOM      6  C   UNL     1       2.069   3.721  21.416  0.00  0.00    +0.000 A 
ATOM      7  C   UNL     1       2.885   2.623  21.173  0.00  0.00    +0.000 A 
ATOM      8  C   UNL     1       3.847   2.682  20.174  0.00  0.00    +0.000 A 
ATOM      9  C   UNL     1       3.979   3.856  19.440  0.00  0.00    +0.000 A 
ATOM     10  C   UNL     1       3.155   4.991  19.680  0.00  0.00    +0.000 A 
ATOM     11  C   UNL     1       0.649   8.094  21.258  0.00  0.00    +0.000 C 
ATOM     12  C   UNL     1       0.996   9.380  20.657  0.00  0.00    +0.000 C 
ATOM     13  C   UNL     1       0.581  10.794  20.542  0.00  0.00    +0.000 C 
ATOM     14  C   UNL     1       1.224  11.131  19.149  0.00  0.00    +0.000 C 
ATOM     15  C   UNL     1       1.238   9.922  18.084  0.00  0.00    +0.000 C 
ATOM     16  C   UNL     1       2.263   8.611  18.271  0.00  0.00    +0.000 C 
ENDROOT
BRANCH   1  18
ATOM     17  C   UNL     1       5.454   6.335  17.279  0.00  0.00    +0.000 C 
ATOM     18  C   UNL     1       4.368   6.223  17.991  0.00  0.00    +0.000 C 
BRANCH  17  19
ATOM     19  C   UNL     1       6.720   6.465  16.448  0.00  0.00    +0.000 C 
BRANCH  19  20
ATOM     20  C   UNL     1       7.158   5.132  15.847  0.00  0.00    +0.000 C 
BRANCH  20  21
ATOM     21  N   UNL     1       6.762   4.995  14.429  0.00  0.00    +0.000 NA
ATOM     22  C   UNL     1       7.910   5.164  13.522  0.00  0.00    +0.000 C 
ATOM     23  C   UNL     1       7.495   5.043  12.057  0.00  0.00    +0.000 C 
ATOM     24  C   UNL     1       6.805   3.714  11.794  0.00  0.00    +0.000 C 
ATOM     25  C   UNL     1       5.649   3.525  12.767  0.00  0.00    +0.000 C 
ATOM     26  C   UNL     1       6.110   3.693  14.216  0.00  0.00    +0.000 C 
ENDBRANCH  20  21
ENDBRANCH  19  20
ENDBRANCH  17  19
ENDBRANCH   1  18
TORSDOF 4
ENDMDL
MODEL 5
REMARK VINA RESULT:      -8.4      0.519      1.056
REMARK  Name = 
REMARK  4 active torsions:
REMARK  status: ('A' for Active; 'I' for Inactive)
REMARK    1  A    between atoms: C_1  and  C_19
REMARK    2  A    between atoms: C_2  and  C_3
REMARK    3  A    between atoms: C_19  and  C_20
REMARK    4  A    between atoms: C_20  and  N_21
REMARK                            x       y       z     vdW  Elec       q    Type
REMARK                         _______ _______ _______ _____ _____    ______ ____
ROOT
ATOM      1  C   UNL     1       3.418   5.704  17.836  0.00  0.00    +0.000 A 
ATOM      2  C   UNL     1       3.019   4.548  18.662  0.00  0.00    +0.000 A 
ATOM      3  C   UNL     1       3.930   3.418  18.565  0.00  0.00    +0.000 A 
ATOM      4  N   UNL     1       4.915   3.333  17.647  0.00  0.00    +0.000 NA
ATOM      5  C   UNL     1       5.166   4.356  16.842  0.00  0.00    +0.000 A 
ATOM      6  C   UNL     1       6.210   4.195  15.942  0.00  0.00    +0.000 A 
ATOM      7  C   UNL     1       6.606   5.216  15.087  0.00  0.00    +0.000 A 
ATOM      8  C   UNL     1       5.946   6.437  15.112  0.00  0.00    +0.000 A 
ATOM      9  C   UNL     1       4.900   6.614  16.012  0.00  0.00    +0.000 A 
ATOM     10  C   UNL     1       4.486   5.582  16.898  0.00  0.00    +0.000 A 
ATOM     11  C   UNL     1       4.110   2.207  19.520  0.00  0.00    +0.000 C 
ATOM     12  C   UNL     1       3.199   2.520  20.620  0.00  0.00    +0.000 C 
ATOM     13  C   UNL     1       2.475   1.940  21.770  0.00  0.00    +0.000 C 
ATOM     14  C   UNL     1       1.278   2.954  21.849  0.00  0.00    +0.000 C 
ATOM     15  C   UNL     1       0.768   3.532  20.435  0.00  0.00    +0.000 C 
ATOM     16  C   UNL     1       1.680   4.634  19.566  0.00  0.00    +0.000 C 
ENDROOT
BRANCH   1  18
ATOM     17  C   UNL     1       2.179   8.191  17.871  0.00  0.00    +0.000 C 
ATOM     18  C   UNL     1       2.851   7.075  17.868  0.00  0.00    +0.000 C 
BRANCH  17  19
ATOM     19  C   UNL     1       1.394   9.492  17.875  0.00  0.00    +0.000 C 
BRANCH  19  20
ATOM     20  C   UNL     1       1.633  10.309  19.143  0.00  0.00    +0.000 C 
BRANCH  20  21
ATOM     21  N   UNL     1       0.570  10.111  20.150  0.00  0.00    +0.000 NA
ATOM     22  C   UNL     1       0.825   8.929  20.992  0.00  0.00    +0.000 C 
ATOM     23  C   UNL     1      -0.285   8.716  22.018  0.00  0.00    +0.000 C 
ATOM     24  C   UNL     1      -0.472   9.950  22.884  0.00  0.00    +0.000 C 
ATOM     25  C   UNL     1      -0.689  11.176  22.006  0.00  0.00    +0.000 C 
ATOM     26  C   UNL     1       0.430  11.323  20.973  0.00  0.00    +0.000 C 
ENDBRANCH  20  21
ENDBRANCH  19  20
ENDBRANCH  17  19
ENDBRANCH   1  18
TORSDOF 4
ENDMDL
MODEL 6
REMARK VINA RESULT:      -8.3      4.492      5.839
REMARK  Name = 
REMARK  4 active torsions:
REMARK  status: ('A' for Active; 'I' for Inactive)
REMARK    1  A    between atoms: C_1  and  C_19
REMARK    2  A    between atoms: C_2  and  C_3
REMARK    3  A    between atoms: C_19  and  C_20
REMARK    4  A    between atoms: C_20  and  N_21
REMARK                            x       y       z     vdW  Elec       q    Type
REMARK                         _______ _______ _______ _____ _____    ______ ____
ROOT
ATOM      1  C   UNL     1       5.526   5.967  16.998  0.00  0.00    +0.000 A 
ATOM      2  C   UNL     1       4.288   5.521  17.665  0.00  0.00    +0.000 A 
ATOM      3  C   UNL     1       3.726   4.303  17.099  0.00  0.00    +0.000 A 
ATOM      4  N   UNL     1       4.153   3.754  15.943  0.00  0.00    +0.000 NA
ATOM      5  C   UNL     1       5.204   4.260  15.312  0.00  0.00    +0.000 A 
ATOM      6  C   UNL     1       5.590   3.622  14.142  0.00  0.00    +0.000 A 
ATOM      7  C   UNL     1       6.710   4.024  13.423  0.00  0.00    +0.000 A 
ATOM      8  C   UNL     1       7.472   5.095  13.868  0.00  0.00    +0.000 A 
ATOM      9  C   UNL     1       7.099   5.741  15.042  0.00  0.00    +0.000 A 
ATOM     10  C   UNL     1       5.959   5.340  15.793  0.00  0.00    +0.000 A 
ATOM     11  C   UNL     1       2.708   3.304  17.714  0.00  0.00    +0.000 C 
ATOM     12  C   UNL     1       2.510   3.828  19.064  0.00  0.00    +0.000 C 
ATOM     13  C   UNL     1       1.613   3.793  20.237  0.00  0.00    +0.000 C 
ATOM     14  C   UNL     1       1.937   5.205  20.843  0.00  0.00    +0.000 C 
ATOM     15  C   UNL     1       2.260   6.361  19.768  0.00  0.00    +0.000 C 
ATOM     16  C   UNL     1       3.696   6.370  18.907  0.00  0.00    +0.000 C 
ENDROOT
BRANCH   1  18
ATOM     17  C   UNL     1       7.431   7.820  17.811  0.00  0.00    +0.000 C 
ATOM     18  C   UNL     1       6.464   7.024  17.451  0.00  0.00    +0.000 C 
BRANCH  17  19
ATOM     19  C   UNL     1       8.558   8.749  18.231  0.00  0.00    +0.000 C 
BRANCH  19  20
ATOM     20  C   UNL     1       8.286  10.201  17.845  0.00  0.00    +0.000 C 
BRANCH  20  21
ATOM     21  N   UNL     1       9.176  11.148  18.549  0.00  0.00    +0.000 NA
ATOM     22  C   UNL     1       9.431  10.730  19.939  0.00  0.00    +0.000 C 
ATOM     23  C   UNL     1      10.334  11.721  20.670  0.00  0.00    +0.000 C 
ATOM     24  C   UNL     1      11.646  11.914  19.927  0.00  0.00    +0.000 C 
ATOM     25  C   UNL     1      11.374  12.300  18.479  0.00  0.00    +0.000 C 
ATOM     26  C   UNL     1      10.436  11.297  17.804  0.00  0.00    +0.000 C 
ENDBRANCH  20  21
ENDBRANCH  19  20
ENDBRANCH  17  19
ENDBRANCH   1  18
TORSDOF 4
ENDMDL
MODEL 7
REMARK VINA RESULT:      -8.2      1.325      1.968
REMARK  Name = 
REMARK  4 active torsions:
REMARK  status: ('A' for Active; 'I' for Inactive)
REMARK    1  A    between atoms: C_1  and  C_19
REMARK    2  A    between atoms: C_2  and  C_3
REMARK    3  A    between atoms: C_19  and  C_20
REMARK    4  A    between atoms: C_20  and  N_21
REMARK                            x       y       z     vdW  Elec       q    Type
REMARK                         _______ _______ _______ _____ _____    ______ ____
ROOT
ATOM      1  C   UNL     1       3.604   5.667  17.675  0.00  0.00    +0.000 A 
ATOM      2  C   UNL     1       3.110   4.560  18.516  0.00  0.00    +0.000 A 
ATOM      3  C   UNL     1       3.879   3.333  18.379  0.00  0.00    +0.000 A 
ATOM      4  N   UNL     1       4.807   3.141  17.419  0.00  0.00    +0.000 NA
ATOM      5  C   UNL     1       5.140   4.132  16.604  0.00  0.00    +0.000 A 
ATOM      6  C   UNL     1       6.118   3.857  15.660  0.00  0.00    +0.000 A 
ATOM      7  C   UNL     1       6.592   4.830  14.789  0.00  0.00    +0.000 A 
ATOM      8  C   UNL     1       6.079   6.118  14.843  0.00  0.00    +0.000 A 
ATOM      9  C   UNL     1       5.101   6.411  15.788  0.00  0.00    +0.000 A 
ATOM     10  C   UNL     1       4.608   5.428  16.691  0.00  0.00    +0.000 A 
ATOM     11  C   UNL     1       3.959   2.104  19.325  0.00  0.00    +0.000 C 
ATOM     12  C   UNL     1       3.139   2.514  20.463  0.00  0.00    +0.000 C 
ATOM     13  C   UNL     1       2.403   2.015  21.644  0.00  0.00    +0.000 C 
ATOM     14  C   UNL     1       1.336   3.160  21.775  0.00  0.00    +0.000 C 
ATOM     15  C   UNL     1       0.835   3.801  20.385  0.00  0.00    +0.000 C 
ATOM     16  C   UNL     1       1.830   4.795  19.477  0.00  0.00    +0.000 C 
ENDROOT
BRANCH   1  18
ATOM     17  C   UNL     1       2.665   8.279  17.816  0.00  0.00    +0.000 C 
ATOM     18  C   UNL     1       3.201   7.094  17.731  0.00  0.00    +0.000 C 
BRANCH  17  19
ATOM     19  C   UNL     1       2.040   9.661  17.914  0.00  0.00    +0.000 C 
BRANCH  19  20
ATOM     20  C   UNL     1       1.021   9.756  19.047  0.00  0.00    +0.000 C 
BRANCH  20  21
ATOM     21  N   UNL     1       0.630  11.152  19.337  0.00  0.00    +0.000 NA
ATOM     22  C   UNL     1       1.554  12.119  18.721  0.00  0.00    +0.000 C 
ATOM     23  C   UNL     1       1.159  13.560  19.040  0.00  0.00    +0.000 C 
ATOM     24  C   UNL     1      -0.269  13.842  18.604  0.00  0.00    +0.000 C 
ATOM     25  C   UNL     1      -1.213  12.810  19.208  0.00  0.00    +0.000 C 
ATOM     26  C   UNL     1      -0.753  11.386  18.890  0.00  0.00    +0.000 C 
ENDBRANCH  20  21
ENDBRANCH  19  20
ENDBRANCH  17  19
ENDBRANCH   1  18
TORSDOF 4
ENDMDL
MODEL 8
REMARK VINA RESULT:      -8.2      7.555     10.158
REMARK  Name = 
REMARK  4 active torsions:
REMARK  status: ('A' for Active; 'I' for Inactive)
REMARK    1  A    between atoms: C_1  and  C_19
REMARK    2  A    between atoms: C_2  and  C_3
REMARK    3  A    between atoms: C_19  and  C_20
REMARK    4  A    between atoms: C_20  and  N_21
REMARK                            x       y       z     vdW  Elec       q    Type
REMARK                         _______ _______ _______ _____ _____    ______ ____
ROOT
ATOM      1  C   UNL     1       9.772  11.929  19.702  0.00  0.00    +0.000 A 
ATOM      2  C   UNL     1       9.444  12.401  21.061  0.00  0.00    +0.000 A 
ATOM      3  C   UNL     1       9.895  13.757  21.334  0.00  0.00    +0.000 A 
ATOM      4  N   UNL     1      10.726  14.442  20.521  0.00  0.00    +0.000 NA
ATOM      5  C   UNL     1      11.091  13.929  19.354  0.00  0.00    +0.000 A 
ATOM      6  C   UNL     1      11.929  14.708  18.569  0.00  0.00    +0.000 A 
ATOM      7  C   UNL     1      12.333  14.304  17.302  0.00  0.00    +0.000 A 
ATOM      8  C   UNL     1      11.902  13.088  16.792  0.00  0.00    +0.000 A 
ATOM      9  C   UNL     1      11.057  12.298  17.565  0.00  0.00    +0.000 A 
ATOM     10  C   UNL     1      10.630  12.698  18.862  0.00  0.00    +0.000 A 
ATOM     11  C   UNL     1       9.436  14.750  22.436  0.00  0.00    +0.000 C 
ATOM     12  C   UNL     1       8.350  14.028  23.094  0.00  0.00    +0.000 C 
ATOM     13  C   UNL     1       7.529  13.968  24.322  0.00  0.00    +0.000 C 
ATOM     14  C   UNL     1       7.153  12.443  24.298  0.00  0.00    +0.000 C 
ATOM     15  C   UNL     1       8.287  11.461  23.710  0.00  0.00    +0.000 C 
ATOM     16  C   UNL     1       8.645  11.427  22.075  0.00  0.00    +0.000 C 
ENDROOT
BRANCH   1  18
ATOM     17  C   UNL     1       8.671   9.728  18.410  0.00  0.00    +0.000 C 
ATOM     18  C   UNL     1       9.276  10.704  19.027  0.00  0.00    +0.000 C 
BRANCH  17  19
ATOM     19  C   UNL     1       7.966   8.590  17.691  0.00  0.00    +0.000 C 
BRANCH  19  20
ATOM     20  C   UNL     1       8.025   7.283  18.479  0.00  0.00    +0.000 C 
BRANCH  20  21
ATOM     21  N   UNL     1       7.099   6.261  17.945  0.00  0.00    +0.000 NA
ATOM     22  C   UNL     1       6.506   5.445  19.018  0.00  0.00    +0.000 C 
ATOM     23  C   UNL     1       5.567   4.377  18.462  0.00  0.00    +0.000 C 
ATOM     24  C   UNL     1       4.475   5.003  17.610  0.00  0.00    +0.000 C 
ATOM     25  C   UNL     1       5.094   5.883  16.532  0.00  0.00    +0.000 C 
ATOM     26  C   UNL     1       6.053   6.909  17.137  0.00  0.00    +0.000 C 
ENDBRANCH  20  21
ENDBRANCH  19  20
ENDBRANCH  17  19
ENDBRANCH   1  18
TORSDOF 4
ENDMDL
MODEL 9
REMARK VINA RESULT:      -8.2      2.087      6.835
REMARK  Name = 
REMARK  4 active torsions:
REMARK  status: ('A' for Active; 'I' for Inactive)
REMARK    1  A    between atoms: C_1  and  C_19
REMARK    2  A    between atoms: C_2  and  C_3
REMARK    3  A    between atoms: C_19  and  C_20
REMARK    4  A    between atoms: C_20  and  N_21
REMARK                            x       y       z     vdW  Elec       q    Type
REMARK                         _______ _______ _______ _____ _____    ______ ____
ROOT
ATOM      1  C   UNL     1       2.975   5.923  18.695  0.00  0.00    +0.000 A 
ATOM      2  C   UNL     1       2.145   7.093  19.041  0.00  0.00    +0.000 A 
ATOM      3  C   UNL     1       1.539   7.009  20.361  0.00  0.00    +0.000 A 
ATOM      4  N   UNL     1       1.539   5.887  21.111  0.00  0.00    +0.000 NA
ATOM      5  C   UNL     1       2.204   4.814  20.705  0.00  0.00    +0.000 A 
ATOM      6  C   UNL     1       2.171   3.710  21.544  0.00  0.00    +0.000 A 
ATOM      7  C   UNL     1       2.876   2.548  21.256  0.00  0.00    +0.000 A 
ATOM      8  C   UNL     1       3.635   2.466  20.097  0.00  0.00    +0.000 A 
ATOM      9  C   UNL     1       3.682   3.567  19.248  0.00  0.00    +0.000 A 
ATOM     10  C   UNL     1       2.970   4.766  19.530  0.00  0.00    +0.000 A 
ATOM     11  C   UNL     1       0.948   8.136  21.252  0.00  0.00    +0.000 C 
ATOM     12  C   UNL     1       1.236   9.345  20.483  0.00  0.00    +0.000 C 
ATOM     13  C   UNL     1       0.872  10.768  20.318  0.00  0.00    +0.000 C 
ATOM     14  C   UNL     1       1.257  10.951  18.806  0.00  0.00    +0.000 C 
ATOM     15  C   UNL     1       1.016   9.661  17.871  0.00  0.00    +0.000 C 
ATOM     16  C   UNL     1       1.996   8.309  17.986  0.00  0.00    +0.000 C 
ENDROOT
BRANCH   1  18
ATOM     17  C   UNL     1       4.616   5.810  16.455  0.00  0.00    +0.000 C 
ATOM     18  C   UNL     1       3.900   5.781  17.544  0.00  0.00    +0.000 C 
BRANCH  17  19
ATOM     19  C   UNL     1       5.450   5.844  15.185  0.00  0.00    +0.000 C 
BRANCH  19  20
ATOM     20  C   UNL     1       6.751   5.056  15.326  0.00  0.00    +0.000 C 
BRANCH  20  21
ATOM     21  N   UNL     1       7.543   5.480  16.499  0.00  0.00    +0.000 NA
ATOM     22  C   UNL     1       7.199   6.846  16.928  0.00  0.00    +0.000 C 
ATOM     23  C   UNL     1       8.034   7.289  18.128  0.00  0.00    +0.000 C 
ATOM     24  C   UNL     1       7.880   6.318  19.287  0.00  0.00    +0.000 C 
ATOM     25  C   UNL     1       8.192   4.900  18.824  0.00  0.00    +0.000 C 
ATOM     26  C   UNL     1       7.357   4.520  17.600  0.00  0.00    +0.000 C 
ENDBRANCH  20  21
ENDBRANCH  19  20
ENDBRANCH  17  19
ENDBRANCH   1  18
TORSDOF 4
ENDMDL
