MODEL 1
REMARK VINA RESULT:      -7.4      0.000      0.000
REMARK  Name = 
REMARK  4 active torsions:
REMARK  status: ('A' for Active; 'I' for Inactive)
REMARK    1  A    between atoms: C_1  and  C_2
REMARK    2  A    between atoms: C_2  and  C_3
REMARK    3  A    between atoms: C_4  and  C_6
REMARK    4  A    between atoms: C_13  and  N_14
REMARK                            x       y       z     vdW  Elec       q    Type
REMARK                         _______ _______ _______ _____ _____    ______ ____
ROOT
ATOM      1  C   UNL     1       4.947   5.553  17.699  0.00  0.00    +0.000 A 
ATOM      2  C   UNL     1       4.105   6.644  17.848  0.00  0.00    +0.000 A 
ATOM      3  C   UNL     1       3.007   6.518  18.690  0.00  0.00    +0.000 A 
ATOM      4  C   UNL     1       2.772   5.312  19.362  0.00  0.00    +0.000 A 
ATOM      5  C   UNL     1       1.652   5.177  20.207  0.00  0.00    +0.000 A 
ATOM      6  C   UNL     1       1.394   3.977  20.867  0.00  0.00    +0.000 A 
ATOM      7  C   UNL     1       2.258   2.907  20.691  0.00  0.00    +0.000 A 
ATOM      8  C   UNL     1       3.375   3.064  19.853  0.00  0.00    +0.000 A 
ATOM      9  C   UNL     1       3.673   4.242  19.165  0.00  0.00    +0.000 A 
ATOM     10  N   UNL     1       4.739   4.375  18.340  0.00  0.00    +0.000 NA
ENDROOT
BRANCH   1  14
ATOM     11  C   UNL     1       7.392   5.095  14.708  0.00  0.00    +0.000 C 
ATOM     12  C   UNL     1       6.177   4.993  15.596  0.00  0.00    +0.000 C 
ATOM     13  C   UNL     1       5.033   4.181  15.043  0.00  0.00    +0.000 C 
ATOM     14  C   UNL     1       6.109   5.613  16.796  0.00  0.00    +0.000 C 
ATOM     15 CL   UNL     1       7.432   6.552  17.420  0.00  0.00    +0.000 Cl
ENDBRANCH   1  14
BRANCH   8  16
ATOM     16  N   UNL     1       4.250   1.921  19.695  0.00  0.00    +0.000 N 
ATOM     17  O   UNL     1       3.966   1.123  18.790  0.00  0.00    +0.000 OA
ATOM     18  O   UNL     1       5.149   1.767  20.534  0.00  0.00    +0.000 OA
ENDBRANCH   8  16
TORSDOF 2
ENDMDL
MODEL 2
REMARK VINA RESULT:      -7.3      2.870      5.416
REMARK  Name = 
REMARK  4 active torsions:
REMARK  status: ('A' for Active; 'I' for Inactive)
REMARK    1  A    between atoms: C_1  and  C_2
REMARK    2  A    between atoms: C_2  and  C_3
REMARK    3  A    between atoms: C_4  and  C_6
REMARK    4  A    between atoms: C_13  and  N_14
REMARK                            x       y       z     vdW  Elec       q    Type
REMARK                         _______ _______ _______ _____ _____    ______ ____
ROOT
ATOM      1  C   UNL     1       3.229   5.325  18.853  0.00  0.00    +0.000 A 
ATOM      2  C   UNL     1       2.602   4.625  17.834  0.00  0.00    +0.000 A 
ATOM      3  C   UNL     1       3.387   4.109  16.810  0.00  0.00    +0.000 A 
ATOM      4  C   UNL     1       4.774   4.301  16.823  0.00  0.00    +0.000 A 
ATOM      5  C   UNL     1       5.571   3.791  15.779  0.00  0.00    +0.000 A 
ATOM      6  C   UNL     1       6.950   3.990  15.768  0.00  0.00    +0.000 A 
ATOM      7  C   UNL     1       7.541   4.697  16.804  0.00  0.00    +0.000 A 
ATOM      8  C   UNL     1       6.731   5.190  17.841  0.00  0.00    +0.000 A 
ATOM      9  C   UNL     1       5.346   5.022  17.895  0.00  0.00    +0.000 A 
ATOM     10  N   UNL     1       4.571   5.524  18.886  0.00  0.00    +0.000 NA
ENDROOT
BRANCH   1  14
ATOM     11  C   UNL     1       1.187   7.755  21.103  0.00  0.00    +0.000 C 
ATOM     12  C   UNL     1       1.988   7.195  19.953  0.00  0.00    +0.000 C 
ATOM     13  C   UNL     1       2.213   8.137  18.798  0.00  0.00    +0.000 C 
ATOM     14  C   UNL     1       2.449   5.924  19.950  0.00  0.00    +0.000 C 
ATOM     15 CL   UNL     1       2.177   4.845  21.285  0.00  0.00    +0.000 Cl
ENDBRANCH   1  14
BRANCH   8  16
ATOM     16  N   UNL     1       7.388   5.925  18.902  0.00  0.00    +0.000 N 
ATOM     17  O   UNL     1       7.979   6.965  18.576  0.00  0.00    +0.000 OA
ATOM     18  O   UNL     1       7.404   5.413  20.030  0.00  0.00    +0.000 OA
ENDBRANCH   8  16
TORSDOF 2
ENDMDL
MODEL 3
REMARK VINA RESULT:      -7.0      3.129      5.652
REMARK  Name = 
REMARK  4 active torsions:
REMARK  status: ('A' for Active; 'I' for Inactive)
REMARK    1  A    between atoms: C_1  and  C_2
REMARK    2  A    between atoms: C_2  and  C_3
REMARK    3  A    between atoms: C_4  and  C_6
REMARK    4  A    between atoms: C_13  and  N_14
REMARK                            x       y       z     vdW  Elec       q    Type
REMARK                         _______ _______ _______ _____ _____    ______ ____
ROOT
ATOM      1  C   UNL     1       3.357   5.517  18.454  0.00  0.00    +0.000 A 
ATOM      2  C   UNL     1       2.737   4.523  17.712  0.00  0.00    +0.000 A 
ATOM      3  C   UNL     1       3.445   3.944  16.666  0.00  0.00    +0.000 A 
ATOM      4  C   UNL     1       4.749   4.364  16.383  0.00  0.00    +0.000 A 
ATOM      5  C   UNL     1       5.465   3.788  15.314  0.00  0.00    +0.000 A 
ATOM      6  C   UNL     1       6.757   4.209  15.007  0.00  0.00    +0.000 A 
ATOM      7  C   UNL     1       7.344   5.207  15.771  0.00  0.00    +0.000 A 
ATOM      8  C   UNL     1       6.619   5.763  16.838  0.00  0.00    +0.000 A 
ATOM      9  C   UNL     1       5.320   5.380  17.182  0.00  0.00    +0.000 A 
ATOM     10  N   UNL     1       4.620   5.940  18.197  0.00  0.00    +0.000 NA
ENDROOT
BRANCH   1  14
ATOM     11  C   UNL     1       1.462   8.103  20.657  0.00  0.00    +0.000 C 
ATOM     12  C   UNL     1       2.188   7.462  19.500  0.00  0.00    +0.000 C 
ATOM     13  C   UNL     1       2.337   8.322  18.270  0.00  0.00    +0.000 C 
ATOM     14  C   UNL     1       2.649   6.193  19.554  0.00  0.00    +0.000 C 
ATOM     15 CL   UNL     1       2.464   5.209  20.976  0.00  0.00    +0.000 Cl
ENDBRANCH   1  14
BRANCH   8  16
ATOM     16  N   UNL     1       7.267   6.804  17.608  0.00  0.00    +0.000 N 
ATOM     17  O   UNL     1       7.886   6.445  18.620  0.00  0.00    +0.000 OA
ATOM     18  O   UNL     1       7.072   7.978  17.264  0.00  0.00    +0.000 OA
ENDBRANCH   8  16
TORSDOF 2
ENDMDL
MODEL 4
REMARK VINA RESULT:      -7.0      1.482      1.790
REMARK  Name = 
REMARK  4 active torsions:
REMARK  status: ('A' for Active; 'I' for Inactive)
REMARK    1  A    between atoms: C_1  and  C_2
REMARK    2  A    between atoms: C_2  and  C_3
REMARK    3  A    between atoms: C_4  and  C_6
REMARK    4  A    between atoms: C_13  and  N_14
REMARK                            x       y       z     vdW  Elec       q    Type
REMARK                         _______ _______ _______ _____ _____    ______ ____
ROOT
ATOM      1  C   UNL     1       4.205   5.834  18.307  0.00  0.00    +0.000 A 
ATOM      2  C   UNL     1       3.202   6.724  18.661  0.00  0.00    +0.000 A 
ATOM      3  C   UNL     1       2.143   6.251  19.426  0.00  0.00    +0.000 A 
ATOM      4  C   UNL     1       2.106   4.909  19.821  0.00  0.00    +0.000 A 
ATOM      5  C   UNL     1       1.027   4.423  20.587  0.00  0.00    +0.000 A 
ATOM      6  C   UNL     1       0.966   3.085  20.971  0.00  0.00    +0.000 A 
ATOM      7  C   UNL     1       1.987   2.225  20.596  0.00  0.00    +0.000 A 
ATOM      8  C   UNL     1       3.060   2.730  19.842  0.00  0.00    +0.000 A 
ATOM      9  C   UNL     1       3.164   4.059  19.427  0.00  0.00    +0.000 A 
ATOM     10  N   UNL     1       4.190   4.530  18.678  0.00  0.00    +0.000 NA
ENDROOT
BRANCH   1  14
ATOM     11  C   UNL     1       7.753   6.691  16.962  0.00  0.00    +0.000 C 
ATOM     12  C   UNL     1       6.631   6.243  17.864  0.00  0.00    +0.000 C 
ATOM     13  C   UNL     1       7.050   5.739  19.222  0.00  0.00    +0.000 C 
ATOM     14  C   UNL     1       5.338   6.266  17.470  0.00  0.00    +0.000 C 
ATOM     15 CL   UNL     1       4.868   6.841  15.899  0.00  0.00    +0.000 Cl
ENDBRANCH   1  14
BRANCH   8  16
ATOM     16  N   UNL     1       4.104   1.797  19.470  0.00  0.00    +0.000 N 
ATOM     17  O   UNL     1       3.893   1.094  18.471  0.00  0.00    +0.000 OA
ATOM     18  O   UNL     1       5.078   1.694  20.229  0.00  0.00    +0.000 OA
ENDBRANCH   8  16
TORSDOF 2
ENDMDL
MODEL 5
REMARK VINA RESULT:      -6.8      1.178      1.457
REMARK  Name = 
REMARK  4 active torsions:
REMARK  status: ('A' for Active; 'I' for Inactive)
REMARK    1  A    between atoms: C_1  and  C_2
REMARK    2  A    between atoms: C_2  and  C_3
REMARK    3  A    between atoms: C_4  and  C_6
REMARK    4  A    between atoms: C_13  and  N_14
REMARK                            x       y       z     vdW  Elec       q    Type
REMARK                         _______ _______ _______ _____ _____    ______ ____
ROOT
ATOM      1  C   UNL     1       4.567   5.192  17.231  0.00  0.00    +0.000 A 
ATOM      2  C   UNL     1       3.797   6.329  17.422  0.00  0.00    +0.000 A 
ATOM      3  C   UNL     1       2.899   6.345  18.482  0.00  0.00    +0.000 A 
ATOM      4  C   UNL     1       2.787   5.233  19.325  0.00  0.00    +0.000 A 
ATOM      5  C   UNL     1       1.867   5.241  20.394  0.00  0.00    +0.000 A 
ATOM      6  C   UNL     1       1.731   4.135  21.230  0.00  0.00    +0.000 A 
ATOM      7  C   UNL     1       2.518   3.015  21.006  0.00  0.00    +0.000 A 
ATOM      8  C   UNL     1       3.436   3.029  19.942  0.00  0.00    +0.000 A 
ATOM      9  C   UNL     1       3.605   4.109  19.074  0.00  0.00    +0.000 A 
ATOM     10  N   UNL     1       4.476   4.103  18.036  0.00  0.00    +0.000 NA
ENDROOT
BRANCH   1  14
ATOM     11  C   UNL     1       7.712   5.442  14.956  0.00  0.00    +0.000 C 
ATOM     12  C   UNL     1       6.782   5.570  16.136  0.00  0.00    +0.000 C 
ATOM     13  C   UNL     1       7.369   6.228  17.359  0.00  0.00    +0.000 C 
ATOM     14  C   UNL     1       5.514   5.100  16.107  0.00  0.00    +0.000 C 
ATOM     15 CL   UNL     1       4.851   4.336  14.694  0.00  0.00    +0.000 Cl
ENDBRANCH   1  14
BRANCH   8  16
ATOM     16  N   UNL     1       4.236   1.839  19.743  0.00  0.00    +0.000 N 
ATOM     17  O   UNL     1       3.858   1.056  18.859  0.00  0.00    +0.000 OA
ATOM     18  O   UNL     1       5.169   1.636  20.531  0.00  0.00    +0.000 OA
ENDBRANCH   8  16
TORSDOF 2
ENDMDL
MODEL 6
REMARK VINA RESULT:      -6.7      3.078      5.657
REMARK  Name = 
REMARK  4 active torsions:
REMARK  status: ('A' for Active; 'I' for Inactive)
REMARK    1  A    between atoms: C_1  and  C_2
REMARK    2  A    between atoms: C_2  and  C_3
REMARK    3  A    between atoms: C_4  and  C_6
REMARK    4  A    between atoms: C_13  and  N_14
REMARK                            x       y       z     vdW  Elec       q    Type
REMARK                         _______ _______ _______ _____ _____    ______ ____
ROOT
ATOM      1  C   UNL     1       3.199   6.027  18.266  0.00  0.00    +0.000 A 
ATOM      2  C   UNL     1       2.583   4.926  17.692  0.00  0.00    +0.000 A 
ATOM      3  C   UNL     1       3.342   4.101  16.870  0.00  0.00    +0.000 A 
ATOM      4  C   UNL     1       4.691   4.391  16.639  0.00  0.00    +0.000 A 
ATOM      5  C   UNL     1       5.461   3.564  15.795  0.00  0.00    +0.000 A 
ATOM      6  C   UNL     1       6.800   3.850  15.539  0.00  0.00    +0.000 A 
ATOM      7  C   UNL     1       7.381   4.962  16.130  0.00  0.00    +0.000 A 
ATOM      8  C   UNL     1       6.601   5.769  16.976  0.00  0.00    +0.000 A 
ATOM      9  C   UNL     1       5.255   5.528  17.259  0.00  0.00    +0.000 A 
ATOM     10  N   UNL     1       4.505   6.327  18.056  0.00  0.00    +0.000 NA
ENDROOT
BRANCH   1  14
ATOM     11  C   UNL     1       1.169   7.635  21.169  0.00  0.00    +0.000 C 
ATOM     12  C   UNL     1       1.932   6.639  20.332  0.00  0.00    +0.000 C 
ATOM     13  C   UNL     1       2.116   5.276  20.950  0.00  0.00    +0.000 C 
ATOM     14  C   UNL     1       2.441   6.957  19.121  0.00  0.00    +0.000 C 
ATOM     15 CL   UNL     1       2.228   8.534  18.423  0.00  0.00    +0.000 Cl
ENDBRANCH   1  14
BRANCH   8  16
ATOM     16  N   UNL     1       7.245   6.922  17.570  0.00  0.00    +0.000 N 
ATOM     17  O   UNL     1       7.189   7.982  16.931  0.00  0.00    +0.000 OA
ATOM     18  O   UNL     1       7.892   6.744  18.613  0.00  0.00    +0.000 OA
ENDBRANCH   8  16
TORSDOF 2
ENDMDL
MODEL 7
REMARK VINA RESULT:      -6.5      2.646      5.615
REMARK  Name = 
REMARK  4 active torsions:
REMARK  status: ('A' for Active; 'I' for Inactive)
REMARK    1  A    between atoms: C_1  and  C_2
REMARK    2  A    between atoms: C_2  and  C_3
REMARK    3  A    between atoms: C_4  and  C_6
REMARK    4  A    between atoms: C_13  and  N_14
REMARK                            x       y       z     vdW  Elec       q    Type
REMARK                         _______ _______ _______ _____ _____    ______ ____
ROOT
ATOM      1  C   UNL     1       4.022   3.312  18.656  0.00  0.00    +0.000 A 
ATOM      2  C   UNL     1       3.256   2.957  17.557  0.00  0.00    +0.000 A 
ATOM      3  C   UNL     1       3.706   3.324  16.294  0.00  0.00    +0.000 A 
ATOM      4  C   UNL     1       4.905   4.034  16.155  0.00  0.00    +0.000 A 
ATOM      5  C   UNL     1       5.358   4.420  14.877  0.00  0.00    +0.000 A 
ATOM      6  C   UNL     1       6.538   5.143  14.724  0.00  0.00    +0.000 A 
ATOM      7  C   UNL     1       7.277   5.482  15.848  0.00  0.00    +0.000 A 
ATOM      8  C   UNL     1       6.815   5.080  17.113  0.00  0.00    +0.000 A 
ATOM      9  C   UNL     1       5.636   4.360  17.319  0.00  0.00    +0.000 A 
ATOM     10  N   UNL     1       5.186   3.999  18.545  0.00  0.00    +0.000 NA
ENDROOT
BRANCH   1  14
ATOM     11  C   UNL     1       2.077   3.115  22.019  0.00  0.00    +0.000 C 
ATOM     12  C   UNL     1       2.484   3.496  20.618  0.00  0.00    +0.000 C 
ATOM     13  C   UNL     1       1.568   4.467  19.916  0.00  0.00    +0.000 C 
ATOM     14  C   UNL     1       3.583   2.980  20.022  0.00  0.00    +0.000 C 
ATOM     15 CL   UNL     1       4.627   1.856  20.840  0.00  0.00    +0.000 Cl
ENDBRANCH   1  14
BRANCH   8  16
ATOM     16  N   UNL     1       7.614   5.456  18.260  0.00  0.00    +0.000 N 
ATOM     17  O   UNL     1       7.652   6.663  18.542  0.00  0.00    +0.000 OA
ATOM     18  O   UNL     1       8.283   4.569  18.809  0.00  0.00    +0.000 OA
ENDBRANCH   8  16
TORSDOF 2
ENDMDL
MODEL 8
REMARK VINA RESULT:      -6.5      2.518      3.119
REMARK  Name = 
REMARK  4 active torsions:
REMARK  status: ('A' for Active; 'I' for Inactive)
REMARK    1  A    between atoms: C_1  and  C_2
REMARK    2  A    between atoms: C_2  and  C_3
REMARK    3  A    between atoms: C_4  and  C_6
REMARK    4  A    between atoms: C_13  and  N_14
REMARK                            x       y       z     vdW  Elec       q    Type
REMARK                         _______ _______ _______ _____ _____    ______ ____
ROOT
ATOM      1  C   UNL     1       5.170   4.859  18.055  0.00  0.00    +0.000 A 
ATOM      2  C   UNL     1       5.173   3.938  17.019  0.00  0.00    +0.000 A 
ATOM      3  C   UNL     1       4.116   3.040  16.934  0.00  0.00    +0.000 A 
ATOM      4  C   UNL     1       3.083   3.078  17.879  0.00  0.00    +0.000 A 
ATOM      5  C   UNL     1       2.016   2.160  17.803  0.00  0.00    +0.000 A 
ATOM      6  C   UNL     1       0.992   2.174  18.747  0.00  0.00    +0.000 A 
ATOM      7  C   UNL     1       1.025   3.109  19.771  0.00  0.00    +0.000 A 
ATOM      8  C   UNL     1       2.092   4.023  19.824  0.00  0.00    +0.000 A 
ATOM      9  C   UNL     1       3.144   4.046  18.907  0.00  0.00    +0.000 A 
ATOM     10  N   UNL     1       4.181   4.915  18.982  0.00  0.00    +0.000 NA
ENDROOT
BRANCH   1  14
ATOM     11  C   UNL     1       7.672   7.803  17.601  0.00  0.00    +0.000 C 
ATOM     12  C   UNL     1       6.525   6.848  17.382  0.00  0.00    +0.000 C 
ATOM     13  C   UNL     1       5.655   7.141  16.185  0.00  0.00    +0.000 C 
ATOM     14  C   UNL     1       6.278   5.816  18.218  0.00  0.00    +0.000 C 
ATOM     15 CL   UNL     1       7.283   5.494  19.599  0.00  0.00    +0.000 Cl
ENDBRANCH   1  14
BRANCH   8  16
ATOM     16  N   UNL     1       2.089   4.980  20.911  0.00  0.00    +0.000 N 
ATOM     17  O   UNL     1       2.448   4.564  22.021  0.00  0.00    +0.000 OA
ATOM     18  O   UNL     1       1.633   6.109  20.679  0.00  0.00    +0.000 OA
ENDBRANCH   8  16
TORSDOF 2
ENDMDL
MODEL 9
REMARK VINA RESULT:      -6.3      2.780      3.469
REMARK  Name = 
REMARK  4 active torsions:
REMARK  status: ('A' for Active; 'I' for Inactive)
REMARK    1  A    between atoms: C_1  and  C_2
REMARK    2  A    between atoms: C_2  and  C_3
REMARK    3  A    between atoms: C_4  and  C_6
REMARK    4  A    between atoms: C_13  and  N_14
REMARK                            x       y       z     vdW  Elec       q    Type
REMARK                         _______ _______ _______ _____ _____    ______ ____
ROOT
ATOM      1  C   UNL     1       4.710   5.100  17.603  0.00  0.00    +0.000 A 
ATOM      2  C   UNL     1       4.781   3.772  17.211  0.00  0.00    +0.000 A 
ATOM      3  C   UNL     1       3.850   2.882  17.731  0.00  0.00    +0.000 A 
ATOM      4  C   UNL     1       2.873   3.331  18.627  0.00  0.00    +0.000 A 
ATOM      5  C   UNL     1       1.935   2.427  19.166  0.00  0.00    +0.000 A 
ATOM      6  C   UNL     1       0.968   2.855  20.074  0.00  0.00    +0.000 A 
ATOM      7  C   UNL     1       0.930   4.191  20.444  0.00  0.00    +0.000 A 
ATOM      8  C   UNL     1       1.867   5.079  19.888  0.00  0.00    +0.000 A 
ATOM      9  C   UNL     1       2.858   4.698  18.981  0.00  0.00    +0.000 A 
ATOM     10  N   UNL     1       3.772   5.558  18.470  0.00  0.00    +0.000 NA
ENDROOT
BRANCH   1  14
ATOM     11  C   UNL     1       7.797   7.434  17.206  0.00  0.00    +0.000 C 
ATOM     12  C   UNL     1       6.827   6.419  17.759  0.00  0.00    +0.000 C 
ATOM     13  C   UNL     1       7.229   5.781  19.065  0.00  0.00    +0.000 C 
ATOM     14  C   UNL     1       5.688   6.087  17.112  0.00  0.00    +0.000 C 
ATOM     15 CL   UNL     1       5.240   6.825  15.604  0.00  0.00    +0.000 Cl
ENDBRANCH   1  14
BRANCH   8  16
ATOM     16  N   UNL     1       1.794   6.464  20.304  0.00  0.00    +0.000 N 
ATOM     17  O   UNL     1       1.208   6.695  21.371  0.00  0.00    +0.000 OA
ATOM     18  O   UNL     1       2.224   7.322  19.519  0.00  0.00    +0.000 OA
ENDBRANCH   8  16
TORSDOF 2
ENDMDL
