MODEL 1
REMARK VINA RESULT:      -7.5      0.000      0.000
REMARK  Name = 
REMARK  6 active torsions:
REMARK  status: ('A' for Active; 'I' for Inactive)
REMARK    1  A    between atoms: C_1  and  C_2
REMARK    2  A    between atoms: C_2  and  O_3
REMARK    3  A    between atoms: C_4  and  O_5
REMARK    4  A    between atoms: C_6  and  C_7
REMARK    5  A    between atoms: C_7  and  O_8
REMARK    6  A    between atoms: C_10  and  N_11
REMARK                            x       y       z     vdW  Elec       q    Type
REMARK                         _______ _______ _______ _____ _____    ______ ____
ROOT
ATOM      1  C   UNL     1       3.145   6.685  18.201  0.00  0.00    +0.000 C 
ATOM      2  C   UNL     1       3.564   5.510  19.078  0.00  0.00    +0.000 C 
ATOM      3  C   UNL     1       2.912   4.177  18.715  0.00  0.00    +0.000 C 
ATOM      4  C   UNL     1       3.851   3.182  19.400  0.00  0.00    +0.000 C 
ATOM      5  O   UNL     1       5.184   3.723  19.278  0.00  0.00    +0.000 OA
ATOM      6  C   UNL     1       5.070   5.157  19.087  0.00  0.00    +0.000 C 
ENDROOT
BRANCH   6   7
ATOM      7  N   UNL     1       5.864   5.516  17.931  0.00  0.00    +0.000 N 
ATOM      8  C   UNL     1       6.839   6.480  17.903  0.00  0.00    +0.000 A 
ATOM      9  N   UNL     1       7.468   6.517  16.746  0.00  0.00    +0.000 NA
ATOM     10  C   UNL     1       6.868   5.531  15.988  0.00  0.00    +0.000 A 
ATOM     11  C   UNL     1       7.094   5.052  14.684  0.00  0.00    +0.000 A 
ATOM     12  N   UNL     1       8.113   5.517  13.868  0.00  0.00    +0.000 N 
ATOM     13  N   UNL     1       6.269   4.101  14.191  0.00  0.00    +0.000 NA
ATOM     14  C   UNL     1       5.298   3.617  14.990  0.00  0.00    +0.000 A 
ATOM     15  N   UNL     1       5.026   3.962  16.262  0.00  0.00    +0.000 NA
ATOM     16  C   UNL     1       5.847   4.926  16.698  0.00  0.00    +0.000 A 
ATOM     17  H   UNL     1       8.483   6.420  14.140  0.00  0.00    +0.000 HD
ATOM     18  H   UNL     1       7.932   5.346  12.888  0.00  0.00    +0.000 HD
ENDBRANCH   6   7
BRANCH   2  19
ATOM     19  O   UNL     1       3.162   5.843  20.434  0.00  0.00    +0.000 OA
ATOM     20  H   UNL     1       3.841   5.468  21.028  0.00  0.00    +0.000 HD
ENDBRANCH   2  19
BRANCH   3  21
ATOM     21  O   UNL     1       1.567   4.105  19.186  0.00  0.00    +0.000 OA
ATOM     22  H   UNL     1       1.071   4.835  18.778  0.00  0.00    +0.000 HD
ENDBRANCH   3  21
BRANCH   4  23
ATOM     23  C   UNL     1       3.811   1.762  18.831  0.00  0.00    +0.000 C 
BRANCH  23  24
ATOM     24  O   UNL     1       2.550   1.440  18.255  0.00  0.00    +0.000 OA
ATOM     25  H   UNL     1       2.513   0.466  18.176  0.00  0.00    +0.000 HD
ENDBRANCH  23  24
ENDBRANCH   4  23
TORSDOF 5
ENDMDL
MODEL 2
REMARK VINA RESULT:      -7.3      3.017      5.204
REMARK  Name = 
REMARK  6 active torsions:
REMARK  status: ('A' for Active; 'I' for Inactive)
REMARK    1  A    between atoms: C_1  and  C_2
REMARK    2  A    between atoms: C_2  and  O_3
REMARK    3  A    between atoms: C_4  and  O_5
REMARK    4  A    between atoms: C_6  and  C_7
REMARK    5  A    between atoms: C_7  and  O_8
REMARK    6  A    between atoms: C_10  and  N_11
REMARK                            x       y       z     vdW  Elec       q    Type
REMARK                         _______ _______ _______ _____ _____    ______ ____
ROOT
ATOM      1  C   UNL     1       6.658   5.201  19.354  0.00  0.00    +0.000 C 
ATOM      2  C   UNL     1       6.387   5.729  17.951  0.00  0.00    +0.000 C 
ATOM      3  C   UNL     1       6.601   4.712  16.832  0.00  0.00    +0.000 C 
ATOM      4  C   UNL     1       5.818   5.351  15.683  0.00  0.00    +0.000 C 
ATOM      5  O   UNL     1       4.659   5.976  16.274  0.00  0.00    +0.000 OA
ATOM      6  C   UNL     1       4.954   6.241  17.671  0.00  0.00    +0.000 C 
ENDROOT
BRANCH   6   7
ATOM      7  N   UNL     1       3.869   5.704  18.464  0.00  0.00    +0.000 N 
ATOM      8  C   UNL     1       3.111   6.415  19.361  0.00  0.00    +0.000 A 
ATOM      9  N   UNL     1       2.127   5.695  19.859  0.00  0.00    +0.000 NA
ATOM     10  C   UNL     1       2.256   4.459  19.258  0.00  0.00    +0.000 A 
ATOM     11  C   UNL     1       1.510   3.268  19.343  0.00  0.00    +0.000 A 
ATOM     12  N   UNL     1       0.354   3.146  20.098  0.00  0.00    +0.000 N 
ATOM     13  N   UNL     1       1.946   2.181  18.668  0.00  0.00    +0.000 NA
ATOM     14  C   UNL     1       3.048   2.301  17.902  0.00  0.00    +0.000 A 
ATOM     15  N   UNL     1       3.805   3.397  17.708  0.00  0.00    +0.000 NA
ATOM     16  C   UNL     1       3.354   4.438  18.418  0.00  0.00    +0.000 A 
ATOM     17  H   UNL     1       0.251   3.852  20.817  0.00  0.00    +0.000 HD
ATOM     18  H   UNL     1       0.147   2.184  20.334  0.00  0.00    +0.000 HD
ENDBRANCH   6   7
BRANCH   2  19
ATOM     19  O   UNL     1       7.316   6.825  17.735  0.00  0.00    +0.000 OA
ATOM     20  H   UNL     1       6.947   7.602  18.198  0.00  0.00    +0.000 HD
ENDBRANCH   2  19
BRANCH   3  21
ATOM     21  O   UNL     1       7.987   4.534  16.543  0.00  0.00    +0.000 OA
ATOM     22  H   UNL     1       8.076   4.419  15.581  0.00  0.00    +0.000 HD
ENDBRANCH   3  21
BRANCH   4  23
ATOM     23  C   UNL     1       5.383   4.383  14.582  0.00  0.00    +0.000 C 
BRANCH  23  24
ATOM     24  O   UNL     1       6.356   3.376  14.325  0.00  0.00    +0.000 OA
ATOM     25  H   UNL     1       5.917   2.513  14.464  0.00  0.00    +0.000 HD
ENDBRANCH  23  24
ENDBRANCH   4  23
TORSDOF 5
ENDMDL
MODEL 3
REMARK VINA RESULT:      -7.3      3.100      5.377
REMARK  Name = 
REMARK  6 active torsions:
REMARK  status: ('A' for Active; 'I' for Inactive)
REMARK    1  A    between atoms: C_1  and  C_2
REMARK    2  A    between atoms: C_2  and  O_3
REMARK    3  A    between atoms: C_4  and  O_5
REMARK    4  A    between atoms: C_6  and  C_7
REMARK    5  A    between atoms: C_7  and  O_8
REMARK    6  A    between atoms: C_10  and  N_11
REMARK                            x       y       z     vdW  Elec       q    Type
REMARK                         _______ _______ _______ _____ _____    ______ ____
ROOT
ATOM      1  C   UNL     1       4.599   6.640  16.443  0.00  0.00    +0.000 C 
ATOM      2  C   UNL     1       5.876   5.921  16.860  0.00  0.00    +0.000 C 
ATOM      3  C   UNL     1       6.848   6.767  17.681  0.00  0.00    +0.000 C 
ATOM      4  C   UNL     1       7.725   5.689  18.323  0.00  0.00    +0.000 C 
ATOM      5  O   UNL     1       6.857   4.574  18.616  0.00  0.00    +0.000 OA
ATOM      6  C   UNL     1       5.704   4.659  17.738  0.00  0.00    +0.000 C 
ENDROOT
BRANCH   6   7
ATOM      7  N   UNL     1       4.514   4.552  18.555  0.00  0.00    +0.000 N 
ATOM      8  C   UNL     1       4.141   5.435  19.538  0.00  0.00    +0.000 A 
ATOM      9  N   UNL     1       2.960   5.144  20.043  0.00  0.00    +0.000 NA
ATOM     10  C   UNL     1       2.551   4.018  19.358  0.00  0.00    +0.000 A 
ATOM     11  C   UNL     1       1.382   3.235  19.407  0.00  0.00    +0.000 A 
ATOM     12  N   UNL     1       0.298   3.536  20.218  0.00  0.00    +0.000 N 
ATOM     13  N   UNL     1       1.312   2.125  18.640  0.00  0.00    +0.000 NA
ATOM     14  C   UNL     1       2.346   1.844  17.822  0.00  0.00    +0.000 A 
ATOM     15  N   UNL     1       3.483   2.545  17.656  0.00  0.00    +0.000 NA
ATOM     16  C   UNL     1       3.521   3.617  18.457  0.00  0.00    +0.000 A 
ATOM     17  H   UNL     1       0.515   4.161  20.985  0.00  0.00    +0.000 HD
ATOM     18  H   UNL     1      -0.282   2.729  20.402  0.00  0.00    +0.000 HD
ENDBRANCH   6   7
BRANCH   2  19
ATOM     19  O   UNL     1       6.554   5.538  15.633  0.00  0.00    +0.000 OA
ATOM     20  H   UNL     1       7.349   6.102  15.564  0.00  0.00    +0.000 HD
ENDBRANCH   2  19
BRANCH   3  21
ATOM     21  O   UNL     1       7.578   7.676  16.858  0.00  0.00    +0.000 OA
ATOM     22  H   UNL     1       7.113   8.530  16.876  0.00  0.00    +0.000 HD
ENDBRANCH   3  21
BRANCH   4  23
ATOM     23  C   UNL     1       8.459   6.126  19.592  0.00  0.00    +0.000 C 
BRANCH  23  24
ATOM     24  O   UNL     1       8.182   5.279  20.701  0.00  0.00    +0.000 OA
ATOM     25  H   UNL     1       9.031   5.124  21.161  0.00  0.00    +0.000 HD
ENDBRANCH  23  24
ENDBRANCH   4  23
TORSDOF 5
ENDMDL
MODEL 4
REMARK VINA RESULT:      -7.3      3.138      5.873
REMARK  Name = 
REMARK  6 active torsions:
REMARK  status: ('A' for Active; 'I' for Inactive)
REMARK    1  A    between atoms: C_1  and  C_2
REMARK    2  A    between atoms: C_2  and  O_3
REMARK    3  A    between atoms: C_4  and  O_5
REMARK    4  A    between atoms: C_6  and  C_7
REMARK    5  A    between atoms: C_7  and  O_8
REMARK    6  A    between atoms: C_10  and  N_11
REMARK                            x       y       z     vdW  Elec       q    Type
REMARK                         _______ _______ _______ _____ _____    ______ ____
ROOT
ATOM      1  C   UNL     1       5.589   3.856  16.233  0.00  0.00    +0.000 C 
ATOM      2  C   UNL     1       6.640   4.659  16.989  0.00  0.00    +0.000 C 
ATOM      3  C   UNL     1       6.922   6.045  16.412  0.00  0.00    +0.000 C 
ATOM      4  C   UNL     1       7.597   6.738  17.598  0.00  0.00    +0.000 C 
ATOM      5  O   UNL     1       6.939   6.252  18.787  0.00  0.00    +0.000 OA
ATOM      6  C   UNL     1       6.338   4.968  18.474  0.00  0.00    +0.000 C 
ENDROOT
BRANCH   6   7
ATOM      7  N   UNL     1       4.954   5.010  18.896  0.00  0.00    +0.000 N 
ATOM      8  C   UNL     1       4.077   6.036  18.650  0.00  0.00    +0.000 A 
ATOM      9  N   UNL     1       2.858   5.756  19.060  0.00  0.00    +0.000 NA
ATOM     10  C   UNL     1       2.950   4.489  19.600  0.00  0.00    +0.000 A 
ATOM     11  C   UNL     1       2.005   3.621  20.179  0.00  0.00    +0.000 A 
ATOM     12  N   UNL     1       0.653   3.915  20.265  0.00  0.00    +0.000 N 
ATOM     13  N   UNL     1       2.434   2.446  20.692  0.00  0.00    +0.000 NA
ATOM     14  C   UNL     1       3.740   2.135  20.581  0.00  0.00    +0.000 A 
ATOM     15  N   UNL     1       4.716   2.862  20.006  0.00  0.00    +0.000 NA
ATOM     16  C   UNL     1       4.252   4.028  19.539  0.00  0.00    +0.000 A 
ATOM     17  H   UNL     1       0.436   4.900  20.172  0.00  0.00    +0.000 HD
ATOM     18  H   UNL     1       0.188   3.385  20.989  0.00  0.00    +0.000 HD
ENDBRANCH   6   7
BRANCH   2  19
ATOM     19  O   UNL     1       7.874   3.894  16.920  0.00  0.00    +0.000 OA
ATOM     20  H   UNL     1       8.356   4.209  16.131  0.00  0.00    +0.000 HD
ENDBRANCH   2  19
BRANCH   3  21
ATOM     21  O   UNL     1       7.750   5.973  15.252  0.00  0.00    +0.000 OA
ATOM     22  H   UNL     1       8.602   6.388  15.470  0.00  0.00    +0.000 HD
ENDBRANCH   3  21
BRANCH   4  23
ATOM     23  C   UNL     1       7.548   8.267  17.564  0.00  0.00    +0.000 C 
BRANCH  23  24
ATOM     24  O   UNL     1       8.517   8.863  18.420  0.00  0.00    +0.000 OA
ATOM     25  H   UNL     1       9.397   8.635  18.057  0.00  0.00    +0.000 HD
ENDBRANCH  23  24
ENDBRANCH   4  23
TORSDOF 5
ENDMDL
MODEL 5
REMARK VINA RESULT:      -7.1      1.589      2.627
REMARK  Name = 
REMARK  6 active torsions:
REMARK  status: ('A' for Active; 'I' for Inactive)
REMARK    1  A    between atoms: C_1  and  C_2
REMARK    2  A    between atoms: C_2  and  O_3
REMARK    3  A    between atoms: C_4  and  O_5
REMARK    4  A    between atoms: C_6  and  C_7
REMARK    5  A    between atoms: C_7  and  O_8
REMARK    6  A    between atoms: C_10  and  N_11
REMARK                            x       y       z     vdW  Elec       q    Type
REMARK                         _______ _______ _______ _____ _____    ______ ____
ROOT
ATOM      1  C   UNL     1       2.742   6.193  19.437  0.00  0.00    +0.000 C 
ATOM      2  C   UNL     1       2.673   4.804  20.060  0.00  0.00    +0.000 C 
ATOM      3  C   UNL     1       1.455   3.979  19.649  0.00  0.00    +0.000 C 
ATOM      4  C   UNL     1       1.908   2.563  20.015  0.00  0.00    +0.000 C 
ATOM      5  O   UNL     1       3.321   2.496  19.725  0.00  0.00    +0.000 OA
ATOM      6  C   UNL     1       3.849   3.848  19.749  0.00  0.00    +0.000 C 
ENDROOT
BRANCH   6   7
ATOM      7  N   UNL     1       4.593   4.056  18.525  0.00  0.00    +0.000 N 
ATOM      8  C   UNL     1       4.223   3.607  17.282  0.00  0.00    +0.000 A 
ATOM      9  N   UNL     1       5.037   4.033  16.339  0.00  0.00    +0.000 NA
ATOM     10  C   UNL     1       5.980   4.791  17.003  0.00  0.00    +0.000 A 
ATOM     11  C   UNL     1       7.095   5.534  16.568  0.00  0.00    +0.000 A 
ATOM     12  N   UNL     1       7.437   5.682  15.233  0.00  0.00    +0.000 N 
ATOM     13  N   UNL     1       7.883   6.122  17.496  0.00  0.00    +0.000 NA
ATOM     14  C   UNL     1       7.538   6.013  18.793  0.00  0.00    +0.000 A 
ATOM     15  N   UNL     1       6.473   5.375  19.315  0.00  0.00    +0.000 NA
ATOM     16  C   UNL     1       5.739   4.784  18.364  0.00  0.00    +0.000 A 
ATOM     17  H   UNL     1       7.031   4.985  14.621  0.00  0.00    +0.000 HD
ATOM     18  H   UNL     1       8.411   5.926  15.109  0.00  0.00    +0.000 HD
ENDBRANCH   6   7
BRANCH   2  19
ATOM     19  O   UNL     1       2.608   4.999  21.499  0.00  0.00    +0.000 OA
ATOM     20  H   UNL     1       3.231   4.360  21.897  0.00  0.00    +0.000 HD
ENDBRANCH   2  19
BRANCH   3  21
ATOM     21  O   UNL     1       0.280   4.395  20.344  0.00  0.00    +0.000 OA
ATOM     22  H   UNL     1      -0.371   3.675  20.281  0.00  0.00    +0.000 HD
ENDBRANCH   3  21
BRANCH   4  23
ATOM     23  C   UNL     1       1.172   1.441  19.281  0.00  0.00    +0.000 C 
BRANCH  23  24
ATOM     24  O   UNL     1       0.247   1.934  18.318  0.00  0.00    +0.000 OA
ATOM     25  H   UNL     1       0.293   2.910  18.351  0.00  0.00    +0.000 HD
ENDBRANCH  23  24
ENDBRANCH   4  23
TORSDOF 5
ENDMDL
MODEL 6
REMARK VINA RESULT:      -7.1      3.471      5.591
REMARK  Name = 
REMARK  6 active torsions:
REMARK  status: ('A' for Active; 'I' for Inactive)
REMARK    1  A    between atoms: C_1  and  C_2
REMARK    2  A    between atoms: C_2  and  O_3
REMARK    3  A    between atoms: C_4  and  O_5
REMARK    4  A    between atoms: C_6  and  C_7
REMARK    5  A    between atoms: C_7  and  O_8
REMARK    6  A    between atoms: C_10  and  N_11
REMARK                            x       y       z     vdW  Elec       q    Type
REMARK                         _______ _______ _______ _____ _____    ______ ____
ROOT
ATOM      1  C   UNL     1       1.741   4.349  17.878  0.00  0.00    +0.000 C 
ATOM      2  C   UNL     1       3.038   4.284  18.675  0.00  0.00    +0.000 C 
ATOM      3  C   UNL     1       4.283   3.977  17.846  0.00  0.00    +0.000 C 
ATOM      4  C   UNL     1       5.398   4.447  18.783  0.00  0.00    +0.000 C 
ATOM      5  O   UNL     1       4.897   5.618  19.462  0.00  0.00    +0.000 OA
ATOM      6  C   UNL     1       3.447   5.568  19.434  0.00  0.00    +0.000 C 
ENDROOT
BRANCH   6   7
ATOM      7  N   UNL     1       2.967   6.840  18.937  0.00  0.00    +0.000 N 
ATOM      8  C   UNL     1       3.264   7.378  17.710  0.00  0.00    +0.000 A 
ATOM      9  N   UNL     1       2.604   8.495  17.485  0.00  0.00    +0.000 NA
ATOM     10  C   UNL     1       1.846   8.691  18.622  0.00  0.00    +0.000 A 
ATOM     11  C   UNL     1       0.915   9.679  18.997  0.00  0.00    +0.000 A 
ATOM     12  N   UNL     1       0.526  10.714  18.162  0.00  0.00    +0.000 N 
ATOM     13  N   UNL     1       0.383   9.629  20.239  0.00  0.00    +0.000 NA
ATOM     14  C   UNL     1       0.728   8.606  21.045  0.00  0.00    +0.000 A 
ATOM     15  N   UNL     1       1.563   7.585  20.773  0.00  0.00    +0.000 NA
ATOM     16  C   UNL     1       2.088   7.691  19.547  0.00  0.00    +0.000 A 
ATOM     17  H   UNL     1       1.167  10.895  17.399  0.00  0.00    +0.000 HD
ATOM     18  H   UNL     1       0.150  11.502  18.673  0.00  0.00    +0.000 HD
ENDBRANCH   6   7
BRANCH   2  19
ATOM     19  O   UNL     1       2.875   3.211  19.641  0.00  0.00    +0.000 OA
ATOM     20  H   UNL     1       1.914   3.075  19.750  0.00  0.00    +0.000 HD
ENDBRANCH   2  19
BRANCH   3  21
ATOM     21  O   UNL     1       4.366   2.591  17.516  0.00  0.00    +0.000 OA
ATOM     22  H   UNL     1       5.177   2.239  17.921  0.00  0.00    +0.000 HD
ENDBRANCH   3  21
BRANCH   4  23
ATOM     23  C   UNL     1       6.725   4.770  18.095  0.00  0.00    +0.000 C 
BRANCH  23  24
ATOM     24  O   UNL     1       6.913   4.029  16.895  0.00  0.00    +0.000 OA
ATOM     25  H   UNL     1       6.147   4.221  16.318  0.00  0.00    +0.000 HD
ENDBRANCH  23  24
ENDBRANCH   4  23
TORSDOF 5
ENDMDL
MODEL 7
REMARK VINA RESULT:      -7.1      3.096      5.656
REMARK  Name = 
REMARK  6 active torsions:
REMARK  status: ('A' for Active; 'I' for Inactive)
REMARK    1  A    between atoms: C_1  and  C_2
REMARK    2  A    between atoms: C_2  and  O_3
REMARK    3  A    between atoms: C_4  and  O_5
REMARK    4  A    between atoms: C_6  and  C_7
REMARK    5  A    between atoms: C_7  and  O_8
REMARK    6  A    between atoms: C_10  and  N_11
REMARK                            x       y       z     vdW  Elec       q    Type
REMARK                         _______ _______ _______ _____ _____    ______ ____
ROOT
ATOM      1  C   UNL     1       4.913   4.383  15.979  0.00  0.00    +0.000 C 
ATOM      2  C   UNL     1       6.190   4.533  16.797  0.00  0.00    +0.000 C 
ATOM      3  C   UNL     1       6.802   5.932  16.775  0.00  0.00    +0.000 C 
ATOM      4  C   UNL     1       7.715   5.885  18.003  0.00  0.00    +0.000 C 
ATOM      5  O   UNL     1       7.027   5.096  18.997  0.00  0.00    +0.000 OA
ATOM      6  C   UNL     1       6.080   4.236  18.311  0.00  0.00    +0.000 C 
ENDROOT
BRANCH   6   7
ATOM      7  N   UNL     1       4.790   4.399  18.947  0.00  0.00    +0.000 N 
ATOM      8  C   UNL     1       4.309   5.566  19.485  0.00  0.00    +0.000 A 
ATOM      9  N   UNL     1       3.066   5.444  19.902  0.00  0.00    +0.000 NA
ATOM     10  C   UNL     1       2.727   4.135  19.623  0.00  0.00    +0.000 A 
ATOM     11  C   UNL     1       1.545   3.391  19.800  0.00  0.00    +0.000 A 
ATOM     12  N   UNL     1       0.370   3.934  20.296  0.00  0.00    +0.000 N 
ATOM     13  N   UNL     1       1.554   2.077  19.485  0.00  0.00    +0.000 NA
ATOM     14  C   UNL     1       2.680   1.548  18.968  0.00  0.00    +0.000 A 
ATOM     15  N   UNL     1       3.845   2.174  18.710  0.00  0.00    +0.000 NA
ATOM     16  C   UNL     1       3.799   3.464  19.065  0.00  0.00    +0.000 A 
ATOM     17  H   UNL     1       0.496   4.800  20.806  0.00  0.00    +0.000 HD
ATOM     18  H   UNL     1      -0.246   3.232  20.683  0.00  0.00    +0.000 HD
ENDBRANCH   6   7
BRANCH   2  19
ATOM     19  O   UNL     1       7.161   3.618  16.219  0.00  0.00    +0.000 OA
ATOM     20  H   UNL     1       8.036   3.887  16.559  0.00  0.00    +0.000 HD
ENDBRANCH   2  19
BRANCH   3  21
ATOM     21  O   UNL     1       7.503   6.181  15.557  0.00  0.00    +0.000 OA
ATOM     22  H   UNL     1       8.428   6.375  15.782  0.00  0.00    +0.000 HD
ENDBRANCH   3  21
BRANCH   4  23
ATOM     23  C   UNL     1       8.084   7.250  18.585  0.00  0.00    +0.000 C 
BRANCH  23  24
ATOM     24  O   UNL     1       7.905   8.309  17.650  0.00  0.00    +0.000 OA
ATOM     25  H   UNL     1       8.584   8.195  16.956  0.00  0.00    +0.000 HD
ENDBRANCH  23  24
ENDBRANCH   4  23
TORSDOF 5
ENDMDL
MODEL 8
REMARK VINA RESULT:      -7.0      2.885      5.505
REMARK  Name = 
REMARK  6 active torsions:
REMARK  status: ('A' for Active; 'I' for Inactive)
REMARK    1  A    between atoms: C_1  and  C_2
REMARK    2  A    between atoms: C_2  and  O_3
REMARK    3  A    between atoms: C_4  and  O_5
REMARK    4  A    between atoms: C_6  and  C_7
REMARK    5  A    between atoms: C_7  and  O_8
REMARK    6  A    between atoms: C_10  and  N_11
REMARK                            x       y       z     vdW  Elec       q    Type
REMARK                         _______ _______ _______ _____ _____    ______ ____
ROOT
ATOM      1  C   UNL     1       5.116   6.162  15.609  0.00  0.00    +0.000 C 
ATOM      2  C   UNL     1       6.297   5.639  16.416  0.00  0.00    +0.000 C 
ATOM      3  C   UNL     1       6.781   6.576  17.522  0.00  0.00    +0.000 C 
ATOM      4  C   UNL     1       7.583   5.618  18.405  0.00  0.00    +0.000 C 
ATOM      5  O   UNL     1       6.884   4.355  18.382  0.00  0.00    +0.000 OA
ATOM      6  C   UNL     1       6.081   4.308  17.173  0.00  0.00    +0.000 C 
ENDROOT
BRANCH   6   7
ATOM      7  N   UNL     1       4.732   3.946  17.550  0.00  0.00    +0.000 N 
ATOM      8  C   UNL     1       4.052   2.838  17.110  0.00  0.00    +0.000 A 
ATOM      9  N   UNL     1       2.882   2.708  17.700  0.00  0.00    +0.000 NA
ATOM     10  C   UNL     1       2.799   3.784  18.561  0.00  0.00    +0.000 A 
ATOM     11  C   UNL     1       1.822   4.202  19.484  0.00  0.00    +0.000 A 
ATOM     12  N   UNL     1       0.666   3.484  19.747  0.00  0.00    +0.000 N 
ATOM     13  N   UNL     1       2.008   5.369  20.140  0.00  0.00    +0.000 NA
ATOM     14  C   UNL     1       3.145   6.056  19.918  0.00  0.00    +0.000 A 
ATOM     15  N   UNL     1       4.164   5.727  19.101  0.00  0.00    +0.000 NA
ATOM     16  C   UNL     1       3.923   4.582  18.452  0.00  0.00    +0.000 A 
ATOM     17  H   UNL     1       0.419   2.816  19.026  0.00  0.00    +0.000 HD
ATOM     18  H   UNL     1      -0.066   4.060  20.141  0.00  0.00    +0.000 HD
ENDBRANCH   6   7
BRANCH   2  19
ATOM     19  O   UNL     1       7.393   5.462  15.478  0.00  0.00    +0.000 OA
ATOM     20  H   UNL     1       7.999   6.217  15.608  0.00  0.00    +0.000 HD
ENDBRANCH   2  19
BRANCH   3  21
ATOM     21  O   UNL     1       7.561   7.650  16.996  0.00  0.00    +0.000 OA
ATOM     22  H   UNL     1       7.594   8.348  17.672  0.00  0.00    +0.000 HD
ENDBRANCH   3  21
BRANCH   4  23
ATOM     23  C   UNL     1       7.776   6.081  19.850  0.00  0.00    +0.000 C 
BRANCH  23  24
ATOM     24  O   UNL     1       8.460   5.118  20.645  0.00  0.00    +0.000 OA
ATOM     25  H   UNL     1       7.788   4.485  20.967  0.00  0.00    +0.000 HD
ENDBRANCH  23  24
ENDBRANCH   4  23
TORSDOF 5
ENDMDL
MODEL 9
REMARK VINA RESULT:      -6.9      3.219      5.795
REMARK  Name = 
REMARK  6 active torsions:
REMARK  status: ('A' for Active; 'I' for Inactive)
REMARK    1  A    between atoms: C_1  and  C_2
REMARK    2  A    between atoms: C_2  and  O_3
REMARK    3  A    between atoms: C_4  and  O_5
REMARK    4  A    between atoms: C_6  and  C_7
REMARK    5  A    between atoms: C_7  and  O_8
REMARK    6  A    between atoms: C_10  and  N_11
REMARK                            x       y       z     vdW  Elec       q    Type
REMARK                         _______ _______ _______ _____ _____    ______ ____
ROOT
ATOM      1  C   UNL     1       6.062   4.726  19.055  0.00  0.00    +0.000 C 
ATOM      2  C   UNL     1       6.054   5.276  17.633  0.00  0.00    +0.000 C 
ATOM      3  C   UNL     1       6.745   4.388  16.600  0.00  0.00    +0.000 C 
ATOM      4  C   UNL     1       6.166   4.933  15.293  0.00  0.00    +0.000 C 
ATOM      5  O   UNL     1       4.793   5.287  15.567  0.00  0.00    +0.000 OA
ATOM      6  C   UNL     1       4.666   5.519  16.994  0.00  0.00    +0.000 C 
ENDROOT
BRANCH   6   7
ATOM      7  N   UNL     1       3.546   4.737  17.474  0.00  0.00    +0.000 N 
ATOM      8  C   UNL     1       3.084   3.576  16.906  0.00  0.00    +0.000 A 
ATOM      9  N   UNL     1       2.120   3.027  17.616  0.00  0.00    +0.000 NA
ATOM     10  C   UNL     1       1.948   3.874  18.692  0.00  0.00    +0.000 A 
ATOM     11  C   UNL     1       1.099   3.840  19.815  0.00  0.00    +0.000 A 
ATOM     12  N   UNL     1       0.228   2.795  20.078  0.00  0.00    +0.000 N 
ATOM     13  N   UNL     1       1.120   4.883  20.674  0.00  0.00    +0.000 NA
ATOM     14  C   UNL     1       1.989   5.886  20.446  0.00  0.00    +0.000 A 
ATOM     15  N   UNL     1       2.877   5.998  19.439  0.00  0.00    +0.000 NA
ATOM     16  C   UNL     1       2.800   4.959  18.598  0.00  0.00    +0.000 A 
ATOM     17  H   UNL     1       0.015   2.219  19.273  0.00  0.00    +0.000 HD
ATOM     18  H   UNL     1      -0.530   3.069  20.689  0.00  0.00    +0.000 HD
ENDBRANCH   6   7
BRANCH   2  19
ATOM     19  O   UNL     1       6.768   6.541  17.676  0.00  0.00    +0.000 OA
ATOM     20  H   UNL     1       7.673   6.342  17.984  0.00  0.00    +0.000 HD
ENDBRANCH   2  19
BRANCH   3  21
ATOM     21  O   UNL     1       8.165   4.497  16.680  0.00  0.00    +0.000 OA
ATOM     22  H   UNL     1       8.434   5.259  16.140  0.00  0.00    +0.000 HD
ENDBRANCH   3  21
BRANCH   4  23
ATOM     23  C   UNL     1       6.228   3.967  14.108  0.00  0.00    +0.000 C 
BRANCH  23  24
ATOM     24  O   UNL     1       7.050   4.451  13.052  0.00  0.00    +0.000 OA
ATOM     25  H   UNL     1       7.466   5.277  13.369  0.00  0.00    +0.000 HD
ENDBRANCH  23  24
ENDBRANCH   4  23
TORSDOF 5
ENDMDL
