MODEL 1
REMARK VINA RESULT:      -8.7      0.000      0.000
REMARK  Name = 
REMARK  6 active torsions:
REMARK  status: ('A' for Active; 'I' for Inactive)
REMARK    1  A    between atoms: C_1  and  C_2
REMARK    2  A    between atoms: C_2  and  C_3
REMARK    3  A    between atoms: C_4  and  C_5
REMARK    4  A    between atoms: C_5  and  O_6
REMARK    5  A    between atoms: O_6  and  C_7
REMARK    6  A    between atoms: C_14  and  C_15
REMARK                            x       y       z     vdW  Elec       q    Type
REMARK                         _______ _______ _______ _____ _____    ______ ____
ROOT
ATOM      1  C   UNL     1       7.495   7.237  17.809  0.00  0.00    +0.000 A 
ATOM      2  C   UNL     1       7.852   6.388  18.859  0.00  0.00    +0.000 A 
ATOM      3  C   UNL     1       7.020   5.323  19.219  0.00  0.00    +0.000 A 
ATOM      4  C   UNL     1       5.816   5.132  18.541  0.00  0.00    +0.000 A 
ATOM      5  C   UNL     1       5.436   6.003  17.526  0.00  0.00    +0.000 A 
ATOM      6  C   UNL     1       6.275   7.049  17.155  0.00  0.00    +0.000 A 
ATOM      7  O   UNL     1       4.242   5.933  16.854  0.00  0.00    +0.000 OA
ATOM      8  C   UNL     1       3.196   5.271  17.596  0.00  0.00    +0.000 C 
ATOM      9  C   UNL     1       3.679   3.884  18.030  0.00  0.00    +0.000 C 
ATOM     10  C   UNL     1       4.927   4.002  18.858  0.00  0.00    +0.000 C 
ATOM     11  O   UNL     1       5.249   3.164  19.694  0.00  0.00    +0.000 OA
ENDROOT
BRANCH   8  12
ATOM     12  C   UNL     1       2.579   6.165  18.669  0.00  0.00    +0.000 A 
ATOM     13  C   UNL     1       2.227   5.688  19.945  0.00  0.00    +0.000 A 
ATOM     14  C   UNL     1       1.672   6.532  20.910  0.00  0.00    +0.000 A 
ATOM     15  C   UNL     1       1.488   7.883  20.633  0.00  0.00    +0.000 A 
ATOM     16  C   UNL     1       1.869   8.386  19.393  0.00  0.00    +0.000 A 
ATOM     17  C   UNL     1       2.415   7.535  18.432  0.00  0.00    +0.000 A 
ATOM     18  F   UNL     1       2.813   8.070  17.271  0.00  0.00    +0.000 F 
ENDBRANCH   8  12
BRANCH   1  19
ATOM     19  O   UNL     1       8.398   8.219  17.494  0.00  0.00    +0.000 OA
BRANCH  19  20
ATOM     20  C   UNL     1       8.045   9.514  17.986  0.00  0.00    +0.000 C 
BRANCH  20  24
ATOM     21  C   UNL     1      10.879  11.575  19.677  0.00  0.00    +0.000 C 
ATOM     22  C   UNL     1       9.709  11.242  18.794  0.00  0.00    +0.000 C 
ATOM     23  C   UNL     1       9.247  12.303  17.831  0.00  0.00    +0.000 C 
ATOM     24  C   UNL     1       9.141  10.024  18.868  0.00  0.00    +0.000 C 
ENDBRANCH  20  24
ENDBRANCH  19  20
ENDBRANCH   1  19
TORSDOF 4
ENDMDL
MODEL 2
REMARK VINA RESULT:      -8.5      1.042      1.424
REMARK  Name = 
REMARK  6 active torsions:
REMARK  status: ('A' for Active; 'I' for Inactive)
REMARK    1  A    between atoms: C_1  and  C_2
REMARK    2  A    between atoms: C_2  and  C_3
REMARK    3  A    between atoms: C_4  and  C_5
REMARK    4  A    between atoms: C_5  and  O_6
REMARK    5  A    between atoms: O_6  and  C_7
REMARK    6  A    between atoms: C_14  and  C_15
REMARK                            x       y       z     vdW  Elec       q    Type
REMARK                         _______ _______ _______ _____ _____    ______ ____
ROOT
ATOM      1  C   UNL     1       7.379   7.131  17.662  0.00  0.00    +0.000 A 
ATOM      2  C   UNL     1       7.805   6.317  18.715  0.00  0.00    +0.000 A 
ATOM      3  C   UNL     1       7.017   5.242  19.138  0.00  0.00    +0.000 A 
ATOM      4  C   UNL     1       5.789   5.005  18.521  0.00  0.00    +0.000 A 
ATOM      5  C   UNL     1       5.341   5.841  17.504  0.00  0.00    +0.000 A 
ATOM      6  C   UNL     1       6.136   6.897  17.070  0.00  0.00    +0.000 A 
ATOM      7  O   UNL     1       4.120   5.725  16.891  0.00  0.00    +0.000 OA
ATOM      8  C   UNL     1       3.125   5.057  17.696  0.00  0.00    +0.000 C 
ATOM      9  C   UNL     1       3.662   3.694  18.140  0.00  0.00    +0.000 C 
ATOM     10  C   UNL     1       4.944   3.863  18.907  0.00  0.00    +0.000 C 
ATOM     11  O   UNL     1       5.325   3.054  19.746  0.00  0.00    +0.000 OA
ENDROOT
BRANCH   8  12
ATOM     12  C   UNL     1       2.537   5.964  18.774  0.00  0.00    +0.000 A 
ATOM     13  C   UNL     1       2.494   7.365  18.648  0.00  0.00    +0.000 A 
ATOM     14  C   UNL     1       1.941   8.170  19.648  0.00  0.00    +0.000 A 
ATOM     15  C   UNL     1       1.387   7.589  20.784  0.00  0.00    +0.000 A 
ATOM     16  C   UNL     1       1.378   6.203  20.910  0.00  0.00    +0.000 A 
ATOM     17  C   UNL     1       1.940   5.408  19.912  0.00  0.00    +0.000 A 
ATOM     18  F   UNL     1       1.867   4.078  20.050  0.00  0.00    +0.000 F 
ENDBRANCH   8  12
BRANCH   1  19
ATOM     19  O   UNL     1       8.242   8.126  17.282  0.00  0.00    +0.000 OA
BRANCH  19  20
ATOM     20  C   UNL     1       7.918   9.412  17.814  0.00  0.00    +0.000 C 
BRANCH  20  24
ATOM     21  C   UNL     1      10.789  11.465  19.452  0.00  0.00    +0.000 C 
ATOM     22  C   UNL     1       9.569  11.148  18.634  0.00  0.00    +0.000 C 
ATOM     23  C   UNL     1       8.992  12.257  17.796  0.00  0.00    +0.000 C 
ATOM     24  C   UNL     1       9.057   9.902  18.651  0.00  0.00    +0.000 C 
ENDBRANCH  20  24
ENDBRANCH  19  20
ENDBRANCH   1  19
TORSDOF 4
ENDMDL
MODEL 3
REMARK VINA RESULT:      -8.4      3.454      5.807
REMARK  Name = 
REMARK  6 active torsions:
REMARK  status: ('A' for Active; 'I' for Inactive)
REMARK    1  A    between atoms: C_1  and  C_2
REMARK    2  A    between atoms: C_2  and  C_3
REMARK    3  A    between atoms: C_4  and  C_5
REMARK    4  A    between atoms: C_5  and  O_6
REMARK    5  A    between atoms: O_6  and  C_7
REMARK    6  A    between atoms: C_14  and  C_15
REMARK                            x       y       z     vdW  Elec       q    Type
REMARK                         _______ _______ _______ _____ _____    ______ ____
ROOT
ATOM      1  C   UNL     1       6.406   5.047  15.135  0.00  0.00    +0.000 A 
ATOM      2  C   UNL     1       7.419   5.503  15.981  0.00  0.00    +0.000 A 
ATOM      3  C   UNL     1       7.262   5.435  17.369  0.00  0.00    +0.000 A 
ATOM      4  C   UNL     1       6.074   4.936  17.903  0.00  0.00    +0.000 A 
ATOM      5  C   UNL     1       5.045   4.525  17.062  0.00  0.00    +0.000 A 
ATOM      6  C   UNL     1       5.212   4.573  15.682  0.00  0.00    +0.000 A 
ATOM      7  O   UNL     1       3.820   4.087  17.498  0.00  0.00    +0.000 OA
ATOM      8  C   UNL     1       3.461   4.573  18.808  0.00  0.00    +0.000 C 
ATOM      9  C   UNL     1       4.570   4.221  19.804  0.00  0.00    +0.000 C 
ATOM     10  C   UNL     1       5.878   4.809  19.357  0.00  0.00    +0.000 C 
ATOM     11  O   UNL     1       6.781   5.089  20.139  0.00  0.00    +0.000 OA
ENDROOT
BRANCH   8  12
ATOM     12  C   UNL     1       2.975   6.020  18.785  0.00  0.00    +0.000 A 
ATOM     13  C   UNL     1       3.151   6.863  17.671  0.00  0.00    +0.000 A 
ATOM     14  C   UNL     1       2.688   8.181  17.675  0.00  0.00    +0.000 A 
ATOM     15  C   UNL     1       2.006   8.678  18.782  0.00  0.00    +0.000 A 
ATOM     16  C   UNL     1       1.781   7.849  19.877  0.00  0.00    +0.000 A 
ATOM     17  C   UNL     1       2.254   6.537  19.868  0.00  0.00    +0.000 A 
ATOM     18  F   UNL     1       1.974   5.760  20.921  0.00  0.00    +0.000 F 
ENDBRANCH   8  12
BRANCH   1  19
ATOM     19  O   UNL     1       6.672   5.104  13.791  0.00  0.00    +0.000 OA
BRANCH  19  20
ATOM     20  C   UNL     1       6.541   3.851  13.118  0.00  0.00    +0.000 C 
BRANCH  20  24
ATOM     21  C   UNL     1       3.567   3.028  10.747  0.00  0.00    +0.000 C 
ATOM     22  C   UNL     1       4.849   2.862  11.515  0.00  0.00    +0.000 C 
ATOM     23  C   UNL     1       5.651   1.615  11.257  0.00  0.00    +0.000 C 
ATOM     24  C   UNL     1       5.246   3.825  12.368  0.00  0.00    +0.000 C 
ENDBRANCH  20  24
ENDBRANCH  19  20
ENDBRANCH   1  19
TORSDOF 4
ENDMDL
MODEL 4
REMARK VINA RESULT:      -8.2      3.734      5.380
REMARK  Name = 
REMARK  6 active torsions:
REMARK  status: ('A' for Active; 'I' for Inactive)
REMARK    1  A    between atoms: C_1  and  C_2
REMARK    2  A    between atoms: C_2  and  C_3
REMARK    3  A    between atoms: C_4  and  C_5
REMARK    4  A    between atoms: C_5  and  O_6
REMARK    5  A    between atoms: O_6  and  C_7
REMARK    6  A    between atoms: C_14  and  C_15
REMARK                            x       y       z     vdW  Elec       q    Type
REMARK                         _______ _______ _______ _____ _____    ______ ____
ROOT
ATOM      1  C   UNL     1       6.148   5.020  15.842  0.00  0.00    +0.000 A 
ATOM      2  C   UNL     1       6.976   4.751  16.934  0.00  0.00    +0.000 A 
ATOM      3  C   UNL     1       6.449   4.168  18.091  0.00  0.00    +0.000 A 
ATOM      4  C   UNL     1       5.085   3.883  18.158  0.00  0.00    +0.000 A 
ATOM      5  C   UNL     1       4.251   4.192  17.088  0.00  0.00    +0.000 A 
ATOM      6  C   UNL     1       4.781   4.753  15.931  0.00  0.00    +0.000 A 
ATOM      7  O   UNL     1       2.891   4.012  17.093  0.00  0.00    +0.000 OA
ATOM      8  C   UNL     1       2.310   3.998  18.414  0.00  0.00    +0.000 C 
ATOM      9  C   UNL     1       3.019   2.945  19.270  0.00  0.00    +0.000 C 
ATOM     10  C   UNL     1       4.492   3.234  19.338  0.00  0.00    +0.000 C 
ATOM     11  O   UNL     1       5.195   2.875  20.277  0.00  0.00    +0.000 OA
ENDROOT
BRANCH   8  12
ATOM     12  C   UNL     1       2.161   5.398  19.005  0.00  0.00    +0.000 A 
ATOM     13  C   UNL     1       2.432   6.566  18.268  0.00  0.00    +0.000 A 
ATOM     14  C   UNL     1       2.279   7.835  18.833  0.00  0.00    +0.000 A 
ATOM     15  C   UNL     1       1.818   7.967  20.139  0.00  0.00    +0.000 A 
ATOM     16  C   UNL     1       1.502   6.827  20.872  0.00  0.00    +0.000 A 
ATOM     17  C   UNL     1       1.666   5.564  20.304  0.00  0.00    +0.000 A 
ATOM     18  F   UNL     1       1.304   4.496  21.026  0.00  0.00    +0.000 F 
ENDBRANCH   8  12
BRANCH   1  19
ATOM     19  O   UNL     1       6.764   5.542  14.734  0.00  0.00    +0.000 OA
BRANCH  19  20
ATOM     20  C   UNL     1       7.066   4.575  13.726  0.00  0.00    +0.000 C 
BRANCH  20  24
ATOM     21  C   UNL     1       4.367   2.998  11.409  0.00  0.00    +0.000 C 
ATOM     22  C   UNL     1       5.700   3.248  12.058  0.00  0.00    +0.000 C 
ATOM     23  C   UNL     1       6.882   2.488  11.521  0.00  0.00    +0.000 C 
ATOM     24  C   UNL     1       5.798   4.145  13.058  0.00  0.00    +0.000 C 
ENDBRANCH  20  24
ENDBRANCH  19  20
ENDBRANCH   1  19
TORSDOF 4
ENDMDL
MODEL 5
REMARK VINA RESULT:      -8.1      3.931      6.124
REMARK  Name = 
REMARK  6 active torsions:
REMARK  status: ('A' for Active; 'I' for Inactive)
REMARK    1  A    between atoms: C_1  and  C_2
REMARK    2  A    between atoms: C_2  and  C_3
REMARK    3  A    between atoms: C_4  and  C_5
REMARK    4  A    between atoms: C_5  and  O_6
REMARK    5  A    between atoms: O_6  and  C_7
REMARK    6  A    between atoms: C_14  and  C_15
REMARK                            x       y       z     vdW  Elec       q    Type
REMARK                         _______ _______ _______ _____ _____    ______ ____
ROOT
ATOM      1  C   UNL     1       6.294   4.929  15.548  0.00  0.00    +0.000 A 
ATOM      2  C   UNL     1       5.437   5.884  14.998  0.00  0.00    +0.000 A 
ATOM      3  C   UNL     1       4.529   6.569  15.812  0.00  0.00    +0.000 A 
ATOM      4  C   UNL     1       4.464   6.271  17.173  0.00  0.00    +0.000 A 
ATOM      5  C   UNL     1       5.285   5.287  17.715  0.00  0.00    +0.000 A 
ATOM      6  C   UNL     1       6.202   4.623  16.908  0.00  0.00    +0.000 A 
ATOM      7  O   UNL     1       5.242   4.882  19.024  0.00  0.00    +0.000 OA
ATOM      8  C   UNL     1       3.972   5.125  19.667  0.00  0.00    +0.000 C 
ATOM      9  C   UNL     1       3.606   6.605  19.526  0.00  0.00    +0.000 C 
ATOM     10  C   UNL     1       3.552   6.993  18.075  0.00  0.00    +0.000 C 
ATOM     11  O   UNL     1       2.861   7.918  17.662  0.00  0.00    +0.000 OA
ENDROOT
BRANCH   8  12
ATOM     12  C   UNL     1       2.910   4.100  19.278  0.00  0.00    +0.000 A 
ATOM     13  C   UNL     1       3.134   3.107  18.305  0.00  0.00    +0.000 A 
ATOM     14  C   UNL     1       2.145   2.176  17.975  0.00  0.00    +0.000 A 
ATOM     15  C   UNL     1       0.920   2.195  18.634  0.00  0.00    +0.000 A 
ATOM     16  C   UNL     1       0.693   3.140  19.630  0.00  0.00    +0.000 A 
ATOM     17  C   UNL     1       1.682   4.071  19.948  0.00  0.00    +0.000 A 
ATOM     18  F   UNL     1       1.440   4.931  20.945  0.00  0.00    +0.000 F 
ENDBRANCH   8  12
BRANCH   1  19
ATOM     19  O   UNL     1       7.186   4.349  14.683  0.00  0.00    +0.000 OA
BRANCH  19  20
ATOM     20  C   UNL     1       6.960   4.676  13.311  0.00  0.00    +0.000 C 
BRANCH  20  24
ATOM     21  C   UNL     1       5.989   1.536  11.227  0.00  0.00    +0.000 C 
ATOM     22  C   UNL     1       5.866   2.864  11.920  0.00  0.00    +0.000 C 
ATOM     23  C   UNL     1       4.502   3.499  11.959  0.00  0.00    +0.000 C 
ATOM     24  C   UNL     1       6.948   3.418  12.499  0.00  0.00    +0.000 C 
ENDBRANCH  20  24
ENDBRANCH  19  20
ENDBRANCH   1  19
TORSDOF 4
ENDMDL
MODEL 6
REMARK VINA RESULT:      -7.8      3.643      5.731
REMARK  Name = 
REMARK  6 active torsions:
REMARK  status: ('A' for Active; 'I' for Inactive)
REMARK    1  A    between atoms: C_1  and  C_2
REMARK    2  A    between atoms: C_2  and  C_3
REMARK    3  A    between atoms: C_4  and  C_5
REMARK    4  A    between atoms: C_5  and  O_6
REMARK    5  A    between atoms: O_6  and  C_7
REMARK    6  A    between atoms: C_14  and  C_15
REMARK                            x       y       z     vdW  Elec       q    Type
REMARK                         _______ _______ _______ _____ _____    ______ ____
ROOT
ATOM      1  C   UNL     1       6.047   5.992  16.208  0.00  0.00    +0.000 A 
ATOM      2  C   UNL     1       5.022   6.758  15.649  0.00  0.00    +0.000 A 
ATOM      3  C   UNL     1       3.918   7.131  16.424  0.00  0.00    +0.000 A 
ATOM      4  C   UNL     1       3.834   6.706  17.750  0.00  0.00    +0.000 A 
ATOM      5  C   UNL     1       4.831   5.904  18.294  0.00  0.00    +0.000 A 
ATOM      6  C   UNL     1       5.938   5.553  17.529  0.00  0.00    +0.000 A 
ATOM      7  O   UNL     1       4.797   5.386  19.564  0.00  0.00    +0.000 OA
ATOM      8  C   UNL     1       3.465   5.260  20.105  0.00  0.00    +0.000 C 
ATOM      9  C   UNL     1       2.757   6.615  20.034  0.00  0.00    +0.000 C 
ATOM     10  C   UNL     1       2.711   7.106  18.614  0.00  0.00    +0.000 C 
ATOM     11  O   UNL     1       1.844   7.871  18.205  0.00  0.00    +0.000 OA
ENDROOT
BRANCH   8  12
ATOM     12  C   UNL     1       2.718   4.049  19.553  0.00  0.00    +0.000 A 
ATOM     13  C   UNL     1       1.353   4.090  19.212  0.00  0.00    +0.000 A 
ATOM     14  C   UNL     1       0.697   2.967  18.700  0.00  0.00    +0.000 A 
ATOM     15  C   UNL     1       1.400   1.785  18.484  0.00  0.00    +0.000 A 
ATOM     16  C   UNL     1       2.760   1.735  18.773  0.00  0.00    +0.000 A 
ATOM     17  C   UNL     1       3.405   2.857  19.292  0.00  0.00    +0.000 A 
ATOM     18  F   UNL     1       4.724   2.781  19.509  0.00  0.00    +0.000 F 
ENDBRANCH   8  12
BRANCH   1  19
ATOM     19  O   UNL     1       7.112   5.722  15.388  0.00  0.00    +0.000 OA
BRANCH  19  20
ATOM     20  C   UNL     1       7.287   4.333  15.100  0.00  0.00    +0.000 C 
BRANCH  20  24
ATOM     21  C   UNL     1       4.879   3.425  12.181  0.00  0.00    +0.000 C 
ATOM     22  C   UNL     1       6.135   3.825  12.903  0.00  0.00    +0.000 C 
ATOM     23  C   UNL     1       7.323   4.207  12.061  0.00  0.00    +0.000 C 
ATOM     24  C   UNL     1       6.152   3.858  14.249  0.00  0.00    +0.000 C 
ENDBRANCH  20  24
ENDBRANCH  19  20
ENDBRANCH   1  19
TORSDOF 4
ENDMDL
MODEL 7
REMARK VINA RESULT:      -7.8      4.007      6.319
REMARK  Name = 
REMARK  6 active torsions:
REMARK  status: ('A' for Active; 'I' for Inactive)
REMARK    1  A    between atoms: C_1  and  C_2
REMARK    2  A    between atoms: C_2  and  C_3
REMARK    3  A    between atoms: C_4  and  C_5
REMARK    4  A    between atoms: C_5  and  O_6
REMARK    5  A    between atoms: O_6  and  C_7
REMARK    6  A    between atoms: C_14  and  C_15
REMARK                            x       y       z     vdW  Elec       q    Type
REMARK                         _______ _______ _______ _____ _____    ______ ____
ROOT
ATOM      1  C   UNL     1       6.453   4.866  15.290  0.00  0.00    +0.000 A 
ATOM      2  C   UNL     1       5.584   5.834  14.783  0.00  0.00    +0.000 A 
ATOM      3  C   UNL     1       4.721   6.526  15.639  0.00  0.00    +0.000 A 
ATOM      4  C   UNL     1       4.712   6.220  17.000  0.00  0.00    +0.000 A 
ATOM      5  C   UNL     1       5.543   5.223  17.500  0.00  0.00    +0.000 A 
ATOM      6  C   UNL     1       6.416   4.552  16.650  0.00  0.00    +0.000 A 
ATOM      7  O   UNL     1       5.552   4.810  18.808  0.00  0.00    +0.000 OA
ATOM      8  C   UNL     1       4.315   5.065  19.507  0.00  0.00    +0.000 C 
ATOM      9  C   UNL     1       3.961   6.550  19.390  0.00  0.00    +0.000 C 
ATOM     10  C   UNL     1       3.849   6.947  17.945  0.00  0.00    +0.000 C 
ATOM     11  O   UNL     1       3.152   7.883  17.567  0.00  0.00    +0.000 OA
ENDROOT
BRANCH   8  12
ATOM     12  C   UNL     1       3.224   4.055  19.158  0.00  0.00    +0.000 A 
ATOM     13  C   UNL     1       1.980   4.437  18.622  0.00  0.00    +0.000 A 
ATOM     14  C   UNL     1       1.003   3.489  18.304  0.00  0.00    +0.000 A 
ATOM     15  C   UNL     1       1.260   2.134  18.484  0.00  0.00    +0.000 A 
ATOM     16  C   UNL     1       2.500   1.731  18.972  0.00  0.00    +0.000 A 
ATOM     17  C   UNL     1       3.466   2.683  19.295  0.00  0.00    +0.000 A 
ATOM     18  F   UNL     1       4.661   2.250  19.714  0.00  0.00    +0.000 F 
ENDBRANCH   8  12
BRANCH   1  19
ATOM     19  O   UNL     1       7.299   4.281  14.384  0.00  0.00    +0.000 OA
BRANCH  19  20
ATOM     20  C   UNL     1       6.961   4.542  13.020  0.00  0.00    +0.000 C 
BRANCH  20  24
ATOM     21  C   UNL     1       5.925   1.320  11.102  0.00  0.00    +0.000 C 
ATOM     22  C   UNL     1       5.824   2.676  11.741  0.00  0.00    +0.000 C 
ATOM     23  C   UNL     1       4.463   3.315  11.793  0.00  0.00    +0.000 C 
ATOM     24  C   UNL     1       6.924   3.252  12.263  0.00  0.00    +0.000 C 
ENDBRANCH  20  24
ENDBRANCH  19  20
ENDBRANCH   1  19
TORSDOF 4
ENDMDL
MODEL 8
REMARK VINA RESULT:      -7.8      3.806      5.733
REMARK  Name = 
REMARK  6 active torsions:
REMARK  status: ('A' for Active; 'I' for Inactive)
REMARK    1  A    between atoms: C_1  and  C_2
REMARK    2  A    between atoms: C_2  and  C_3
REMARK    3  A    between atoms: C_4  and  C_5
REMARK    4  A    between atoms: C_5  and  O_6
REMARK    5  A    between atoms: O_6  and  C_7
REMARK    6  A    between atoms: C_14  and  C_15
REMARK                            x       y       z     vdW  Elec       q    Type
REMARK                         _______ _______ _______ _____ _____    ______ ____
ROOT
ATOM      1  C   UNL     1       6.222   5.322  16.577  0.00  0.00    +0.000 A 
ATOM      2  C   UNL     1       5.426   6.103  15.736  0.00  0.00    +0.000 A 
ATOM      3  C   UNL     1       4.316   6.784  16.247  0.00  0.00    +0.000 A 
ATOM      4  C   UNL     1       3.991   6.653  17.597  0.00  0.00    +0.000 A 
ATOM      5  C   UNL     1       4.755   5.839  18.427  0.00  0.00    +0.000 A 
ATOM      6  C   UNL     1       5.871   5.180  17.921  0.00  0.00    +0.000 A 
ATOM      7  O   UNL     1       4.470   5.598  19.747  0.00  0.00    +0.000 OA
ATOM      8  C   UNL     1       3.079   5.782  20.085  0.00  0.00    +0.000 C 
ATOM      9  C   UNL     1       2.634   7.185  19.662  0.00  0.00    +0.000 C 
ATOM     10  C   UNL     1       2.856   7.380  18.188  0.00  0.00    +0.000 C 
ATOM     11  O   UNL     1       2.196   8.167  17.517  0.00  0.00    +0.000 OA
ENDROOT
BRANCH   8  12
ATOM     12  C   UNL     1       2.206   4.609  19.646  0.00  0.00    +0.000 A 
ATOM     13  C   UNL     1       1.868   4.377  18.299  0.00  0.00    +0.000 A 
ATOM     14  C   UNL     1       1.074   3.289  17.925  0.00  0.00    +0.000 A 
ATOM     15  C   UNL     1       0.628   2.387  18.887  0.00  0.00    +0.000 A 
ATOM     16  C   UNL     1       0.987   2.573  20.218  0.00  0.00    +0.000 A 
ATOM     17  C   UNL     1       1.772   3.666  20.584  0.00  0.00    +0.000 A 
ATOM     18  F   UNL     1       2.135   3.779  21.868  0.00  0.00    +0.000 F 
ENDBRANCH   8  12
BRANCH   1  19
ATOM     19  O   UNL     1       7.318   4.737  15.997  0.00  0.00    +0.000 OA
BRANCH  19  20
ATOM     20  C   UNL     1       7.393   4.918  14.582  0.00  0.00    +0.000 C 
BRANCH  20  24
ATOM     21  C   UNL     1       5.285   2.851  12.048  0.00  0.00    +0.000 C 
ATOM     22  C   UNL     1       6.360   3.753  12.586  0.00  0.00    +0.000 C 
ATOM     23  C   UNL     1       7.278   4.403  11.587  0.00  0.00    +0.000 C 
ATOM     24  C   UNL     1       6.449   3.970  13.912  0.00  0.00    +0.000 C 
ENDBRANCH  20  24
ENDBRANCH  19  20
ENDBRANCH   1  19
TORSDOF 4
ENDMDL
MODEL 9
REMARK VINA RESULT:      -7.5      1.488      2.160
REMARK  Name = 
REMARK  6 active torsions:
REMARK  status: ('A' for Active; 'I' for Inactive)
REMARK    1  A    between atoms: C_1  and  C_2
REMARK    2  A    between atoms: C_2  and  C_3
REMARK    3  A    between atoms: C_4  and  C_5
REMARK    4  A    between atoms: C_5  and  O_6
REMARK    5  A    between atoms: O_6  and  C_7
REMARK    6  A    between atoms: C_14  and  C_15
REMARK                            x       y       z     vdW  Elec       q    Type
REMARK                         _______ _______ _______ _____ _____    ______ ____
ROOT
ATOM      1  C   UNL     1       7.915   9.128  17.952  0.00  0.00    +0.000 A 
ATOM      2  C   UNL     1       8.619   8.235  18.764  0.00  0.00    +0.000 A 
ATOM      3  C   UNL     1       8.345   6.865  18.707  0.00  0.00    +0.000 A 
ATOM      4  C   UNL     1       7.344   6.398  17.856  0.00  0.00    +0.000 A 
ATOM      5  C   UNL     1       6.610   7.290  17.081  0.00  0.00    +0.000 A 
ATOM      6  C   UNL     1       6.899   8.650  17.123  0.00  0.00    +0.000 A 
ATOM      7  O   UNL     1       5.564   6.929  16.270  0.00  0.00    +0.000 OA
ATOM      8  C   UNL     1       4.923   5.696  16.662  0.00  0.00    +0.000 C 
ATOM      9  C   UNL     1       5.972   4.585  16.754  0.00  0.00    +0.000 C 
ATOM     10  C   UNL     1       7.046   4.961  17.734  0.00  0.00    +0.000 C 
ATOM     11  O   UNL     1       7.712   4.129  18.340  0.00  0.00    +0.000 OA
ENDROOT
BRANCH   8  12
ATOM     12  C   UNL     1       3.984   5.875  17.853  0.00  0.00    +0.000 A 
ATOM     13  C   UNL     1       3.925   4.956  18.917  0.00  0.00    +0.000 A 
ATOM     14  C   UNL     1       3.062   5.150  19.999  0.00  0.00    +0.000 A 
ATOM     15  C   UNL     1       2.260   6.286  20.058  0.00  0.00    +0.000 A 
ATOM     16  C   UNL     1       2.335   7.230  19.038  0.00  0.00    +0.000 A 
ATOM     17  C   UNL     1       3.193   7.025  17.958  0.00  0.00    +0.000 A 
ATOM     18  F   UNL     1       3.269   7.981  17.024  0.00  0.00    +0.000 F 
ENDBRANCH   8  12
BRANCH   1  19
ATOM     19  O   UNL     1       8.290  10.444  18.037  0.00  0.00    +0.000 OA
BRANCH  19  20
ATOM     20  C   UNL     1       9.555  10.649  18.670  0.00  0.00    +0.000 C 
BRANCH  20  24
ATOM     21  C   UNL     1      12.238  13.091  17.263  0.00  0.00    +0.000 C 
ATOM     22  C   UNL     1      11.563  12.111  18.182  0.00  0.00    +0.000 C 
ATOM     23  C   UNL     1      12.233  11.827  19.499  0.00  0.00    +0.000 C 
ATOM     24  C   UNL     1      10.392  11.553  17.821  0.00  0.00    +0.000 C 
ENDBRANCH  20  24
ENDBRANCH  19  20
ENDBRANCH   1  19
TORSDOF 4
ENDMDL
