MODEL 1
REMARK VINA RESULT:      -6.0      0.000      0.000
REMARK  Name = 
REMARK  2 active torsions:
REMARK  status: ('A' for Active; 'I' for Inactive)
REMARK    1  A    between atoms: C_1  and  C_2
REMARK    2  A    between atoms: C_5  and  C_6
REMARK                            x       y       z     vdW  Elec       q    Type
REMARK                         _______ _______ _______ _____ _____    ______ ____
ROOT
ATOM      1  C   UNL     1       7.809   7.849  17.680  0.00  0.00    +0.000 C 
ATOM      2  C   UNL     1       7.169   6.580  17.261  0.00  0.00    +0.000 A 
ATOM      3  N   UNL     1       7.485   6.020  16.093  0.00  0.00    +0.000 NA
ATOM      4  S   UNL     1       6.579   4.623  15.979  0.00  0.00    +0.000 S 
ATOM      5  C   UNL     1       5.817   4.856  17.509  0.00  0.00    +0.000 A 
ATOM      6  N   UNL     1       6.237   5.967  18.092  0.00  0.00    +0.000 NA
ENDROOT
BRANCH   5   7
ATOM      7  C   UNL     1       4.836   3.900  18.039  0.00  0.00    +0.000 A 
ATOM      8  C   UNL     1       3.765   3.467  17.261  0.00  0.00    +0.000 A 
ATOM      9  C   UNL     1       2.857   2.561  17.809  0.00  0.00    +0.000 A 
ATOM     10  C   UNL     1       3.043   2.113  19.111  0.00  0.00    +0.000 A 
ATOM     11  C   UNL     1       4.133   2.591  19.817  0.00  0.00    +0.000 A 
ATOM     12  N   UNL     1       5.027   3.467  19.313  0.00  0.00    +0.000 NA
ENDBRANCH   5   7
TORSDOF 1
ENDMDL
MODEL 2
REMARK VINA RESULT:      -6.0      1.158      1.398
REMARK  Name = 
REMARK  2 active torsions:
REMARK  status: ('A' for Active; 'I' for Inactive)
REMARK    1  A    between atoms: C_1  and  C_2
REMARK    2  A    between atoms: C_5  and  C_6
REMARK                            x       y       z     vdW  Elec       q    Type
REMARK                         _______ _______ _______ _____ _____    ______ ____
ROOT
ATOM      1  C   UNL     1       7.674   7.583  17.648  0.00  0.00    +0.000 C 
ATOM      2  C   UNL     1       6.885   6.438  17.137  0.00  0.00    +0.000 A 
ATOM      3  N   UNL     1       7.293   5.767  16.059  0.00  0.00    +0.000 NA
ATOM      4  S   UNL     1       6.168   4.563  15.799  0.00  0.00    +0.000 S 
ATOM      5  C   UNL     1       5.200   5.016  17.152  0.00  0.00    +0.000 A 
ATOM      6  N   UNL     1       5.715   6.057  17.786  0.00  0.00    +0.000 NA
ENDROOT
BRANCH   5   7
ATOM      7  C   UNL     1       3.970   4.293  17.502  0.00  0.00    +0.000 A 
ATOM      8  C   UNL     1       2.788   4.979  17.774  0.00  0.00    +0.000 A 
ATOM      9  C   UNL     1       1.647   4.249  18.105  0.00  0.00    +0.000 A 
ATOM     10  C   UNL     1       1.716   2.862  18.155  0.00  0.00    +0.000 A 
ATOM     11  C   UNL     1       2.927   2.257  17.871  0.00  0.00    +0.000 A 
ATOM     12  N   UNL     1       4.048   2.937  17.548  0.00  0.00    +0.000 NA
ENDBRANCH   5   7
TORSDOF 1
ENDMDL
MODEL 3
REMARK VINA RESULT:      -5.9      3.251      4.889
REMARK  Name = 
REMARK  2 active torsions:
REMARK  status: ('A' for Active; 'I' for Inactive)
REMARK    1  A    between atoms: C_1  and  C_2
REMARK    2  A    between atoms: C_5  and  C_6
REMARK                            x       y       z     vdW  Elec       q    Type
REMARK                         _______ _______ _______ _____ _____    ______ ____
ROOT
ATOM      1  C   UNL     1       7.801   5.714  19.369  0.00  0.00    +0.000 C 
ATOM      2  C   UNL     1       6.987   5.281  18.209  0.00  0.00    +0.000 A 
ATOM      3  N   UNL     1       5.711   4.930  18.375  0.00  0.00    +0.000 NA
ATOM      4  S   UNL     1       5.135   4.517  16.865  0.00  0.00    +0.000 S 
ATOM      5  C   UNL     1       6.636   4.834  16.079  0.00  0.00    +0.000 A 
ATOM      6  N   UNL     1       7.554   5.242  16.940  0.00  0.00    +0.000 NA
ENDROOT
BRANCH   5   7
ATOM      7  C   UNL     1       6.805   4.656  14.631  0.00  0.00    +0.000 A 
ATOM      8  C   UNL     1       6.044   3.724  13.930  0.00  0.00    +0.000 A 
ATOM      9  C   UNL     1       6.242   3.588  12.556  0.00  0.00    +0.000 A 
ATOM     10  C   UNL     1       7.189   4.382  11.923  0.00  0.00    +0.000 A 
ATOM     11  C   UNL     1       7.904   5.284  12.690  0.00  0.00    +0.000 A 
ATOM     12  N   UNL     1       7.735   5.438  14.020  0.00  0.00    +0.000 NA
ENDBRANCH   5   7
TORSDOF 1
ENDMDL
MODEL 4
REMARK VINA RESULT:      -5.8      2.388      5.103
REMARK  Name = 
REMARK  2 active torsions:
REMARK  status: ('A' for Active; 'I' for Inactive)
REMARK    1  A    between atoms: C_1  and  C_2
REMARK    2  A    between atoms: C_5  and  C_6
REMARK                            x       y       z     vdW  Elec       q    Type
REMARK                         _______ _______ _______ _____ _____    ______ ____
ROOT
ATOM      1  C   UNL     1       0.926   3.992  20.213  0.00  0.00    +0.000 C 
ATOM      2  C   UNL     1       2.363   3.792  19.912  0.00  0.00    +0.000 A 
ATOM      3  N   UNL     1       2.909   2.579  20.012  0.00  0.00    +0.000 NA
ATOM      4  S   UNL     1       4.515   2.749  19.593  0.00  0.00    +0.000 S 
ATOM      5  C   UNL     1       4.379   4.444  19.304  0.00  0.00    +0.000 A 
ATOM      6  N   UNL     1       3.146   4.872  19.521  0.00  0.00    +0.000 NA
ENDROOT
BRANCH   5   7
ATOM      7  C   UNL     1       5.528   5.250  18.871  0.00  0.00    +0.000 A 
ATOM      8  C   UNL     1       5.443   6.074  17.751  0.00  0.00    +0.000 A 
ATOM      9  C   UNL     1       6.561   6.818  17.376  0.00  0.00    +0.000 A 
ATOM     10  C   UNL     1       7.726   6.722  18.125  0.00  0.00    +0.000 A 
ATOM     11  C   UNL     1       7.729   5.881  19.224  0.00  0.00    +0.000 A 
ATOM     12  N   UNL     1       6.663   5.149  19.611  0.00  0.00    +0.000 NA
ENDBRANCH   5   7
TORSDOF 1
ENDMDL
MODEL 5
REMARK VINA RESULT:      -5.7      2.114      2.611
REMARK  Name = 
REMARK  2 active torsions:
REMARK  status: ('A' for Active; 'I' for Inactive)
REMARK    1  A    between atoms: C_1  and  C_2
REMARK    2  A    between atoms: C_5  and  C_6
REMARK                            x       y       z     vdW  Elec       q    Type
REMARK                         _______ _______ _______ _____ _____    ______ ____
ROOT
ATOM      1  C   UNL     1       7.727   4.799  17.889  0.00  0.00    +0.000 C 
ATOM      2  C   UNL     1       6.290   4.444  17.820  0.00  0.00    +0.000 A 
ATOM      3  N   UNL     1       5.680   4.333  16.638  0.00  0.00    +0.000 NA
ATOM      4  S   UNL     1       4.096   3.919  16.962  0.00  0.00    +0.000 S 
ATOM      5  C   UNL     1       4.326   3.913  18.671  0.00  0.00    +0.000 A 
ATOM      6  N   UNL     1       5.573   4.220  18.990  0.00  0.00    +0.000 NA
ENDROOT
BRANCH   5   7
ATOM      7  C   UNL     1       3.233   3.596  19.598  0.00  0.00    +0.000 A 
ATOM      8  C   UNL     1       1.966   4.150  19.428  0.00  0.00    +0.000 A 
ATOM      9  C   UNL     1       0.960   3.822  20.336  0.00  0.00    +0.000 A 
ATOM     10  C   UNL     1       1.243   2.955  21.384  0.00  0.00    +0.000 A 
ATOM     11  C   UNL     1       2.527   2.447  21.483  0.00  0.00    +0.000 A 
ATOM     12  N   UNL     1       3.520   2.747  20.620  0.00  0.00    +0.000 NA
ENDBRANCH   5   7
TORSDOF 1
ENDMDL
MODEL 6
REMARK VINA RESULT:      -5.7      1.362      1.620
REMARK  Name = 
REMARK  2 active torsions:
REMARK  status: ('A' for Active; 'I' for Inactive)
REMARK    1  A    between atoms: C_1  and  C_2
REMARK    2  A    between atoms: C_5  and  C_6
REMARK                            x       y       z     vdW  Elec       q    Type
REMARK                         _______ _______ _______ _____ _____    ______ ____
ROOT
ATOM      1  C   UNL     1       7.780   7.884  17.734  0.00  0.00    +0.000 C 
ATOM      2  C   UNL     1       7.007   6.743  17.188  0.00  0.00    +0.000 A 
ATOM      3  N   UNL     1       7.463   6.064  16.134  0.00  0.00    +0.000 NA
ATOM      4  S   UNL     1       6.342   4.868  15.823  0.00  0.00    +0.000 S 
ATOM      5  C   UNL     1       5.311   5.336  17.124  0.00  0.00    +0.000 A 
ATOM      6  N   UNL     1       5.803   6.376  17.778  0.00  0.00    +0.000 NA
ENDROOT
BRANCH   5   7
ATOM      7  C   UNL     1       4.059   4.625  17.415  0.00  0.00    +0.000 A 
ATOM      8  C   UNL     1       3.998   3.234  17.366  0.00  0.00    +0.000 A 
ATOM      9  C   UNL     1       2.786   2.604  17.647  0.00  0.00    +0.000 A 
ATOM     10  C   UNL     1       1.675   3.374  17.968  0.00  0.00    +0.000 A 
ATOM     11  C   UNL     1       1.819   4.750  17.995  0.00  0.00    +0.000 A 
ATOM     12  N   UNL     1       2.978   5.388  17.727  0.00  0.00    +0.000 NA
ENDBRANCH   5   7
TORSDOF 1
ENDMDL
MODEL 7
REMARK VINA RESULT:      -5.7      2.410      4.953
REMARK  Name = 
REMARK  2 active torsions:
REMARK  status: ('A' for Active; 'I' for Inactive)
REMARK    1  A    between atoms: C_1  and  C_2
REMARK    2  A    between atoms: C_5  and  C_6
REMARK                            x       y       z     vdW  Elec       q    Type
REMARK                         _______ _______ _______ _____ _____    ______ ____
ROOT
ATOM      1  C   UNL     1       1.749   2.721  21.560  0.00  0.00    +0.000 C 
ATOM      2  C   UNL     1       2.161   3.322  20.270  0.00  0.00    +0.000 A 
ATOM      3  N   UNL     1       1.255   3.880  19.466  0.00  0.00    +0.000 NA
ATOM      4  S   UNL     1       2.088   4.445  18.136  0.00  0.00    +0.000 S 
ATOM      5  C   UNL     1       3.618   3.906  18.721  0.00  0.00    +0.000 A 
ATOM      6  N   UNL     1       3.501   3.310  19.896  0.00  0.00    +0.000 NA
ENDROOT
BRANCH   5   7
ATOM      7  C   UNL     1       4.856   4.117  17.960  0.00  0.00    +0.000 A 
ATOM      8  C   UNL     1       4.884   3.954  16.577  0.00  0.00    +0.000 A 
ATOM      9  C   UNL     1       6.084   4.162  15.899  0.00  0.00    +0.000 A 
ATOM     10  C   UNL     1       7.218   4.527  16.615  0.00  0.00    +0.000 A 
ATOM     11  C   UNL     1       7.106   4.670  17.986  0.00  0.00    +0.000 A 
ATOM     12  N   UNL     1       5.959   4.475  18.670  0.00  0.00    +0.000 NA
ENDBRANCH   5   7
TORSDOF 1
ENDMDL
MODEL 8
REMARK VINA RESULT:      -5.7      1.502      1.681
REMARK  Name = 
REMARK  2 active torsions:
REMARK  status: ('A' for Active; 'I' for Inactive)
REMARK    1  A    between atoms: C_1  and  C_2
REMARK    2  A    between atoms: C_5  and  C_6
REMARK                            x       y       z     vdW  Elec       q    Type
REMARK                         _______ _______ _______ _____ _____    ______ ____
ROOT
ATOM      1  C   UNL     1       8.197   5.824  19.289  0.00  0.00    +0.000 C 
ATOM      2  C   UNL     1       7.161   5.202  18.430  0.00  0.00    +0.000 A 
ATOM      3  N   UNL     1       7.391   5.010  17.131  0.00  0.00    +0.000 NA
ATOM      4  S   UNL     1       6.019   4.292  16.510  0.00  0.00    +0.000 S 
ATOM      5  C   UNL     1       5.199   4.283  18.027  0.00  0.00    +0.000 A 
ATOM      6  N   UNL     1       5.946   4.813  18.982  0.00  0.00    +0.000 NA
ENDROOT
BRANCH   5   7
ATOM      7  C   UNL     1       3.843   3.737  18.172  0.00  0.00    +0.000 A 
ATOM      8  C   UNL     1       2.728   4.477  17.785  0.00  0.00    +0.000 A 
ATOM      9  C   UNL     1       1.460   3.919  17.944  0.00  0.00    +0.000 A 
ATOM     10  C   UNL     1       1.340   2.643  18.481  0.00  0.00    +0.000 A 
ATOM     11  C   UNL     1       2.497   1.973  18.839  0.00  0.00    +0.000 A 
ATOM     12  N   UNL     1       3.736   2.488  18.697  0.00  0.00    +0.000 NA
ENDBRANCH   5   7
TORSDOF 1
ENDMDL
MODEL 9
REMARK VINA RESULT:      -5.6      2.251      2.800
REMARK  Name = 
REMARK  2 active torsions:
REMARK  status: ('A' for Active; 'I' for Inactive)
REMARK    1  A    between atoms: C_1  and  C_2
REMARK    2  A    between atoms: C_5  and  C_6
REMARK                            x       y       z     vdW  Elec       q    Type
REMARK                         _______ _______ _______ _____ _____    ______ ____
ROOT
ATOM      1  C   UNL     1       6.132   3.954  14.778  0.00  0.00    +0.000 C 
ATOM      2  C   UNL     1       5.758   4.160  16.197  0.00  0.00    +0.000 A 
ATOM      3  N   UNL     1       6.657   4.614  17.071  0.00  0.00    +0.000 NA
ATOM      4  S   UNL     1       5.873   4.721  18.540  0.00  0.00    +0.000 S 
ATOM      5  C   UNL     1       4.373   4.150  17.912  0.00  0.00    +0.000 A 
ATOM      6  N   UNL     1       4.463   3.882  16.619  0.00  0.00    +0.000 NA
ENDROOT
BRANCH   5   7
ATOM      7  C   UNL     1       3.183   4.005  18.760  0.00  0.00    +0.000 A 
ATOM      8  C   UNL     1       2.098   3.235  18.348  0.00  0.00    +0.000 A 
ATOM      9  C   UNL     1       0.989   3.129  19.186  0.00  0.00    +0.000 A 
ATOM     10  C   UNL     1       0.992   3.792  20.407  0.00  0.00    +0.000 A 
ATOM     11  C   UNL     1       2.108   4.536  20.744  0.00  0.00    +0.000 A 
ATOM     12  N   UNL     1       3.196   4.657  19.953  0.00  0.00    +0.000 NA
ENDBRANCH   5   7
TORSDOF 1
ENDMDL
