MODEL 1
REMARK VINA RESULT:      -6.4      0.000      0.000
REMARK  Name = 
REMARK  1 active torsions:
REMARK  status: ('A' for Active; 'I' for Inactive)
REMARK    1  A    between atoms: C_1  and  N_2
REMARK                            x       y       z     vdW  Elec       q    Type
REMARK                         _______ _______ _______ _____ _____    ______ ____
ROOT
ATOM      1  C   UNL     1       1.274   2.666  18.601  0.00  0.00    +0.000 C 
ATOM      2  N   UNL     1       2.538   3.336  18.415  0.00  0.00    +0.000 N 
ATOM      3  C   UNL     1       3.254   3.980  19.374  0.00  0.00    +0.000 A 
ATOM      4  C   UNL     1       4.396   4.440  18.752  0.00  0.00    +0.000 A 
ATOM      5  C   UNL     1       4.272   4.027  17.402  0.00  0.00    +0.000 A 
ATOM      6  N   UNL     1       3.129   3.350  17.206  0.00  0.00    +0.000 NA
ATOM      7  C   UNL     1       5.257   4.285  16.359  0.00  0.00    +0.000 A 
ATOM      8  C   UNL     1       5.064   3.796  15.055  0.00  0.00    +0.000 A 
ATOM      9  C   UNL     1       6.010   4.043  14.061  0.00  0.00    +0.000 A 
ATOM     10 CL   UNL     1       5.760   3.451  12.465  0.00  0.00    +0.000 Cl
ATOM     11  C   UNL     1       7.158   4.773  14.347  0.00  0.00    +0.000 A 
ATOM     12  C   UNL     1       7.357   5.266  15.638  0.00  0.00    +0.000 A 
ATOM     13  C   UNL     1       6.411   5.034  16.653  0.00  0.00    +0.000 A 
ATOM     14  S   UNL     1       6.798   5.784  18.235  0.00  0.00    +0.000 S 
ATOM     15  C   UNL     1       5.514   5.178  19.366  0.00  0.00    +0.000 C 
ENDROOT
TORSDOF 0
ENDMDL
MODEL 2
REMARK VINA RESULT:      -6.3      2.518      4.745
REMARK  Name = 
REMARK  1 active torsions:
REMARK  status: ('A' for Active; 'I' for Inactive)
REMARK    1  A    between atoms: C_1  and  N_2
REMARK                            x       y       z     vdW  Elec       q    Type
REMARK                         _______ _______ _______ _____ _____    ______ ____
ROOT
ATOM      1  C   UNL     1       6.157   3.642  12.892  0.00  0.00    +0.000 C 
ATOM      2  N   UNL     1       6.145   4.059  14.273  0.00  0.00    +0.000 N 
ATOM      3  C   UNL     1       7.113   4.776  14.903  0.00  0.00    +0.000 A 
ATOM      4  C   UNL     1       6.668   4.964  16.195  0.00  0.00    +0.000 A 
ATOM      5  C   UNL     1       5.412   4.309  16.251  0.00  0.00    +0.000 A 
ATOM      6  N   UNL     1       5.101   3.758  15.066  0.00  0.00    +0.000 NA
ATOM      7  C   UNL     1       4.557   4.249  17.430  0.00  0.00    +0.000 A 
ATOM      8  C   UNL     1       3.306   3.610  17.374  0.00  0.00    +0.000 A 
ATOM      9  C   UNL     1       2.490   3.557  18.504  0.00  0.00    +0.000 A 
ATOM     10 CL   UNL     1       0.965   2.763  18.430  0.00  0.00    +0.000 Cl
ATOM     11  C   UNL     1       2.901   4.138  19.698  0.00  0.00    +0.000 A 
ATOM     12  C   UNL     1       4.143   4.771  19.763  0.00  0.00    +0.000 A 
ATOM     13  C   UNL     1       4.984   4.829  18.638  0.00  0.00    +0.000 A 
ATOM     14  S   UNL     1       6.565   5.631  18.913  0.00  0.00    +0.000 S 
ATOM     15  C   UNL     1       7.341   5.708  17.275  0.00  0.00    +0.000 C 
ENDROOT
TORSDOF 0
ENDMDL
MODEL 3
REMARK VINA RESULT:      -6.3      2.378      2.887
REMARK  Name = 
REMARK  1 active torsions:
REMARK  status: ('A' for Active; 'I' for Inactive)
REMARK    1  A    between atoms: C_1  and  N_2
REMARK                            x       y       z     vdW  Elec       q    Type
REMARK                         _______ _______ _______ _____ _____    ______ ____
ROOT
ATOM      1  C   UNL     1       1.991   2.564  21.520  0.00  0.00    +0.000 C 
ATOM      2  N   UNL     1       2.261   3.722  20.702  0.00  0.00    +0.000 N 
ATOM      3  C   UNL     1       1.795   4.981  20.915  0.00  0.00    +0.000 A 
ATOM      4  C   UNL     1       2.326   5.758  19.907  0.00  0.00    +0.000 A 
ATOM      5  C   UNL     1       3.100   4.867  19.123  0.00  0.00    +0.000 A 
ATOM      6  N   UNL     1       3.054   3.620  19.620  0.00  0.00    +0.000 NA
ATOM      7  C   UNL     1       3.861   5.247  17.939  0.00  0.00    +0.000 A 
ATOM      8  C   UNL     1       4.635   4.295  17.251  0.00  0.00    +0.000 A 
ATOM      9  C   UNL     1       5.364   4.663  16.120  0.00  0.00    +0.000 A 
ATOM     10 CL   UNL     1       6.298   3.490  15.276  0.00  0.00    +0.000 Cl
ATOM     11  C   UNL     1       5.339   5.975  15.661  0.00  0.00    +0.000 A 
ATOM     12  C   UNL     1       4.571   6.925  16.337  0.00  0.00    +0.000 A 
ATOM     13  C   UNL     1       3.823   6.574  17.474  0.00  0.00    +0.000 A 
ATOM     14  S   UNL     1       2.851   7.903  18.184  0.00  0.00    +0.000 S 
ATOM     15  C   UNL     1       2.149   7.208  19.705  0.00  0.00    +0.000 C 
ENDROOT
TORSDOF 0
ENDMDL
MODEL 4
REMARK VINA RESULT:      -6.0      3.599      5.274
REMARK  Name = 
REMARK  1 active torsions:
REMARK  status: ('A' for Active; 'I' for Inactive)
REMARK    1  A    between atoms: C_1  and  N_2
REMARK                            x       y       z     vdW  Elec       q    Type
REMARK                         _______ _______ _______ _____ _____    ______ ____
ROOT
ATOM      1  C   UNL     1       6.509   4.774  14.365  0.00  0.00    +0.000 C 
ATOM      2  N   UNL     1       5.742   4.727  15.586  0.00  0.00    +0.000 N 
ATOM      3  C   UNL     1       5.678   3.682  16.453  0.00  0.00    +0.000 A 
ATOM      4  C   UNL     1       4.855   4.091  17.482  0.00  0.00    +0.000 A 
ATOM      5  C   UNL     1       4.462   5.408  17.137  0.00  0.00    +0.000 A 
ATOM      6  N   UNL     1       5.012   5.789  15.972  0.00  0.00    +0.000 NA
ATOM      7  C   UNL     1       3.586   6.252  17.941  0.00  0.00    +0.000 A 
ATOM      8  C   UNL     1       3.288   7.565  17.534  0.00  0.00    +0.000 A 
ATOM      9  C   UNL     1       2.451   8.370  18.308  0.00  0.00    +0.000 A 
ATOM     10 CL   UNL     1       2.081   9.971  17.797  0.00  0.00    +0.000 Cl
ATOM     11  C   UNL     1       1.907   7.887  19.492  0.00  0.00    +0.000 A 
ATOM     12  C   UNL     1       2.196   6.584  19.902  0.00  0.00    +0.000 A 
ATOM     13  C   UNL     1       3.030   5.754  19.133  0.00  0.00    +0.000 A 
ATOM     14  S   UNL     1       3.250   4.095  19.777  0.00  0.00    +0.000 S 
ATOM     15  C   UNL     1       4.487   3.332  18.691  0.00  0.00    +0.000 C 
ENDROOT
TORSDOF 0
ENDMDL
MODEL 5
REMARK VINA RESULT:      -5.9      4.099      5.537
REMARK  Name = 
REMARK  1 active torsions:
REMARK  status: ('A' for Active; 'I' for Inactive)
REMARK    1  A    between atoms: C_1  and  N_2
REMARK                            x       y       z     vdW  Elec       q    Type
REMARK                         _______ _______ _______ _____ _____    ______ ____
ROOT
ATOM      1  C   UNL     1       1.042   9.645  19.297  0.00  0.00    +0.000 C 
ATOM      2  N   UNL     1       1.866   8.537  18.881  0.00  0.00    +0.000 N 
ATOM      3  C   UNL     1       2.781   8.549  17.875  0.00  0.00    +0.000 A 
ATOM      4  C   UNL     1       3.343   7.290  17.856  0.00  0.00    +0.000 A 
ATOM      5  C   UNL     1       2.689   6.579  18.892  0.00  0.00    +0.000 A 
ATOM      6  N   UNL     1       1.785   7.353  19.515  0.00  0.00    +0.000 NA
ATOM      7  C   UNL     1       2.964   5.193  19.252  0.00  0.00    +0.000 A 
ATOM      8  C   UNL     1       2.291   4.586  20.327  0.00  0.00    +0.000 A 
ATOM      9  C   UNL     1       2.559   3.261  20.670  0.00  0.00    +0.000 A 
ATOM     10 CL   UNL     1       1.721   2.522  21.979  0.00  0.00    +0.000 Cl
ATOM     11  C   UNL     1       3.497   2.525  19.956  0.00  0.00    +0.000 A 
ATOM     12  C   UNL     1       4.168   3.118  18.885  0.00  0.00    +0.000 A 
ATOM     13  C   UNL     1       3.907   4.451  18.519  0.00  0.00    +0.000 A 
ATOM     14  S   UNL     1       4.816   5.035  17.088  0.00  0.00    +0.000 S 
ATOM     15  C   UNL     1       4.411   6.800  16.966  0.00  0.00    +0.000 C 
ENDROOT
TORSDOF 0
ENDMDL
MODEL 6
REMARK VINA RESULT:      -5.9      3.194      4.162
REMARK  Name = 
REMARK  1 active torsions:
REMARK  status: ('A' for Active; 'I' for Inactive)
REMARK    1  A    between atoms: C_1  and  N_2
REMARK                            x       y       z     vdW  Elec       q    Type
REMARK                         _______ _______ _______ _____ _____    ______ ____
ROOT
ATOM      1  C   UNL     1       1.134   9.108  20.554  0.00  0.00    +0.000 C 
ATOM      2  N   UNL     1       1.566   7.746  20.356  0.00  0.00    +0.000 N 
ATOM      3  C   UNL     1       1.231   6.677  21.126  0.00  0.00    +0.000 A 
ATOM      4  C   UNL     1       1.846   5.585  20.550  0.00  0.00    +0.000 A 
ATOM      5  C   UNL     1       2.543   6.103  19.430  0.00  0.00    +0.000 A 
ATOM      6  N   UNL     1       2.365   7.430  19.320  0.00  0.00    +0.000 NA
ATOM      7  C   UNL     1       3.341   5.307  18.506  0.00  0.00    +0.000 A 
ATOM      8  C   UNL     1       3.962   5.908  17.396  0.00  0.00    +0.000 A 
ATOM      9  C   UNL     1       4.723   5.142  16.513  0.00  0.00    +0.000 A 
ATOM     10 CL   UNL     1       5.489   5.887  15.165  0.00  0.00    +0.000 Cl
ATOM     11  C   UNL     1       4.873   3.775  16.715  0.00  0.00    +0.000 A 
ATOM     12  C   UNL     1       4.262   3.171  17.816  0.00  0.00    +0.000 A 
ATOM     13  C   UNL     1       3.498   3.926  18.723  0.00  0.00    +0.000 A 
ATOM     14  S   UNL     1       2.832   3.001  20.108  0.00  0.00    +0.000 S 
ATOM     15  C   UNL     1       1.772   4.180  20.990  0.00  0.00    +0.000 C 
ENDROOT
TORSDOF 0
ENDMDL
MODEL 7
REMARK VINA RESULT:      -5.8      3.854      5.528
REMARK  Name = 
REMARK  1 active torsions:
REMARK  status: ('A' for Active; 'I' for Inactive)
REMARK    1  A    between atoms: C_1  and  N_2
REMARK                            x       y       z     vdW  Elec       q    Type
REMARK                         _______ _______ _______ _____ _____    ______ ____
ROOT
ATOM      1  C   UNL     1       5.572   4.028  15.494  0.00  0.00    +0.000 C 
ATOM      2  N   UNL     1       4.793   4.260  16.687  0.00  0.00    +0.000 N 
ATOM      3  C   UNL     1       4.570   3.366  17.686  0.00  0.00    +0.000 A 
ATOM      4  C   UNL     1       3.803   4.026  18.623  0.00  0.00    +0.000 A 
ATOM      5  C   UNL     1       3.606   5.324  18.090  0.00  0.00    +0.000 A 
ATOM      6  N   UNL     1       4.217   5.457  16.901  0.00  0.00    +0.000 NA
ATOM      7  C   UNL     1       2.851   6.386  18.743  0.00  0.00    +0.000 A 
ATOM      8  C   UNL     1       2.747   7.658  18.152  0.00  0.00    +0.000 A 
ATOM      9  C   UNL     1       2.026   8.672  18.782  0.00  0.00    +0.000 A 
ATOM     10 CL   UNL     1       1.894  10.222  18.045  0.00  0.00    +0.000 Cl
ATOM     11  C   UNL     1       1.406   8.441  20.004  0.00  0.00    +0.000 A 
ATOM     12  C   UNL     1       1.501   7.181  20.596  0.00  0.00    +0.000 A 
ATOM     13  C   UNL     1       2.217   6.142  19.975  0.00  0.00    +0.000 A 
ATOM     14  S   UNL     1       2.191   4.575  20.846  0.00  0.00    +0.000 S 
ATOM     15  C   UNL     1       3.317   3.502  19.913  0.00  0.00    +0.000 C 
ENDROOT
TORSDOF 0
ENDMDL
MODEL 8
REMARK VINA RESULT:      -5.8      3.633      5.810
REMARK  Name = 
REMARK  1 active torsions:
REMARK  status: ('A' for Active; 'I' for Inactive)
REMARK    1  A    between atoms: C_1  and  N_2
REMARK                            x       y       z     vdW  Elec       q    Type
REMARK                         _______ _______ _______ _____ _____    ______ ____
ROOT
ATOM      1  C   UNL     1       6.153   5.539  15.141  0.00  0.00    +0.000 C 
ATOM      2  N   UNL     1       5.265   4.915  16.091  0.00  0.00    +0.000 N 
ATOM      3  C   UNL     1       5.058   3.579  16.239  0.00  0.00    +0.000 A 
ATOM      4  C   UNL     1       4.159   3.446  17.276  0.00  0.00    +0.000 A 
ATOM      5  C   UNL     1       3.873   4.771  17.688  0.00  0.00    +0.000 A 
ATOM      6  N   UNL     1       4.557   5.665  16.955  0.00  0.00    +0.000 NA
ATOM      7  C   UNL     1       2.967   5.127  18.773  0.00  0.00    +0.000 A 
ATOM      8  C   UNL     1       2.780   6.473  19.137  0.00  0.00    +0.000 A 
ATOM      9  C   UNL     1       1.914   6.809  20.177  0.00  0.00    +0.000 A 
ATOM     10 CL   UNL     1       1.683   8.459  20.607  0.00  0.00    +0.000 Cl
ATOM     11  C   UNL     1       1.228   5.819  20.871  0.00  0.00    +0.000 A 
ATOM     12  C   UNL     1       1.405   4.481  20.514  0.00  0.00    +0.000 A 
ATOM     13  C   UNL     1       2.267   4.121  19.464  0.00  0.00    +0.000 A 
ATOM     14  S   UNL     1       2.333   2.366  19.104  0.00  0.00    +0.000 S 
ATOM     15  C   UNL     1       3.631   2.194  17.848  0.00  0.00    +0.000 C 
ENDROOT
TORSDOF 0
ENDMDL
MODEL 9
REMARK VINA RESULT:      -5.6      3.449      5.578
REMARK  Name = 
REMARK  1 active torsions:
REMARK  status: ('A' for Active; 'I' for Inactive)
REMARK    1  A    between atoms: C_1  and  N_2
REMARK                            x       y       z     vdW  Elec       q    Type
REMARK                         _______ _______ _______ _____ _____    ______ ____
ROOT
ATOM      1  C   UNL     1       6.743   4.084  15.471  0.00  0.00    +0.000 C 
ATOM      2  N   UNL     1       5.767   4.823  16.234  0.00  0.00    +0.000 N 
ATOM      3  C   UNL     1       5.331   6.084  15.973  0.00  0.00    +0.000 A 
ATOM      4  C   UNL     1       4.387   6.367  16.938  0.00  0.00    +0.000 A 
ATOM      5  C   UNL     1       4.328   5.206  17.748  0.00  0.00    +0.000 A 
ATOM      6  N   UNL     1       5.178   4.264  17.307  0.00  0.00    +0.000 NA
ATOM      7  C   UNL     1       3.453   5.041  18.903  0.00  0.00    +0.000 A 
ATOM      8  C   UNL     1       3.436   3.832  19.620  0.00  0.00    +0.000 A 
ATOM      9  C   UNL     1       2.596   3.677  20.722  0.00  0.00    +0.000 A 
ATOM     10 CL   UNL     1       2.590   2.198  21.602  0.00  0.00    +0.000 Cl
ATOM     11  C   UNL     1       1.762   4.714  21.123  0.00  0.00    +0.000 A 
ATOM     12  C   UNL     1       1.775   5.919  20.419  0.00  0.00    +0.000 A 
ATOM     13  C   UNL     1       2.620   6.099  19.309  0.00  0.00    +0.000 A 
ATOM     14  S   UNL     1       2.549   7.725  18.557  0.00  0.00    +0.000 S 
ATOM     15  C   UNL     1       3.593   7.602  17.078  0.00  0.00    +0.000 C 
ENDROOT
TORSDOF 0
ENDMDL
