MODEL 1
REMARK VINA RESULT:      -7.3      0.000      0.000
REMARK  Name = 
REMARK  4 active torsions:
REMARK  status: ('A' for Active; 'I' for Inactive)
REMARK    1  A    between atoms: C_1  and  C_2
REMARK    2  A    between atoms: C_5  and  N_6
REMARK    3  A    between atoms: C_7  and  C_9
REMARK    4  A    between atoms: C_16  and  C_17
REMARK                            x       y       z     vdW  Elec       q    Type
REMARK                         _______ _______ _______ _____ _____    ______ ____
ROOT
ATOM      1  N   UNL     1       4.983   3.429  16.519  0.00  0.00    +0.000 N 
ATOM      2  C   UNL     1       5.242   4.600  15.823  0.00  0.00    +0.000 C 
ATOM      3  O   UNL     1       4.913   5.732  16.159  0.00  0.00    +0.000 OA
ATOM      4  H   UNL     1       5.285   2.558  16.109  0.00  0.00    +0.000 HD
ENDROOT
BRANCH   1   9
ATOM      5  C   UNL     1       1.940   2.921  21.375  0.00  0.00    +0.000 C 
ATOM      6  C   UNL     1       2.712   3.061  20.091  0.00  0.00    +0.000 A 
ATOM      7  C   UNL     1       4.044   3.481  20.146  0.00  0.00    +0.000 A 
ATOM      8  C   UNL     1       4.806   3.607  18.983  0.00  0.00    +0.000 A 
ATOM      9  C   UNL     1       4.260   3.318  17.734  0.00  0.00    +0.000 A 
ATOM     10  C   UNL     1       2.919   2.910  17.671  0.00  0.00    +0.000 A 
ATOM     11  C   UNL     1       2.136   2.779  18.837  0.00  0.00    +0.000 A 
ATOM     12  C   UNL     1       0.699   2.343  18.730  0.00  0.00    +0.000 C 
ENDBRANCH   1   9
BRANCH   2  13
ATOM     13  C   UNL     1       5.961   4.465  14.524  0.00  0.00    +0.000 A 
ATOM     14  C   UNL     1       5.378   3.639  13.549  0.00  0.00    +0.000 A 
ATOM     15  C   UNL     1       5.987   3.470  12.305  0.00  0.00    +0.000 A 
ATOM     16  C   UNL     1       7.178   4.133  12.024  0.00  0.00    +0.000 A 
ATOM     17  C   UNL     1       7.755   4.971  12.981  0.00  0.00    +0.000 A 
ATOM     18  C   UNL     1       7.148   5.144  14.229  0.00  0.00    +0.000 A 
ENDBRANCH   2  13
TORSDOF 2
ENDMDL
MODEL 2
REMARK VINA RESULT:      -7.2      1.240      6.819
REMARK  Name = 
REMARK  4 active torsions:
REMARK  status: ('A' for Active; 'I' for Inactive)
REMARK    1  A    between atoms: C_1  and  C_2
REMARK    2  A    between atoms: C_5  and  N_6
REMARK    3  A    between atoms: C_7  and  C_9
REMARK    4  A    between atoms: C_16  and  C_17
REMARK                            x       y       z     vdW  Elec       q    Type
REMARK                         _______ _______ _______ _____ _____    ______ ____
ROOT
ATOM      1  N   UNL     1       4.709   3.710  17.418  0.00  0.00    +0.000 N 
ATOM      2  C   UNL     1       3.666   4.448  17.955  0.00  0.00    +0.000 C 
ATOM      3  O   UNL     1       3.269   5.538  17.558  0.00  0.00    +0.000 OA
ATOM      4  H   UNL     1       4.952   2.839  17.866  0.00  0.00    +0.000 HD
ENDROOT
BRANCH   1   9
ATOM      5  C   UNL     1       7.960   5.205  12.913  0.00  0.00    +0.000 C 
ATOM      6  C   UNL     1       7.104   4.789  14.078  0.00  0.00    +0.000 A 
ATOM      7  C   UNL     1       7.452   5.221  15.361  0.00  0.00    +0.000 A 
ATOM      8  C   UNL     1       6.677   4.877  16.471  0.00  0.00    +0.000 A 
ATOM      9  C   UNL     1       5.534   4.092  16.330  0.00  0.00    +0.000 A 
ATOM     10  C   UNL     1       5.187   3.644  15.047  0.00  0.00    +0.000 A 
ATOM     11  C   UNL     1       5.961   3.981  13.917  0.00  0.00    +0.000 A 
ATOM     12  C   UNL     1       5.560   3.477  12.556  0.00  0.00    +0.000 C 
ENDBRANCH   1   9
BRANCH   2  13
ATOM     13  C   UNL     1       2.983   3.877  19.151  0.00  0.00    +0.000 A 
ATOM     14  C   UNL     1       1.626   4.193  19.329  0.00  0.00    +0.000 A 
ATOM     15  C   UNL     1       0.917   3.689  20.419  0.00  0.00    +0.000 A 
ATOM     16  C   UNL     1       1.556   2.859  21.334  0.00  0.00    +0.000 A 
ATOM     17  C   UNL     1       2.900   2.524  21.155  0.00  0.00    +0.000 A 
ATOM     18  C   UNL     1       3.616   3.026  20.063  0.00  0.00    +0.000 A 
ENDBRANCH   2  13
TORSDOF 2
ENDMDL
MODEL 3
REMARK VINA RESULT:      -7.2      1.164      1.164
REMARK  Name = 
REMARK  4 active torsions:
REMARK  status: ('A' for Active; 'I' for Inactive)
REMARK    1  A    between atoms: C_1  and  C_2
REMARK    2  A    between atoms: C_5  and  N_6
REMARK    3  A    between atoms: C_7  and  C_9
REMARK    4  A    between atoms: C_16  and  C_17
REMARK                            x       y       z     vdW  Elec       q    Type
REMARK                         _______ _______ _______ _____ _____    ______ ____
ROOT
ATOM      1  N   UNL     1       4.545   4.343  16.011  0.00  0.00    +0.000 N 
ATOM      2  C   UNL     1       5.923   4.309  15.857  0.00  0.00    +0.000 C 
ATOM      3  O   UNL     1       6.753   4.268  16.758  0.00  0.00    +0.000 OA
ATOM      4  H   UNL     1       3.977   4.408  15.180  0.00  0.00    +0.000 HD
ENDROOT
BRANCH   1   9
ATOM      5  C   UNL     1       1.613   4.339  20.961  0.00  0.00    +0.000 C 
ATOM      6  C   UNL     1       2.355   4.332  19.653  0.00  0.00    +0.000 A 
ATOM      7  C   UNL     1       3.399   5.241  19.463  0.00  0.00    +0.000 A 
ATOM      8  C   UNL     1       4.131   5.260  18.274  0.00  0.00    +0.000 A 
ATOM      9  C   UNL     1       3.839   4.371  17.241  0.00  0.00    +0.000 A 
ATOM     10  C   UNL     1       2.784   3.465  17.419  0.00  0.00    +0.000 A 
ATOM     11  C   UNL     1       2.035   3.436  18.614  0.00  0.00    +0.000 A 
ATOM     12  C   UNL     1       0.905   2.453  18.767  0.00  0.00    +0.000 C 
ENDBRANCH   1   9
BRANCH   2  13
ATOM     13  C   UNL     1       6.445   4.360  14.462  0.00  0.00    +0.000 A 
ATOM     14  C   UNL     1       5.839   3.516  13.517  0.00  0.00    +0.000 A 
ATOM     15  C   UNL     1       6.266   3.513  12.189  0.00  0.00    +0.000 A 
ATOM     16  C   UNL     1       7.297   4.362  11.795  0.00  0.00    +0.000 A 
ATOM     17  C   UNL     1       7.892   5.218  12.723  0.00  0.00    +0.000 A 
ATOM     18  C   UNL     1       7.466   5.225  14.056  0.00  0.00    +0.000 A 
ENDBRANCH   2  13
TORSDOF 2
ENDMDL
MODEL 4
REMARK VINA RESULT:      -7.1      1.261      6.846
REMARK  Name = 
REMARK  4 active torsions:
REMARK  status: ('A' for Active; 'I' for Inactive)
REMARK    1  A    between atoms: C_1  and  C_2
REMARK    2  A    between atoms: C_5  and  N_6
REMARK    3  A    between atoms: C_7  and  C_9
REMARK    4  A    between atoms: C_16  and  C_17
REMARK                            x       y       z     vdW  Elec       q    Type
REMARK                         _______ _______ _______ _____ _____    ______ ____
ROOT
ATOM      1  N   UNL     1       4.649   3.733  17.399  0.00  0.00    +0.000 N 
ATOM      2  C   UNL     1       3.678   4.533  17.982  0.00  0.00    +0.000 C 
ATOM      3  O   UNL     1       3.373   5.670  17.640  0.00  0.00    +0.000 OA
ATOM      4  H   UNL     1       4.820   2.825  17.803  0.00  0.00    +0.000 HD
ENDROOT
BRANCH   1   9
ATOM      5  C   UNL     1       7.986   5.146  12.930  0.00  0.00    +0.000 C 
ATOM      6  C   UNL     1       7.106   4.752  14.085  0.00  0.00    +0.000 A 
ATOM      7  C   UNL     1       7.463   5.157  15.375  0.00  0.00    +0.000 A 
ATOM      8  C   UNL     1       6.668   4.832  16.476  0.00  0.00    +0.000 A 
ATOM      9  C   UNL     1       5.496   4.095  16.320  0.00  0.00    +0.000 A 
ATOM     10  C   UNL     1       5.140   3.674  15.030  0.00  0.00    +0.000 A 
ATOM     11  C   UNL     1       5.934   3.992  13.908  0.00  0.00    +0.000 A 
ATOM     12  C   UNL     1       5.523   3.519  12.540  0.00  0.00    +0.000 C 
ENDBRANCH   1   9
BRANCH   2  13
ATOM     13  C   UNL     1       2.957   3.967  19.157  0.00  0.00    +0.000 A 
ATOM     14  C   UNL     1       3.657   3.053  19.963  0.00  0.00    +0.000 A 
ATOM     15  C   UNL     1       3.054   2.488  21.085  0.00  0.00    +0.000 A 
ATOM     16  C   UNL     1       1.748   2.838  21.416  0.00  0.00    +0.000 A 
ATOM     17  C   UNL     1       1.051   3.760  20.633  0.00  0.00    +0.000 A 
ATOM     18  C   UNL     1       1.652   4.331  19.506  0.00  0.00    +0.000 A 
ENDBRANCH   2  13
TORSDOF 2
ENDMDL
MODEL 5
REMARK VINA RESULT:      -7.1      1.363      1.655
REMARK  Name = 
REMARK  4 active torsions:
REMARK  status: ('A' for Active; 'I' for Inactive)
REMARK    1  A    between atoms: C_1  and  C_2
REMARK    2  A    between atoms: C_5  and  N_6
REMARK    3  A    between atoms: C_7  and  C_9
REMARK    4  A    between atoms: C_16  and  C_17
REMARK                            x       y       z     vdW  Elec       q    Type
REMARK                         _______ _______ _______ _____ _____    ______ ____
ROOT
ATOM      1  N   UNL     1       4.615   3.932  16.120  0.00  0.00    +0.000 N 
ATOM      2  C   UNL     1       5.957   4.225  15.937  0.00  0.00    +0.000 C 
ATOM      3  O   UNL     1       6.778   4.450  16.819  0.00  0.00    +0.000 OA
ATOM      4  H   UNL     1       4.043   3.800  15.300  0.00  0.00    +0.000 HD
ENDROOT
BRANCH   1   9
ATOM      5  C   UNL     1       1.815   3.825  21.145  0.00  0.00    +0.000 C 
ATOM      6  C   UNL     1       2.558   3.878  19.838  0.00  0.00    +0.000 A 
ATOM      7  C   UNL     1       3.007   2.685  19.266  0.00  0.00    +0.000 A 
ATOM      8  C   UNL     1       3.684   2.683  18.045  0.00  0.00    +0.000 A 
ATOM      9  C   UNL     1       3.932   3.871  17.362  0.00  0.00    +0.000 A 
ATOM     10  C   UNL     1       3.496   5.074  17.937  0.00  0.00    +0.000 A 
ATOM     11  C   UNL     1       2.812   5.092  19.171  0.00  0.00    +0.000 A 
ATOM     12  C   UNL     1       2.364   6.403  19.760  0.00  0.00    +0.000 C 
ENDBRANCH   1   9
BRANCH   2  13
ATOM     13  C   UNL     1       6.442   4.306  14.529  0.00  0.00    +0.000 A 
ATOM     14  C   UNL     1       5.810   3.484  13.582  0.00  0.00    +0.000 A 
ATOM     15  C   UNL     1       6.202   3.510  12.245  0.00  0.00    +0.000 A 
ATOM     16  C   UNL     1       7.222   4.366  11.841  0.00  0.00    +0.000 A 
ATOM     17  C   UNL     1       7.843   5.202  12.772  0.00  0.00    +0.000 A 
ATOM     18  C   UNL     1       7.453   5.179  14.115  0.00  0.00    +0.000 A 
ENDBRANCH   2  13
TORSDOF 2
ENDMDL
MODEL 6
REMARK VINA RESULT:      -7.0      1.031      1.560
REMARK  Name = 
REMARK  4 active torsions:
REMARK  status: ('A' for Active; 'I' for Inactive)
REMARK    1  A    between atoms: C_1  and  C_2
REMARK    2  A    between atoms: C_5  and  N_6
REMARK    3  A    between atoms: C_7  and  C_9
REMARK    4  A    between atoms: C_16  and  C_17
REMARK                            x       y       z     vdW  Elec       q    Type
REMARK                         _______ _______ _______ _____ _____    ______ ____
ROOT
ATOM      1  N   UNL     1       4.524   4.160  16.048  0.00  0.00    +0.000 N 
ATOM      2  C   UNL     1       5.889   4.260  15.826  0.00  0.00    +0.000 C 
ATOM      3  O   UNL     1       6.758   4.359  16.685  0.00  0.00    +0.000 OA
ATOM      4  H   UNL     1       3.916   4.116  15.244  0.00  0.00    +0.000 HD
ENDROOT
BRANCH   1   9
ATOM      5  C   UNL     1       1.810   4.167  21.120  0.00  0.00    +0.000 C 
ATOM      6  C   UNL     1       2.494   4.160  19.781  0.00  0.00    +0.000 A 
ATOM      7  C   UNL     1       3.603   4.988  19.584  0.00  0.00    +0.000 A 
ATOM      8  C   UNL     1       4.283   5.001  18.364  0.00  0.00    +0.000 A 
ATOM      9  C   UNL     1       3.875   4.189  17.309  0.00  0.00    +0.000 A 
ATOM     10  C   UNL     1       2.755   3.366  17.495  0.00  0.00    +0.000 A 
ATOM     11  C   UNL     1       2.056   3.343  18.721  0.00  0.00    +0.000 A 
ATOM     12  C   UNL     1       0.855   2.450  18.882  0.00  0.00    +0.000 C 
ENDBRANCH   1   9
BRANCH   2  13
ATOM     13  C   UNL     1       6.340   4.281  14.405  0.00  0.00    +0.000 A 
ATOM     14  C   UNL     1       7.397   5.146  14.078  0.00  0.00    +0.000 A 
ATOM     15  C   UNL     1       7.880   5.215  12.772  0.00  0.00    +0.000 A 
ATOM     16  C   UNL     1       7.316   4.412  11.784  0.00  0.00    +0.000 A 
ATOM     17  C   UNL     1       6.277   3.535  12.104  0.00  0.00    +0.000 A 
ATOM     18  C   UNL     1       5.790   3.461  13.413  0.00  0.00    +0.000 A 
ENDBRANCH   2  13
TORSDOF 2
ENDMDL
MODEL 7
REMARK VINA RESULT:      -7.0      1.290      1.980
REMARK  Name = 
REMARK  4 active torsions:
REMARK  status: ('A' for Active; 'I' for Inactive)
REMARK    1  A    between atoms: C_1  and  C_2
REMARK    2  A    between atoms: C_5  and  N_6
REMARK    3  A    between atoms: C_7  and  C_9
REMARK    4  A    between atoms: C_16  and  C_17
REMARK                            x       y       z     vdW  Elec       q    Type
REMARK                         _______ _______ _______ _____ _____    ______ ____
ROOT
ATOM      1  N   UNL     1       4.513   3.815  16.163  0.00  0.00    +0.000 N 
ATOM      2  C   UNL     1       5.842   4.147  15.948  0.00  0.00    +0.000 C 
ATOM      3  O   UNL     1       6.674   4.404  16.811  0.00  0.00    +0.000 OA
ATOM      4  H   UNL     1       3.928   3.659  15.356  0.00  0.00    +0.000 HD
ENDROOT
BRANCH   1   9
ATOM      5  C   UNL     1       1.829   3.656  21.249  0.00  0.00    +0.000 C 
ATOM      6  C   UNL     1       2.542   3.724  19.926  0.00  0.00    +0.000 A 
ATOM      7  C   UNL     1       2.990   2.537  19.339  0.00  0.00    +0.000 A 
ATOM      8  C   UNL     1       3.639   2.547  18.102  0.00  0.00    +0.000 A 
ATOM      9  C   UNL     1       3.859   3.741  17.419  0.00  0.00    +0.000 A 
ATOM     10  C   UNL     1       3.424   4.937  18.010  0.00  0.00    +0.000 A 
ATOM     11  C   UNL     1       2.769   4.943  19.259  0.00  0.00    +0.000 A 
ATOM     12  C   UNL     1       2.321   6.246  19.864  0.00  0.00    +0.000 C 
ENDBRANCH   1   9
BRANCH   2  13
ATOM     13  C   UNL     1       6.293   4.234  14.530  0.00  0.00    +0.000 A 
ATOM     14  C   UNL     1       7.352   5.111  14.244  0.00  0.00    +0.000 A 
ATOM     15  C   UNL     1       7.836   5.241  12.943  0.00  0.00    +0.000 A 
ATOM     16  C   UNL     1       7.270   4.487  11.919  0.00  0.00    +0.000 A 
ATOM     17  C   UNL     1       6.230   3.598  12.197  0.00  0.00    +0.000 A 
ATOM     18  C   UNL     1       5.742   3.464  13.501  0.00  0.00    +0.000 A 
ENDBRANCH   2  13
TORSDOF 2
ENDMDL
MODEL 8
REMARK VINA RESULT:      -6.8      1.211      1.630
REMARK  Name = 
REMARK  4 active torsions:
REMARK  status: ('A' for Active; 'I' for Inactive)
REMARK    1  A    between atoms: C_1  and  C_2
REMARK    2  A    between atoms: C_5  and  N_6
REMARK    3  A    between atoms: C_7  and  C_9
REMARK    4  A    between atoms: C_16  and  C_17
REMARK                            x       y       z     vdW  Elec       q    Type
REMARK                         _______ _______ _______ _____ _____    ______ ____
ROOT
ATOM      1  N   UNL     1       4.628   4.060  16.166  0.00  0.00    +0.000 N 
ATOM      2  C   UNL     1       5.954   4.386  15.926  0.00  0.00    +0.000 C 
ATOM      3  O   UNL     1       6.784   4.715  16.768  0.00  0.00    +0.000 OA
ATOM      4  H   UNL     1       4.045   3.837  15.373  0.00  0.00    +0.000 HD
ENDROOT
BRANCH   1   9
ATOM      5  C   UNL     1       2.068   4.041  21.318  0.00  0.00    +0.000 C 
ATOM      6  C   UNL     1       2.741   4.018  19.973  0.00  0.00    +0.000 A 
ATOM      7  C   UNL     1       2.342   4.939  19.001  0.00  0.00    +0.000 A 
ATOM      8  C   UNL     1       2.950   4.969  17.744  0.00  0.00    +0.000 A 
ATOM      9  C   UNL     1       3.973   4.079  17.424  0.00  0.00    +0.000 A 
ATOM     10  C   UNL     1       4.370   3.142  18.390  0.00  0.00    +0.000 A 
ATOM     11  C   UNL     1       3.763   3.099  19.663  0.00  0.00    +0.000 A 
ATOM     12  C   UNL     1       4.211   2.076  20.672  0.00  0.00    +0.000 C 
ENDBRANCH   1   9
BRANCH   2  13
ATOM     13  C   UNL     1       6.406   4.366  14.506  0.00  0.00    +0.000 A 
ATOM     14  C   UNL     1       5.719   3.516  13.624  0.00  0.00    +0.000 A 
ATOM     15  C   UNL     1       6.078   3.449  12.278  0.00  0.00    +0.000 A 
ATOM     16  C   UNL     1       7.121   4.238  11.802  0.00  0.00    +0.000 A 
ATOM     17  C   UNL     1       7.797   5.101  12.668  0.00  0.00    +0.000 A 
ATOM     18  C   UNL     1       7.440   5.172  14.019  0.00  0.00    +0.000 A 
ENDBRANCH   2  13
TORSDOF 2
ENDMDL
MODEL 9
REMARK VINA RESULT:      -6.8      0.976      1.955
REMARK  Name = 
REMARK  4 active torsions:
REMARK  status: ('A' for Active; 'I' for Inactive)
REMARK    1  A    between atoms: C_1  and  C_2
REMARK    2  A    between atoms: C_5  and  N_6
REMARK    3  A    between atoms: C_7  and  C_9
REMARK    4  A    between atoms: C_16  and  C_17
REMARK                            x       y       z     vdW  Elec       q    Type
REMARK                         _______ _______ _______ _____ _____    ______ ____
ROOT
ATOM      1  N   UNL     1       4.417   3.797  16.158  0.00  0.00    +0.000 N 
ATOM      2  C   UNL     1       5.583   4.496  15.885  0.00  0.00    +0.000 C 
ATOM      3  O   UNL     1       6.205   5.204  16.670  0.00  0.00    +0.000 OA
ATOM      4  H   UNL     1       3.991   3.276  15.406  0.00  0.00    +0.000 HD
ENDROOT
BRANCH   1   9
ATOM      5  C   UNL     1       1.644   3.725  21.198  0.00  0.00    +0.000 C 
ATOM      6  C   UNL     1       2.377   3.717  19.885  0.00  0.00    +0.000 A 
ATOM      7  C   UNL     1       1.873   4.474  18.823  0.00  0.00    +0.000 A 
ATOM      8  C   UNL     1       2.529   4.513  17.592  0.00  0.00    +0.000 A 
ATOM      9  C   UNL     1       3.707   3.797  17.386  0.00  0.00    +0.000 A 
ATOM     10  C   UNL     1       4.211   3.024  18.442  0.00  0.00    +0.000 A 
ATOM     11  C   UNL     1       3.558   2.973  19.691  0.00  0.00    +0.000 A 
ATOM     12  C   UNL     1       4.126   2.128  20.800  0.00  0.00    +0.000 C 
ENDBRANCH   1   9
BRANCH   2  13
ATOM     13  C   UNL     1       6.113   4.403  14.495  0.00  0.00    +0.000 A 
ATOM     14  C   UNL     1       7.248   5.171  14.187  0.00  0.00    +0.000 A 
ATOM     15  C   UNL     1       7.808   5.131  12.910  0.00  0.00    +0.000 A 
ATOM     16  C   UNL     1       7.242   4.316  11.934  0.00  0.00    +0.000 A 
ATOM     17  C   UNL     1       6.126   3.533  12.238  0.00  0.00    +0.000 A 
ATOM     18  C   UNL     1       5.561   3.570  13.517  0.00  0.00    +0.000 A 
ENDBRANCH   2  13
TORSDOF 2
ENDMDL
