MODEL 1
REMARK VINA RESULT:      -7.5      0.000      0.000
REMARK  Name = 
REMARK  6 active torsions:
REMARK  status: ('A' for Active; 'I' for Inactive)
REMARK    1  A    between atoms: C_1  and  O_2
REMARK    2  A    between atoms: O_2  and  C_3
REMARK    3  A    between atoms: C_7  and  S_8
REMARK    4  A    between atoms: S_8  and  C_9
REMARK    5  A    between atoms: C_9  and  C_10
REMARK    6  A    between atoms: C_16  and  N_17
REMARK                            x       y       z     vdW  Elec       q    Type
REMARK                         _______ _______ _______ _____ _____    ______ ____
ROOT
ATOM      1  C   UNL     1       3.915   3.458  17.785  0.00  0.00    +0.000 C 
ATOM      2  O   UNL     1       3.840   2.254  18.030  0.00  0.00    +0.000 OA
ATOM      3  N   UNL     1       3.744   4.402  18.795  0.00  0.00    +0.000 N 
ATOM      4  C   UNL     1       3.589   3.955  20.177  0.00  0.00    +0.000 C 
ATOM      5  C   UNL     1       2.214   4.350  20.709  0.00  0.00    +0.000 C 
ATOM      6  C   UNL     1       1.980   5.858  20.568  0.00  0.00    +0.000 C 
ATOM      7  C   UNL     1       2.229   6.336  19.126  0.00  0.00    +0.000 C 
ATOM      8  C   UNL     1       3.606   5.847  18.610  0.00  0.00    +0.000 C 
ENDROOT
BRANCH   7   9
ATOM      9  N   UNL     1       2.056   7.785  18.986  0.00  0.00    +0.000 N 
ATOM     10  C   UNL     1       2.115   8.434  17.698  0.00  0.00    +0.000 C 
ATOM     11  C   UNL     1       2.089   9.906  18.059  0.00  0.00    +0.000 C 
ATOM     12  C   UNL     1       1.204   9.953  19.295  0.00  0.00    +0.000 C 
ATOM     13  C   UNL     1       1.418   8.596  19.920  0.00  0.00    +0.000 C 
ATOM     14  O   UNL     1       1.052   8.275  21.038  0.00  0.00    +0.000 OA
ENDBRANCH   7   9
BRANCH   1  15
ATOM     15  C   UNL     1       4.212   3.999  16.382  0.00  0.00    +0.000 C 
BRANCH  15  16
ATOM     16  S   UNL     1       5.987   3.874  15.969  0.00  0.00    +0.000 S 
BRANCH  16  21
ATOM     17  C   UNL     1       7.476   7.393  17.521  0.00  0.00    +0.000 A 
ATOM     18  C   UNL     1       8.055   6.925  18.702  0.00  0.00    +0.000 A 
ATOM     19  C   UNL     1       7.999   5.574  19.028  0.00  0.00    +0.000 A 
ATOM     20  C   UNL     1       7.360   4.683  18.166  0.00  0.00    +0.000 A 
ATOM     21  C   UNL     1       6.771   5.130  16.974  0.00  0.00    +0.000 A 
ATOM     22  C   UNL     1       6.833   6.493  16.662  0.00  0.00    +0.000 A 
BRANCH  17  24
ATOM     23  C   UNL     1       8.475   9.446  18.197  0.00  0.00    +0.000 C 
ATOM     24  O   UNL     1       7.604   8.742  17.322  0.00  0.00    +0.000 OA
ENDBRANCH  17  24
ENDBRANCH  16  21
ENDBRANCH  15  16
ENDBRANCH   1  15
TORSDOF 5
ENDMDL
MODEL 2
REMARK VINA RESULT:      -7.3      0.963      1.252
REMARK  Name = 
REMARK  6 active torsions:
REMARK  status: ('A' for Active; 'I' for Inactive)
REMARK    1  A    between atoms: C_1  and  O_2
REMARK    2  A    between atoms: O_2  and  C_3
REMARK    3  A    between atoms: C_7  and  S_8
REMARK    4  A    between atoms: S_8  and  C_9
REMARK    5  A    between atoms: C_9  and  C_10
REMARK    6  A    between atoms: C_16  and  N_17
REMARK                            x       y       z     vdW  Elec       q    Type
REMARK                         _______ _______ _______ _____ _____    ______ ____
ROOT
ATOM      1  C   UNL     1       4.123   3.486  17.553  0.00  0.00    +0.000 C 
ATOM      2  O   UNL     1       4.130   2.261  17.678  0.00  0.00    +0.000 OA
ATOM      3  N   UNL     1       3.836   4.310  18.640  0.00  0.00    +0.000 N 
ATOM      4  C   UNL     1       3.655   3.718  19.962  0.00  0.00    +0.000 C 
ATOM      5  C   UNL     1       2.233   3.958  20.459  0.00  0.00    +0.000 C 
ATOM      6  C   UNL     1       1.890   5.451  20.452  0.00  0.00    +0.000 C 
ATOM      7  C   UNL     1       2.163   6.087  19.077  0.00  0.00    +0.000 C 
ATOM      8  C   UNL     1       3.595   5.752  18.587  0.00  0.00    +0.000 C 
ENDROOT
BRANCH   7   9
ATOM      9  N   UNL     1       1.885   7.527  19.067  0.00  0.00    +0.000 N 
ATOM     10  C   UNL     1       1.608   8.253  20.283  0.00  0.00    +0.000 C 
ATOM     11  C   UNL     1       1.193   9.619  19.774  0.00  0.00    +0.000 C 
ATOM     12  C   UNL     1       2.045   9.808  18.528  0.00  0.00    +0.000 C 
ATOM     13  C   UNL     1       2.264   8.394  18.047  0.00  0.00    +0.000 C 
ATOM     14  O   UNL     1       2.730   8.088  16.962  0.00  0.00    +0.000 OA
ENDBRANCH   7   9
BRANCH   1  15
ATOM     15  C   UNL     1       4.438   4.184  16.226  0.00  0.00    +0.000 C 
BRANCH  15  16
ATOM     16  S   UNL     1       6.222   4.131  15.839  0.00  0.00    +0.000 S 
BRANCH  16  21
ATOM     17  C   UNL     1       7.596   7.577  17.642  0.00  0.00    +0.000 A 
ATOM     18  C   UNL     1       8.162   7.048  18.803  0.00  0.00    +0.000 A 
ATOM     19  C   UNL     1       8.132   5.678  19.041  0.00  0.00    +0.000 A 
ATOM     20  C   UNL     1       7.531   4.830  18.111  0.00  0.00    +0.000 A 
ATOM     21  C   UNL     1       6.956   5.338  16.938  0.00  0.00    +0.000 A 
ATOM     22  C   UNL     1       6.992   6.719  16.714  0.00  0.00    +0.000 A 
BRANCH  17  24
ATOM     23  C   UNL     1       8.637   9.589  18.372  0.00  0.00    +0.000 C 
ATOM     24  O   UNL     1       7.695   8.938  17.531  0.00  0.00    +0.000 OA
ENDBRANCH  17  24
ENDBRANCH  16  21
ENDBRANCH  15  16
ENDBRANCH   1  15
TORSDOF 5
ENDMDL
MODEL 3
REMARK VINA RESULT:      -7.3      2.815      6.834
REMARK  Name = 
REMARK  6 active torsions:
REMARK  status: ('A' for Active; 'I' for Inactive)
REMARK    1  A    between atoms: C_1  and  O_2
REMARK    2  A    between atoms: O_2  and  C_3
REMARK    3  A    between atoms: C_7  and  S_8
REMARK    4  A    between atoms: S_8  and  C_9
REMARK    5  A    between atoms: C_9  and  C_10
REMARK    6  A    between atoms: C_16  and  N_17
REMARK                            x       y       z     vdW  Elec       q    Type
REMARK                         _______ _______ _______ _____ _____    ______ ____
ROOT
ATOM      1  C   UNL     1       1.866   5.355  19.864  0.00  0.00    +0.000 C 
ATOM      2  O   UNL     1       1.032   4.908  20.650  0.00  0.00    +0.000 OA
ATOM      3  N   UNL     1       2.202   4.654  18.707  0.00  0.00    +0.000 N 
ATOM      4  C   UNL     1       1.472   3.435  18.370  0.00  0.00    +0.000 C 
ATOM      5  C   UNL     1       2.414   2.235  18.380  0.00  0.00    +0.000 C 
ATOM      6  C   UNL     1       3.607   2.461  17.446  0.00  0.00    +0.000 C 
ATOM      7  C   UNL     1       4.321   3.790  17.752  0.00  0.00    +0.000 C 
ATOM      8  C   UNL     1       3.309   4.963  17.802  0.00  0.00    +0.000 C 
ENDROOT
BRANCH   7   9
ATOM      9  N   UNL     1       5.436   4.045  16.835  0.00  0.00    +0.000 N 
ATOM     10  C   UNL     1       5.218   4.317  15.435  0.00  0.00    +0.000 C 
ATOM     11  C   UNL     1       6.623   4.311  14.867  0.00  0.00    +0.000 C 
ATOM     12  C   UNL     1       7.467   4.879  15.999  0.00  0.00    +0.000 C 
ATOM     13  C   UNL     1       6.700   4.471  17.233  0.00  0.00    +0.000 C 
ATOM     14  O   UNL     1       7.120   4.549  18.375  0.00  0.00    +0.000 OA
ENDBRANCH   7   9
BRANCH   1  15
ATOM     15  C   UNL     1       2.575   6.696  20.083  0.00  0.00    +0.000 C 
BRANCH  15  16
ATOM     16  S   UNL     1       1.807   8.035  19.107  0.00  0.00    +0.000 S 
BRANCH  16  21
ATOM     17  C   UNL     1      -0.129  11.074  21.113  0.00  0.00    +0.000 A 
ATOM     18  C   UNL     1      -0.256  10.502  22.380  0.00  0.00    +0.000 A 
ATOM     19  C   UNL     1       0.232   9.223  22.628  0.00  0.00    +0.000 A 
ATOM     20  C   UNL     1       0.852   8.511  21.601  0.00  0.00    +0.000 A 
ATOM     21  C   UNL     1       0.991   9.065  20.321  0.00  0.00    +0.000 A 
ATOM     22  C   UNL     1       0.492  10.352  20.087  0.00  0.00    +0.000 A 
BRANCH  17  24
ATOM     23  C   UNL     1      -0.361  13.058  19.816  0.00  0.00    +0.000 C 
ATOM     24  O   UNL     1      -0.650  12.336  21.005  0.00  0.00    +0.000 OA
ENDBRANCH  17  24
ENDBRANCH  16  21
ENDBRANCH  15  16
ENDBRANCH   1  15
TORSDOF 5
ENDMDL
MODEL 4
REMARK VINA RESULT:      -7.2      2.782      6.785
REMARK  Name = 
REMARK  6 active torsions:
REMARK  status: ('A' for Active; 'I' for Inactive)
REMARK    1  A    between atoms: C_1  and  O_2
REMARK    2  A    between atoms: O_2  and  C_3
REMARK    3  A    between atoms: C_7  and  S_8
REMARK    4  A    between atoms: S_8  and  C_9
REMARK    5  A    between atoms: C_9  and  C_10
REMARK    6  A    between atoms: C_16  and  N_17
REMARK                            x       y       z     vdW  Elec       q    Type
REMARK                         _______ _______ _______ _____ _____    ______ ____
ROOT
ATOM      1  C   UNL     1       1.611   5.046  19.897  0.00  0.00    +0.000 C 
ATOM      2  O   UNL     1       0.761   4.180  20.104  0.00  0.00    +0.000 OA
ATOM      3  N   UNL     1       2.452   4.966  18.788  0.00  0.00    +0.000 N 
ATOM      4  C   UNL     1       2.246   3.907  17.805  0.00  0.00    +0.000 C 
ATOM      5  C   UNL     1       3.460   2.984  17.759  0.00  0.00    +0.000 C 
ATOM      6  C   UNL     1       4.744   3.773  17.485  0.00  0.00    +0.000 C 
ATOM      7  C   UNL     1       4.912   4.941  18.474  0.00  0.00    +0.000 C 
ATOM      8  C   UNL     1       3.625   5.803  18.536  0.00  0.00    +0.000 C 
ENDROOT
BRANCH   7   9
ATOM      9  N   UNL     1       6.112   5.735  18.195  0.00  0.00    +0.000 N 
ATOM     10  C   UNL     1       6.100   6.815  17.237  0.00  0.00    +0.000 C 
ATOM     11  C   UNL     1       7.563   7.195  17.138  0.00  0.00    +0.000 C 
ATOM     12  C   UNL     1       8.090   6.954  18.545  0.00  0.00    +0.000 C 
ATOM     13  C   UNL     1       7.197   5.850  19.058  0.00  0.00    +0.000 C 
ATOM     14  O   UNL     1       7.393   5.210  20.077  0.00  0.00    +0.000 OA
ENDBRANCH   7   9
BRANCH   1  15
ATOM     15  C   UNL     1       1.795   6.260  20.813  0.00  0.00    +0.000 C 
BRANCH  15  16
ATOM     16  S   UNL     1       1.794   7.825  19.871  0.00  0.00    +0.000 S 
BRANCH  16  21
ATOM     17  C   UNL     1      -0.733  10.794  21.218  0.00  0.00    +0.000 A 
ATOM     18  C   UNL     1      -0.671  10.576  22.595  0.00  0.00    +0.000 A 
ATOM     19  C   UNL     1       0.117   9.552  23.112  0.00  0.00    +0.000 A 
ATOM     20  C   UNL     1       0.849   8.742  22.244  0.00  0.00    +0.000 A 
ATOM     21  C   UNL     1       0.803   8.942  20.858  0.00  0.00    +0.000 A 
ATOM     22  C   UNL     1       0.003   9.974  20.353  0.00  0.00    +0.000 A 
BRANCH  17  24
ATOM     23  C   UNL     1      -0.909  13.007  20.357  0.00  0.00    +0.000 C 
ATOM     24  O   UNL     1      -1.544  11.833  20.844  0.00  0.00    +0.000 OA
ENDBRANCH  17  24
ENDBRANCH  16  21
ENDBRANCH  15  16
ENDBRANCH   1  15
TORSDOF 5
ENDMDL
MODEL 5
REMARK VINA RESULT:      -7.2      2.790      6.978
REMARK  Name = 
REMARK  6 active torsions:
REMARK  status: ('A' for Active; 'I' for Inactive)
REMARK    1  A    between atoms: C_1  and  O_2
REMARK    2  A    between atoms: O_2  and  C_3
REMARK    3  A    between atoms: C_7  and  S_8
REMARK    4  A    between atoms: S_8  and  C_9
REMARK    5  A    between atoms: C_9  and  C_10
REMARK    6  A    between atoms: C_16  and  N_17
REMARK                            x       y       z     vdW  Elec       q    Type
REMARK                         _______ _______ _______ _____ _____    ______ ____
ROOT
ATOM      1  C   UNL     1       2.254   5.790  19.682  0.00  0.00    +0.000 C 
ATOM      2  O   UNL     1       1.608   5.468  20.679  0.00  0.00    +0.000 OA
ATOM      3  N   UNL     1       2.510   4.865  18.671  0.00  0.00    +0.000 N 
ATOM      4  C   UNL     1       1.905   3.537  18.744  0.00  0.00    +0.000 C 
ATOM      5  C   UNL     1       2.989   2.469  18.860  0.00  0.00    +0.000 C 
ATOM      6  C   UNL     1       3.995   2.575  17.710  0.00  0.00    +0.000 C 
ATOM      7  C   UNL     1       4.565   3.999  17.587  0.00  0.00    +0.000 C 
ATOM      8  C   UNL     1       3.425   5.049  17.545  0.00  0.00    +0.000 C 
ENDROOT
BRANCH   7   9
ATOM      9  N   UNL     1       5.494   4.130  16.460  0.00  0.00    +0.000 N 
ATOM     10  C   UNL     1       5.028   4.398  15.121  0.00  0.00    +0.000 C 
ATOM     11  C   UNL     1       6.285   4.247  14.288  0.00  0.00    +0.000 C 
ATOM     12  C   UNL     1       7.385   4.748  15.212  0.00  0.00    +0.000 C 
ATOM     13  C   UNL     1       6.845   4.438  16.586  0.00  0.00    +0.000 C 
ATOM     14  O   UNL     1       7.490   4.494  17.619  0.00  0.00    +0.000 OA
ENDBRANCH   7   9
BRANCH   1  15
ATOM     15  C   UNL     1       2.805   7.204  19.473  0.00  0.00    +0.000 C 
BRANCH  15  16
ATOM     16  S   UNL     1       1.849   8.124  18.218  0.00  0.00    +0.000 S 
BRANCH  16  21
ATOM     17  C   UNL     1       0.160  10.433  21.189  0.00  0.00    +0.000 A 
ATOM     18  C   UNL     1      -0.675  11.254  20.430  0.00  0.00    +0.000 A 
ATOM     19  C   UNL     1      -0.730  11.118  19.047  0.00  0.00    +0.000 A 
ATOM     20  C   UNL     1       0.056  10.151  18.418  0.00  0.00    +0.000 A 
ATOM     21  C   UNL     1       0.902   9.316  19.160  0.00  0.00    +0.000 A 
ATOM     22  C   UNL     1       0.948   9.467  20.551  0.00  0.00    +0.000 A 
BRANCH  17  24
ATOM     23  C   UNL     1      -1.165  10.838  23.126  0.00  0.00    +0.000 C 
ATOM     24  O   UNL     1       0.117  10.672  22.538  0.00  0.00    +0.000 OA
ENDBRANCH  17  24
ENDBRANCH  16  21
ENDBRANCH  15  16
ENDBRANCH   1  15
TORSDOF 5
ENDMDL
MODEL 6
REMARK VINA RESULT:      -7.2      2.871      6.543
REMARK  Name = 
REMARK  6 active torsions:
REMARK  status: ('A' for Active; 'I' for Inactive)
REMARK    1  A    between atoms: C_1  and  O_2
REMARK    2  A    between atoms: O_2  and  C_3
REMARK    3  A    between atoms: C_7  and  S_8
REMARK    4  A    between atoms: S_8  and  C_9
REMARK    5  A    between atoms: C_9  and  C_10
REMARK    6  A    between atoms: C_16  and  N_17
REMARK                            x       y       z     vdW  Elec       q    Type
REMARK                         _______ _______ _______ _____ _____    ______ ____
ROOT
ATOM      1  C   UNL     1       1.717   5.100  19.858  0.00  0.00    +0.000 C 
ATOM      2  O   UNL     1       0.942   4.615  20.682  0.00  0.00    +0.000 OA
ATOM      3  N   UNL     1       2.125   4.364  18.746  0.00  0.00    +0.000 N 
ATOM      4  C   UNL     1       1.537   3.051  18.500  0.00  0.00    +0.000 C 
ATOM      5  C   UNL     1       2.609   1.968  18.578  0.00  0.00    +0.000 C 
ATOM      6  C   UNL     1       3.765   2.265  17.617  0.00  0.00    +0.000 C 
ATOM      7  C   UNL     1       4.324   3.683  17.826  0.00  0.00    +0.000 C 
ATOM      8  C   UNL     1       3.186   4.735  17.810  0.00  0.00    +0.000 C 
ENDROOT
BRANCH   7   9
ATOM      9  N   UNL     1       5.399   4.000  16.881  0.00  0.00    +0.000 N 
ATOM     10  C   UNL     1       5.126   4.310  15.498  0.00  0.00    +0.000 C 
ATOM     11  C   UNL     1       6.510   4.364  14.884  0.00  0.00    +0.000 C 
ATOM     12  C   UNL     1       7.375   4.921  16.005  0.00  0.00    +0.000 C 
ATOM     13  C   UNL     1       6.663   4.452  17.250  0.00  0.00    +0.000 C 
ATOM     14  O   UNL     1       7.120   4.506  18.379  0.00  0.00    +0.000 OA
ENDBRANCH   7   9
BRANCH   1  15
ATOM     15  C   UNL     1       2.270   6.524  19.979  0.00  0.00    +0.000 C 
BRANCH  15  16
ATOM     16  S   UNL     1       1.219   7.569  21.047  0.00  0.00    +0.000 S 
BRANCH  16  21
ATOM     17  C   UNL     1       0.743  11.540  20.043  0.00  0.00    +0.000 A 
ATOM     18  C   UNL     1       1.151  11.516  18.708  0.00  0.00    +0.000 A 
ATOM     19  C   UNL     1       1.564  10.325  18.119  0.00  0.00    +0.000 A 
ATOM     20  C   UNL     1       1.568   9.150  18.870  0.00  0.00    +0.000 A 
ATOM     21  C   UNL     1       1.162   9.150  20.211  0.00  0.00    +0.000 A 
ATOM     22  C   UNL     1       0.752  10.357  20.791  0.00  0.00    +0.000 A 
BRANCH  17  24
ATOM     23  C   UNL     1       0.813  13.903  19.761  0.00  0.00    +0.000 C 
ATOM     24  O   UNL     1       0.361  12.775  20.497  0.00  0.00    +0.000 OA
ENDBRANCH  17  24
ENDBRANCH  16  21
ENDBRANCH  15  16
ENDBRANCH   1  15
TORSDOF 5
ENDMDL
MODEL 7
REMARK VINA RESULT:      -7.1      4.146      6.828
REMARK  Name = 
REMARK  6 active torsions:
REMARK  status: ('A' for Active; 'I' for Inactive)
REMARK    1  A    between atoms: C_1  and  O_2
REMARK    2  A    between atoms: O_2  and  C_3
REMARK    3  A    between atoms: C_7  and  S_8
REMARK    4  A    between atoms: S_8  and  C_9
REMARK    5  A    between atoms: C_9  and  C_10
REMARK    6  A    between atoms: C_16  and  N_17
REMARK                            x       y       z     vdW  Elec       q    Type
REMARK                         _______ _______ _______ _____ _____    ______ ____
ROOT
ATOM      1  C   UNL     1       1.079   9.391  21.396  0.00  0.00    +0.000 C 
ATOM      2  O   UNL     1       1.548   9.631  22.508  0.00  0.00    +0.000 OA
ATOM      3  N   UNL     1       0.707  10.428  20.541  0.00  0.00    +0.000 N 
ATOM      4  C   UNL     1       0.985  11.809  20.926  0.00  0.00    +0.000 C 
ATOM      5  C   UNL     1      -0.320  12.583  21.091  0.00  0.00    +0.000 C 
ATOM      6  C   UNL     1      -1.174  12.506  19.821  0.00  0.00    +0.000 C 
ATOM      7  C   UNL     1      -1.391  11.049  19.375  0.00  0.00    +0.000 C 
ATOM      8  C   UNL     1      -0.043  10.288  19.293  0.00  0.00    +0.000 C 
ENDROOT
BRANCH   7   9
ATOM      9  N   UNL     1      -2.166  10.959  18.134  0.00  0.00    +0.000 N 
ATOM     10  C   UNL     1      -1.792  10.059  17.070  0.00  0.00    +0.000 C 
ATOM     11  C   UNL     1      -2.732  10.451  15.948  0.00  0.00    +0.000 C 
ATOM     12  C   UNL     1      -4.006  10.854  16.676  0.00  0.00    +0.000 C 
ATOM     13  C   UNL     1      -3.495  11.352  18.006  0.00  0.00    +0.000 C 
ATOM     14  O   UNL     1      -4.161  11.958  18.828  0.00  0.00    +0.000 OA
ENDBRANCH   7   9
BRANCH   1  15
ATOM     15  C   UNL     1       0.885   7.965  20.870  0.00  0.00    +0.000 C 
BRANCH  15  16
ATOM     16  S   UNL     1       2.216   7.483  19.714  0.00  0.00    +0.000 S 
BRANCH  16  21
ATOM     17  C   UNL     1       2.598   3.497  18.727  0.00  0.00    +0.000 A 
ATOM     18  C   UNL     1       1.884   2.907  19.772  0.00  0.00    +0.000 A 
ATOM     19  C   UNL     1       1.297   3.693  20.757  0.00  0.00    +0.000 A 
ATOM     20  C   UNL     1       1.424   5.081  20.698  0.00  0.00    +0.000 A 
ATOM     21  C   UNL     1       2.137   5.696  19.659  0.00  0.00    +0.000 A 
ATOM     22  C   UNL     1       2.724   4.891  18.676  0.00  0.00    +0.000 A 
BRANCH  17  24
ATOM     23  C   UNL     1       3.608   1.376  18.339  0.00  0.00    +0.000 C 
ATOM     24  O   UNL     1       3.123   2.609  17.826  0.00  0.00    +0.000 OA
ENDBRANCH  17  24
ENDBRANCH  16  21
ENDBRANCH  15  16
ENDBRANCH   1  15
TORSDOF 5
ENDMDL
MODEL 8
REMARK VINA RESULT:      -7.1      2.787      4.131
REMARK  Name = 
REMARK  6 active torsions:
REMARK  status: ('A' for Active; 'I' for Inactive)
REMARK    1  A    between atoms: C_1  and  O_2
REMARK    2  A    between atoms: O_2  and  C_3
REMARK    3  A    between atoms: C_7  and  S_8
REMARK    4  A    between atoms: S_8  and  C_9
REMARK    5  A    between atoms: C_9  and  C_10
REMARK    6  A    between atoms: C_16  and  N_17
REMARK                            x       y       z     vdW  Elec       q    Type
REMARK                         _______ _______ _______ _____ _____    ______ ____
ROOT
ATOM      1  C   UNL     1       4.369   4.113  17.688  0.00  0.00    +0.000 C 
ATOM      2  O   UNL     1       4.448   2.903  17.478  0.00  0.00    +0.000 OA
ATOM      3  N   UNL     1       3.834   4.595  18.882  0.00  0.00    +0.000 N 
ATOM      4  C   UNL     1       3.471   3.653  19.937  0.00  0.00    +0.000 C 
ATOM      5  C   UNL     1       1.970   3.708  20.202  0.00  0.00    +0.000 C 
ATOM      6  C   UNL     1       1.518   5.134  20.532  0.00  0.00    +0.000 C 
ATOM      7  C   UNL     1       1.977   6.135  19.456  0.00  0.00    +0.000 C 
ATOM      8  C   UNL     1       3.494   5.987  19.174  0.00  0.00    +0.000 C 
ENDROOT
BRANCH   7   9
ATOM      9  N   UNL     1       1.595   7.513  19.781  0.00  0.00    +0.000 N 
ATOM     10  C   UNL     1       1.539   7.982  21.145  0.00  0.00    +0.000 C 
ATOM     11  C   UNL     1       0.919   9.357  21.005  0.00  0.00    +0.000 C 
ATOM     12  C   UNL     1       1.457   9.855  19.671  0.00  0.00    +0.000 C 
ATOM     13  C   UNL     1       1.671   8.581  18.892  0.00  0.00    +0.000 C 
ATOM     14  O   UNL     1       1.907   8.523  17.698  0.00  0.00    +0.000 OA
ENDBRANCH   7   9
BRANCH   1  15
ATOM     15  C   UNL     1       4.855   5.162  16.682  0.00  0.00    +0.000 C 
BRANCH  15  16
ATOM     16  S   UNL     1       6.639   4.988  16.333  0.00  0.00    +0.000 S 
BRANCH  16  21
ATOM     17  C   UNL     1       6.076   3.470  12.539  0.00  0.00    +0.000 A 
ATOM     18  C   UNL     1       7.021   4.210  11.827  0.00  0.00    +0.000 A 
ATOM     19  C   UNL     1       7.815   5.150  12.474  0.00  0.00    +0.000 A 
ATOM     20  C   UNL     1       7.664   5.352  13.846  0.00  0.00    +0.000 A 
ATOM     21  C   UNL     1       6.721   4.621  14.583  0.00  0.00    +0.000 A 
ATOM     22  C   UNL     1       5.927   3.680  13.916  0.00  0.00    +0.000 A 
BRANCH  17  24
ATOM     23  C   UNL     1       4.167   3.054  11.179  0.00  0.00    +0.000 C 
ATOM     24  O   UNL     1       5.363   2.579  11.781  0.00  0.00    +0.000 OA
ENDBRANCH  17  24
ENDBRANCH  16  21
ENDBRANCH  15  16
ENDBRANCH   1  15
TORSDOF 5
ENDMDL
MODEL 9
REMARK VINA RESULT:      -7.1      2.762      6.988
REMARK  Name = 
REMARK  6 active torsions:
REMARK  status: ('A' for Active; 'I' for Inactive)
REMARK    1  A    between atoms: C_1  and  O_2
REMARK    2  A    between atoms: O_2  and  C_3
REMARK    3  A    between atoms: C_7  and  S_8
REMARK    4  A    between atoms: S_8  and  C_9
REMARK    5  A    between atoms: C_9  and  C_10
REMARK    6  A    between atoms: C_16  and  N_17
REMARK                            x       y       z     vdW  Elec       q    Type
REMARK                         _______ _______ _______ _____ _____    ______ ____
ROOT
ATOM      1  C   UNL     1       2.045   5.868  19.682  0.00  0.00    +0.000 C 
ATOM      2  O   UNL     1       1.266   5.546  20.579  0.00  0.00    +0.000 OA
ATOM      3  N   UNL     1       2.329   4.989  18.638  0.00  0.00    +0.000 N 
ATOM      4  C   UNL     1       1.608   3.723  18.549  0.00  0.00    +0.000 C 
ATOM      5  C   UNL     1       2.574   2.552  18.700  0.00  0.00    +0.000 C 
ATOM      6  C   UNL     1       3.707   2.635  17.672  0.00  0.00    +0.000 C 
ATOM      7  C   UNL     1       4.409   4.005  17.714  0.00  0.00    +0.000 C 
ATOM      8  C   UNL     1       3.377   5.158  17.631  0.00  0.00    +0.000 C 
ENDROOT
BRANCH   7   9
ATOM      9  N   UNL     1       5.465   4.118  16.703  0.00  0.00    +0.000 N 
ATOM     10  C   UNL     1       5.162   4.382  15.317  0.00  0.00    +0.000 C 
ATOM     11  C   UNL     1       6.506   4.212  14.638  0.00  0.00    +0.000 C 
ATOM     12  C   UNL     1       7.496   4.710  15.681  0.00  0.00    +0.000 C 
ATOM     13  C   UNL     1       6.795   4.415  16.985  0.00  0.00    +0.000 C 
ATOM     14  O   UNL     1       7.315   4.471  18.086  0.00  0.00    +0.000 OA
ENDBRANCH   7   9
BRANCH   1  15
ATOM     15  C   UNL     1       2.737   7.235  19.636  0.00  0.00    +0.000 C 
BRANCH  15  16
ATOM     16  S   UNL     1       1.996   8.326  18.372  0.00  0.00    +0.000 S 
BRANCH  16  21
ATOM     17  C   UNL     1      -1.020  10.887  19.533  0.00  0.00    +0.000 A 
ATOM     18  C   UNL     1      -0.805  10.926  20.911  0.00  0.00    +0.000 A 
ATOM     19  C   UNL     1       0.230  10.194  21.484  0.00  0.00    +0.000 A 
ATOM     20  C   UNL     1       1.056   9.417  20.672  0.00  0.00    +0.000 A 
ATOM     21  C   UNL     1       0.859   9.363  19.285  0.00  0.00    +0.000 A 
ATOM     22  C   UNL     1      -0.188  10.103  18.724  0.00  0.00    +0.000 A 
BRANCH  17  24
ATOM     23  C   UNL     1      -2.305  11.700  17.700  0.00  0.00    +0.000 C 
ATOM     24  O   UNL     1      -2.070  11.654  19.101  0.00  0.00    +0.000 OA
ENDBRANCH  17  24
ENDBRANCH  16  21
ENDBRANCH  15  16
ENDBRANCH   1  15
TORSDOF 5
ENDMDL
