MODEL 1
REMARK VINA RESULT:      -8.0      0.000      0.000
REMARK  Name = 
REMARK  8 active torsions:
REMARK  status: ('A' for Active; 'I' for Inactive)
REMARK    1  A    between atoms: C_1  and  N_2
REMARK    2  A    between atoms: N_2  and  C_33
REMARK    3  A    between atoms: C_3  and  C_5
REMARK    4  A    between atoms: C_5  and  N_6
REMARK    5  A    between atoms: C_8  and  C_9
REMARK    6  A    between atoms: C_11  and  C_12
REMARK    7  A    between atoms: C_12  and  C_13
REMARK    8  A    between atoms: C_16  and  C_17
REMARK                            x       y       z     vdW  Elec       q    Type
REMARK                         _______ _______ _______ _____ _____    ______ ____
ROOT
ATOM      1  C   UNL     1       0.197  11.526  19.476  0.00  0.00    +0.000 C 
ATOM      2  C   UNL     1      -1.173  11.570  20.240  0.00  0.00    +0.000 C 
ATOM      3  C   UNL     1      -1.872  11.415  18.874  0.00  0.00    +0.000 C 
ATOM      4  C   UNL     1      -0.617  12.026  18.223  0.00  0.00    +0.000 C 
ENDROOT
BRANCH   1   5
ATOM      5  C   UNL     1       0.920  10.085  19.339  0.00  0.00    +0.000 A 
ATOM      6  C   UNL     1       1.492   9.661  18.130  0.00  0.00    +0.000 A 
ATOM      7  C   UNL     1       2.138   8.432  18.014  0.00  0.00    +0.000 A 
ATOM      8  C   UNL     1       2.239   7.605  19.126  0.00  0.00    +0.000 A 
ATOM      9  N   UNL     1       1.672   7.949  20.304  0.00  0.00    +0.000 NA
ATOM     10  C   UNL     1       1.048   9.160  20.381  0.00  0.00    +0.000 A 
BRANCH   8  11
ATOM     11  C   UNL     1       2.982   6.342  19.088  0.00  0.00    +0.000 A 
ATOM     12  C   UNL     1       2.687   5.266  19.907  0.00  0.00    +0.000 A 
ATOM     13  N   UNL     1       3.378   4.104  19.943  0.00  0.00    +0.000 NA
ATOM     14  C   UNL     1       4.418   4.009  19.117  0.00  0.00    +0.000 A 
ATOM     15  N   UNL     1       5.149   2.843  19.154  0.00  0.00    +0.000 N 
ATOM     16  N   UNL     1       4.779   4.952  18.241  0.00  0.00    +0.000 NA
ATOM     17  C   UNL     1       4.049   6.098  18.248  0.00  0.00    +0.000 A 
ATOM     18  H   UNL     1       4.573   2.096  19.513  0.00  0.00    +0.000 HD
ATOM     19  H   UNL     1       5.604   2.696  18.265  0.00  0.00    +0.000 HD
ENDBRANCH   8  11
ENDBRANCH   1   5
BRANCH   1  22
ATOM     20  C   UNL     1       2.696  14.054  20.106  0.00  0.00    +0.000 A 
ATOM     21  N   UNL     1       2.010  13.346  19.227  0.00  0.00    +0.000 NA
ATOM     22  C   UNL     1       1.206  12.562  20.027  0.00  0.00    +0.000 A 
ATOM     23  N   UNL     1       1.384  12.752  21.341  0.00  0.00    +0.000 NA
ATOM     24  O   UNL     1       2.344  13.754  21.397  0.00  0.00    +0.000 OA
BRANCH  20  27
ATOM     25  N   UNL     1       5.640  16.148  19.630  0.00  0.00    +0.000 N 
ATOM     26  C   UNL     1       5.104  14.946  20.017  0.00  0.00    +0.000 A 
ATOM     27  C   UNL     1       3.752  15.048  19.791  0.00  0.00    +0.000 A 
ATOM     28  C   UNL     1       3.576  16.318  19.214  0.00  0.00    +0.000 A 
ATOM     29  N   UNL     1       4.727  16.984  19.087  0.00  0.00    +0.000 NA
BRANCH  25  30
ATOM     30  C   UNL     1       7.037  16.542  19.670  0.00  0.00    +0.000 C 
BRANCH  30  33
ATOM     31  C   UNL     1       9.549  13.799  18.695  0.00  0.00    +0.000 C 
ATOM     32  N   UNL     1       8.780  14.756  19.479  0.00  0.00    +0.000 N 
ATOM     33  C   UNL     1       7.895  15.618  18.827  0.00  0.00    +0.000 C 
ATOM     34  O   UNL     1       7.801  15.657  17.595  0.00  0.00    +0.000 OA
BRANCH  32  35
ATOM     35  C   UNL     1       8.913  14.688  20.914  0.00  0.00    +0.000 C 
ATOM     36  C   UNL     1       8.203  13.665  21.769  0.00  0.00    +0.000 C 
ATOM     37  C   UNL     1       9.677  13.547  21.540  0.00  0.00    +0.000 C 
ENDBRANCH  32  35
ENDBRANCH  30  33
ENDBRANCH  25  30
ENDBRANCH  20  27
ENDBRANCH   1  22
TORSDOF 7
ENDMDL
MODEL 2
REMARK VINA RESULT:      -7.9      4.964     10.463
REMARK  Name = 
REMARK  8 active torsions:
REMARK  status: ('A' for Active; 'I' for Inactive)
REMARK    1  A    between atoms: C_1  and  N_2
REMARK    2  A    between atoms: N_2  and  C_33
REMARK    3  A    between atoms: C_3  and  C_5
REMARK    4  A    between atoms: C_5  and  N_6
REMARK    5  A    between atoms: C_8  and  C_9
REMARK    6  A    between atoms: C_11  and  C_12
REMARK    7  A    between atoms: C_12  and  C_13
REMARK    8  A    between atoms: C_16  and  C_17
REMARK                            x       y       z     vdW  Elec       q    Type
REMARK                         _______ _______ _______ _____ _____    ______ ____
ROOT
ATOM      1  C   UNL     1       2.680   4.920  19.593  0.00  0.00    +0.000 C 
ATOM      2  C   UNL     1       1.602   3.831  19.257  0.00  0.00    +0.000 C 
ATOM      3  C   UNL     1       1.247   3.804  20.758  0.00  0.00    +0.000 C 
ATOM      4  C   UNL     1       2.670   4.315  21.048  0.00  0.00    +0.000 C 
ENDROOT
BRANCH   1   5
ATOM      5  C   UNL     1       2.233   6.468  19.452  0.00  0.00    +0.000 A 
ATOM      6  C   UNL     1       2.364   7.164  18.240  0.00  0.00    +0.000 A 
ATOM      7  C   UNL     1       1.958   8.490  18.106  0.00  0.00    +0.000 A 
ATOM      8  C   UNL     1       1.388   9.143  19.193  0.00  0.00    +0.000 A 
ATOM      9  N   UNL     1       1.274   8.531  20.392  0.00  0.00    +0.000 NA
ATOM     10  C   UNL     1       1.682   7.232  20.486  0.00  0.00    +0.000 A 
BRANCH   8  11
ATOM     11  C   UNL     1       0.861  10.507  19.087  0.00  0.00    +0.000 A 
ATOM     12  C   UNL     1      -0.453  10.786  18.752  0.00  0.00    +0.000 A 
ATOM     13  N   UNL     1      -0.967  12.026  18.592  0.00  0.00    +0.000 NA
ATOM     14  C   UNL     1      -0.128  13.044  18.777  0.00  0.00    +0.000 A 
ATOM     15  N   UNL     1      -0.625  14.314  18.597  0.00  0.00    +0.000 N 
ATOM     16  N   UNL     1       1.149  12.913  19.152  0.00  0.00    +0.000 NA
ATOM     17  C   UNL     1       1.613  11.645  19.300  0.00  0.00    +0.000 A 
ATOM     18  H   UNL     1      -1.626  14.306  18.728  0.00  0.00    +0.000 HD
ATOM     19  H   UNL     1      -0.088  14.972  19.142  0.00  0.00    +0.000 HD
ENDBRANCH   8  11
ENDBRANCH   1   5
BRANCH   1  22
ATOM     20  C   UNL     1       5.436   4.672  17.275  0.00  0.00    +0.000 A 
ATOM     21  N   UNL     1       4.197   5.063  17.510  0.00  0.00    +0.000 NA
ATOM     22  C   UNL     1       4.003   4.690  18.823  0.00  0.00    +0.000 A 
ATOM     23  N   UNL     1       5.057   4.083  19.385  0.00  0.00    +0.000 NA
ATOM     24  O   UNL     1       6.013   4.095  18.378  0.00  0.00    +0.000 OA
BRANCH  20  27
ATOM     25  N   UNL     1       6.725   4.774  13.869  0.00  0.00    +0.000 N 
ATOM     26  C   UNL     1       5.653   4.649  14.715  0.00  0.00    +0.000 A 
ATOM     27  C   UNL     1       6.159   4.793  15.985  0.00  0.00    +0.000 A 
ATOM     28  C   UNL     1       7.528   5.059  15.802  0.00  0.00    +0.000 A 
ATOM     29  N   UNL     1       7.875   5.076  14.512  0.00  0.00    +0.000 NA
BRANCH  25  30
ATOM     30  C   UNL     1       6.714   4.700  12.418  0.00  0.00    +0.000 C 
BRANCH  30  33
ATOM     31  C   UNL     1       5.569   1.285  11.072  0.00  0.00    +0.000 C 
ATOM     32  N   UNL     1       5.548   2.636  11.617  0.00  0.00    +0.000 N 
ATOM     33  C   UNL     1       6.755   3.261  11.940  0.00  0.00    +0.000 C 
ATOM     34  O   UNL     1       7.841   2.678  11.859  0.00  0.00    +0.000 OA
BRANCH  32  35
ATOM     35  C   UNL     1       4.264   3.290  11.701  0.00  0.00    +0.000 C 
ATOM     36  C   UNL     1       3.622   4.016  10.545  0.00  0.00    +0.000 C 
ATOM     37  C   UNL     1       3.075   2.696  10.988  0.00  0.00    +0.000 C 
ENDBRANCH  32  35
ENDBRANCH  30  33
ENDBRANCH  25  30
ENDBRANCH  20  27
ENDBRANCH   1  22
TORSDOF 7
ENDMDL
MODEL 3
REMARK VINA RESULT:      -7.9      2.722      9.069
REMARK  Name = 
REMARK  8 active torsions:
REMARK  status: ('A' for Active; 'I' for Inactive)
REMARK    1  A    between atoms: C_1  and  N_2
REMARK    2  A    between atoms: N_2  and  C_33
REMARK    3  A    between atoms: C_3  and  C_5
REMARK    4  A    between atoms: C_5  and  N_6
REMARK    5  A    between atoms: C_8  and  C_9
REMARK    6  A    between atoms: C_11  and  C_12
REMARK    7  A    between atoms: C_12  and  C_13
REMARK    8  A    between atoms: C_16  and  C_17
REMARK                            x       y       z     vdW  Elec       q    Type
REMARK                         _______ _______ _______ _____ _____    ______ ____
ROOT
ATOM      1  C   UNL     1       0.258  11.814  20.070  0.00  0.00    +0.000 C 
ATOM      2  C   UNL     1      -0.786  11.648  18.911  0.00  0.00    +0.000 C 
ATOM      3  C   UNL     1      -1.643  12.724  19.610  0.00  0.00    +0.000 C 
ATOM      4  C   UNL     1      -0.952  12.340  20.931  0.00  0.00    +0.000 C 
ENDROOT
BRANCH   1   5
ATOM      5  C   UNL     1       1.474  12.853  19.823  0.00  0.00    +0.000 A 
ATOM      6  C   UNL     1       2.114  13.504  20.890  0.00  0.00    +0.000 A 
ATOM      7  C   UNL     1       3.178  14.380  20.685  0.00  0.00    +0.000 A 
ATOM      8  C   UNL     1       3.637  14.607  19.393  0.00  0.00    +0.000 A 
ATOM      9  N   UNL     1       3.032  14.035  18.328  0.00  0.00    +0.000 NA
ATOM     10  C   UNL     1       1.993  13.183  18.567  0.00  0.00    +0.000 A 
BRANCH   8  11
ATOM     11  C   UNL     1       4.807  15.448  19.123  0.00  0.00    +0.000 A 
ATOM     12  C   UNL     1       6.002  14.946  18.638  0.00  0.00    +0.000 A 
ATOM     13  N   UNL     1       7.122  15.674  18.426  0.00  0.00    +0.000 NA
ATOM     14  C   UNL     1       7.045  16.973  18.710  0.00  0.00    +0.000 A 
ATOM     15  N   UNL     1       8.180  17.729  18.523  0.00  0.00    +0.000 N 
ATOM     16  N   UNL     1       5.938  17.591  19.135  0.00  0.00    +0.000 NA
ATOM     17  C   UNL     1       4.843  16.811  19.330  0.00  0.00    +0.000 A 
ATOM     18  H   UNL     1       8.777  17.278  17.845  0.00  0.00    +0.000 HD
ATOM     19  H   UNL     1       7.926  18.691  18.354  0.00  0.00    +0.000 HD
ENDBRANCH   8  11
ENDBRANCH   1   5
BRANCH   1  22
ATOM     20  C   UNL     1       1.587   8.487  20.511  0.00  0.00    +0.000 A 
ATOM     21  N   UNL     1       1.167   9.429  19.686  0.00  0.00    +0.000 NA
ATOM     22  C   UNL     1       0.827  10.455  20.543  0.00  0.00    +0.000 A 
ATOM     23  N   UNL     1       1.008  10.172  21.840  0.00  0.00    +0.000 NA
ATOM     24  O   UNL     1       1.536   8.887  21.822  0.00  0.00    +0.000 OA
BRANCH  20  27
ATOM     25  N   UNL     1       2.920   5.410  19.085  0.00  0.00    +0.000 N 
ATOM     26  C   UNL     1       2.855   6.780  19.068  0.00  0.00    +0.000 A 
ATOM     27  C   UNL     1       2.046   7.130  20.123  0.00  0.00    +0.000 A 
ATOM     28  C   UNL     1       1.721   5.914  20.750  0.00  0.00    +0.000 A 
ATOM     29  N   UNL     1       2.273   4.862  20.138  0.00  0.00    +0.000 NA
BRANCH  25  30
ATOM     30  C   UNL     1       3.654   4.553  18.171  0.00  0.00    +0.000 C 
BRANCH  30  33
ATOM     31  C   UNL     1       7.453   4.555  17.576  0.00  0.00    +0.000 C 
ATOM     32  N   UNL     1       6.019   4.413  17.363  0.00  0.00    +0.000 N 
ATOM     33  C   UNL     1       5.146   4.614  18.436  0.00  0.00    +0.000 C 
ATOM     34  O   UNL     1       5.552   4.826  19.584  0.00  0.00    +0.000 OA
BRANCH  32  35
ATOM     35  C   UNL     1       5.576   4.163  16.013  0.00  0.00    +0.000 C 
ATOM     36  C   UNL     1       5.529   5.225  14.941  0.00  0.00    +0.000 C 
ATOM     37  C   UNL     1       6.580   4.162  14.886  0.00  0.00    +0.000 C 
ENDBRANCH  32  35
ENDBRANCH  30  33
ENDBRANCH  25  30
ENDBRANCH  20  27
ENDBRANCH   1  22
TORSDOF 7
ENDMDL
MODEL 4
REMARK VINA RESULT:      -7.8      5.764      8.403
REMARK  Name = 
REMARK  8 active torsions:
REMARK  status: ('A' for Active; 'I' for Inactive)
REMARK    1  A    between atoms: C_1  and  N_2
REMARK    2  A    between atoms: N_2  and  C_33
REMARK    3  A    between atoms: C_3  and  C_5
REMARK    4  A    between atoms: C_5  and  N_6
REMARK    5  A    between atoms: C_8  and  C_9
REMARK    6  A    between atoms: C_11  and  C_12
REMARK    7  A    between atoms: C_12  and  C_13
REMARK    8  A    between atoms: C_16  and  C_17
REMARK                            x       y       z     vdW  Elec       q    Type
REMARK                         _______ _______ _______ _____ _____    ______ ____
ROOT
ATOM      1  C   UNL     1       2.152   5.176  20.075  0.00  0.00    +0.000 C 
ATOM      2  C   UNL     1       2.658   4.565  21.428  0.00  0.00    +0.000 C 
ATOM      3  C   UNL     1       1.817   3.312  21.108  0.00  0.00    +0.000 C 
ATOM      4  C   UNL     1       0.922   4.204  20.229  0.00  0.00    +0.000 C 
ENDROOT
BRANCH   1   5
ATOM      5  C   UNL     1       3.086   4.958  18.772  0.00  0.00    +0.000 A 
ATOM      6  C   UNL     1       2.738   4.048  17.762  0.00  0.00    +0.000 A 
ATOM      7  C   UNL     1       3.526   3.875  16.625  0.00  0.00    +0.000 A 
ATOM      8  C   UNL     1       4.679   4.634  16.471  0.00  0.00    +0.000 A 
ATOM      9  N   UNL     1       5.079   5.498  17.432  0.00  0.00    +0.000 NA
ATOM     10  C   UNL     1       4.283   5.641  18.530  0.00  0.00    +0.000 A 
BRANCH   8  11
ATOM     11  C   UNL     1       5.500   4.560  15.258  0.00  0.00    +0.000 A 
ATOM     12  C   UNL     1       5.106   3.877  14.121  0.00  0.00    +0.000 A 
ATOM     13  N   UNL     1       5.852   3.737  13.002  0.00  0.00    +0.000 NA
ATOM     14  C   UNL     1       7.053   4.313  13.015  0.00  0.00    +0.000 A 
ATOM     15  N   UNL     1       7.838   4.164  11.894  0.00  0.00    +0.000 N 
ATOM     16  N   UNL     1       7.531   5.043  14.028  0.00  0.00    +0.000 NA
ATOM     17  C   UNL     1       6.740   5.150  15.127  0.00  0.00    +0.000 A 
ATOM     18  H   UNL     1       7.251   3.976  11.095  0.00  0.00    +0.000 HD
ATOM     19  H   UNL     1       8.486   4.934  11.826  0.00  0.00    +0.000 HD
ENDBRANCH   8  11
ENDBRANCH   1   5
BRANCH   1  22
ATOM     20  C   UNL     1       1.001   8.481  20.962  0.00  0.00    +0.000 A 
ATOM     21  N   UNL     1       1.073   7.197  21.264  0.00  0.00    +0.000 NA
ATOM     22  C   UNL     1       1.792   6.676  20.210  0.00  0.00    +0.000 A 
ATOM     23  N   UNL     1       2.143   7.577  19.283  0.00  0.00    +0.000 NA
ATOM     24  O   UNL     1       1.648   8.772  19.789  0.00  0.00    +0.000 OA
BRANCH  20  27
ATOM     25  N   UNL     1      -0.617  11.388  22.448  0.00  0.00    +0.000 N 
ATOM     26  C   UNL     1      -0.063  10.788  21.346  0.00  0.00    +0.000 A 
ATOM     27  C   UNL     1       0.293   9.522  21.747  0.00  0.00    +0.000 A 
ATOM     28  C   UNL     1      -0.137   9.431  23.083  0.00  0.00    +0.000 A 
ATOM     29  N   UNL     1      -0.718  10.556  23.509  0.00  0.00    +0.000 NA
BRANCH  25  30
ATOM     30  C   UNL     1      -1.153  12.735  22.541  0.00  0.00    +0.000 C 
BRANCH  30  33
ATOM     31  C   UNL     1      -4.915  12.865  21.756  0.00  0.00    +0.000 C 
ATOM     32  N   UNL     1      -3.653  12.658  22.454  0.00  0.00    +0.000 N 
ATOM     33  C   UNL     1      -2.452  12.865  21.770  0.00  0.00    +0.000 C 
ATOM     34  O   UNL     1      -2.420  13.137  20.565  0.00  0.00    +0.000 OA
BRANCH  32  35
ATOM     35  C   UNL     1      -3.724  12.339  23.859  0.00  0.00    +0.000 C 
ATOM     36  C   UNL     1      -3.890  13.378  24.942  0.00  0.00    +0.000 C 
ATOM     37  C   UNL     1      -5.035  12.482  24.592  0.00  0.00    +0.000 C 
ENDBRANCH  32  35
ENDBRANCH  30  33
ENDBRANCH  25  30
ENDBRANCH  20  27
ENDBRANCH   1  22
TORSDOF 7
ENDMDL
MODEL 5
REMARK VINA RESULT:      -7.7      0.882      1.353
REMARK  Name = 
REMARK  8 active torsions:
REMARK  status: ('A' for Active; 'I' for Inactive)
REMARK    1  A    between atoms: C_1  and  N_2
REMARK    2  A    between atoms: N_2  and  C_33
REMARK    3  A    between atoms: C_3  and  C_5
REMARK    4  A    between atoms: C_5  and  N_6
REMARK    5  A    between atoms: C_8  and  C_9
REMARK    6  A    between atoms: C_11  and  C_12
REMARK    7  A    between atoms: C_12  and  C_13
REMARK    8  A    between atoms: C_16  and  C_17
REMARK                            x       y       z     vdW  Elec       q    Type
REMARK                         _______ _______ _______ _____ _____    ______ ____
ROOT
ATOM      1  C   UNL     1       0.206  11.603  19.452  0.00  0.00    +0.000 C 
ATOM      2  C   UNL     1      -1.099  11.690  20.318  0.00  0.00    +0.000 C 
ATOM      3  C   UNL     1      -1.904  11.475  19.020  0.00  0.00    +0.000 C 
ATOM      4  C   UNL     1      -0.702  12.047  18.244  0.00  0.00    +0.000 C 
ENDROOT
BRANCH   1   5
ATOM      5  C   UNL     1       0.913  10.152  19.328  0.00  0.00    +0.000 A 
ATOM      6  C   UNL     1       1.469   9.705  18.119  0.00  0.00    +0.000 A 
ATOM      7  C   UNL     1       2.101   8.468  18.014  0.00  0.00    +0.000 A 
ATOM      8  C   UNL     1       2.205   7.656  19.136  0.00  0.00    +0.000 A 
ATOM      9  N   UNL     1       1.654   8.022  20.315  0.00  0.00    +0.000 NA
ATOM     10  C   UNL     1       1.043   9.241  20.382  0.00  0.00    +0.000 A 
BRANCH   8  11
ATOM     11  C   UNL     1       2.935   6.385  19.108  0.00  0.00    +0.000 A 
ATOM     12  C   UNL     1       2.623   5.316  19.930  0.00  0.00    +0.000 A 
ATOM     13  N   UNL     1       3.301   4.147  19.976  0.00  0.00    +0.000 NA
ATOM     14  C   UNL     1       4.345   4.037  19.156  0.00  0.00    +0.000 A 
ATOM     15  N   UNL     1       5.064   2.863  19.202  0.00  0.00    +0.000 N 
ATOM     16  N   UNL     1       4.721   4.972  18.278  0.00  0.00    +0.000 NA
ATOM     17  C   UNL     1       4.004   6.126  18.275  0.00  0.00    +0.000 A 
ATOM     18  H   UNL     1       4.478   2.124  19.561  0.00  0.00    +0.000 HD
ATOM     19  H   UNL     1       5.522   2.708  18.317  0.00  0.00    +0.000 HD
ENDBRANCH   8  11
ENDBRANCH   1   5
BRANCH   1  22
ATOM     20  C   UNL     1       2.836  14.054  19.775  0.00  0.00    +0.000 A 
ATOM     21  N   UNL     1       2.140  13.249  18.993  0.00  0.00    +0.000 NA
ATOM     22  C   UNL     1       1.258  12.657  19.872  0.00  0.00    +0.000 A 
ATOM     23  N   UNL     1       1.398  13.055  21.144  0.00  0.00    +0.000 NA
ATOM     24  O   UNL     1       2.418  13.996  21.080  0.00  0.00    +0.000 OA
BRANCH  20  27
ATOM     25  N   UNL     1       5.905  15.690  18.685  0.00  0.00    +0.000 N 
ATOM     26  C   UNL     1       5.184  14.534  18.845  0.00  0.00    +0.000 A 
ATOM     27  C   UNL     1       3.964  14.920  19.351  0.00  0.00    +0.000 A 
ATOM     28  C   UNL     1       4.022  16.324  19.405  0.00  0.00    +0.000 A 
ATOM     29  N   UNL     1       5.193  16.802  18.975  0.00  0.00    +0.000 NA
BRANCH  25  30
ATOM     30  C   UNL     1       7.259  15.818  18.178  0.00  0.00    +0.000 C 
BRANCH  30  33
ATOM     31  C   UNL     1      10.136  14.213  20.161  0.00  0.00    +0.000 C 
ATOM     32  N   UNL     1       9.087  14.429  19.173  0.00  0.00    +0.000 N 
ATOM     33  C   UNL     1       8.282  15.567  19.269  0.00  0.00    +0.000 C 
ATOM     34  O   UNL     1       8.372  16.359  20.213  0.00  0.00    +0.000 OA
BRANCH  32  35
ATOM     35  C   UNL     1       9.007  13.486  18.084  0.00  0.00    +0.000 C 
ATOM     36  C   UNL     1      10.217  12.920  17.380  0.00  0.00    +0.000 C 
ATOM     37  C   UNL     1       9.424  12.053  18.304  0.00  0.00    +0.000 C 
ENDBRANCH  32  35
ENDBRANCH  30  33
ENDBRANCH  25  30
ENDBRANCH  20  27
ENDBRANCH   1  22
TORSDOF 7
ENDMDL
MODEL 6
REMARK VINA RESULT:      -7.7      2.840      8.926
REMARK  Name = 
REMARK  8 active torsions:
REMARK  status: ('A' for Active; 'I' for Inactive)
REMARK    1  A    between atoms: C_1  and  N_2
REMARK    2  A    between atoms: N_2  and  C_33
REMARK    3  A    between atoms: C_3  and  C_5
REMARK    4  A    between atoms: C_5  and  N_6
REMARK    5  A    between atoms: C_8  and  C_9
REMARK    6  A    between atoms: C_11  and  C_12
REMARK    7  A    between atoms: C_12  and  C_13
REMARK    8  A    between atoms: C_16  and  C_17
REMARK                            x       y       z     vdW  Elec       q    Type
REMARK                         _______ _______ _______ _____ _____    ______ ____
ROOT
ATOM      1  C   UNL     1       0.168  12.199  20.105  0.00  0.00    +0.000 C 
ATOM      2  C   UNL     1      -1.106  12.480  19.232  0.00  0.00    +0.000 C 
ATOM      3  C   UNL     1      -1.561  13.472  20.323  0.00  0.00    +0.000 C 
ATOM      4  C   UNL     1      -0.705  12.678  21.327  0.00  0.00    +0.000 C 
ENDROOT
BRANCH   1   5
ATOM      5  C   UNL     1       1.492  13.069  19.779  0.00  0.00    +0.000 A 
ATOM      6  C   UNL     1       1.811  13.461  18.469  0.00  0.00    +0.000 A 
ATOM      7  C   UNL     1       2.936  14.232  18.186  0.00  0.00    +0.000 A 
ATOM      8  C   UNL     1       3.762  14.644  19.225  0.00  0.00    +0.000 A 
ATOM      9  N   UNL     1       3.521  14.263  20.499  0.00  0.00    +0.000 NA
ATOM     10  C   UNL     1       2.409  13.509  20.740  0.00  0.00    +0.000 A 
BRANCH   8  11
ATOM     11  C   UNL     1       4.909  15.529  18.999  0.00  0.00    +0.000 A 
ATOM     12  C   UNL     1       6.066  15.117  18.362  0.00  0.00    +0.000 A 
ATOM     13  N   UNL     1       7.167  15.882  18.181  0.00  0.00    +0.000 NA
ATOM     14  C   UNL     1       7.110  17.124  18.657  0.00  0.00    +0.000 A 
ATOM     15  N   UNL     1       8.227  17.912  18.503  0.00  0.00    +0.000 N 
ATOM     16  N   UNL     1       6.036  17.661  19.246  0.00  0.00    +0.000 NA
ATOM     17  C   UNL     1       4.958  16.848  19.402  0.00  0.00    +0.000 A 
ATOM     18  H   UNL     1       8.774  17.572  17.725  0.00  0.00    +0.000 HD
ATOM     19  H   UNL     1       7.961  18.886  18.496  0.00  0.00    +0.000 HD
ENDBRANCH   8  11
ENDBRANCH   1   5
BRANCH   1  22
ATOM     20  C   UNL     1       1.432   8.846  19.670  0.00  0.00    +0.000 A 
ATOM     21  N   UNL     1       1.451  10.112  19.294  0.00  0.00    +0.000 NA
ATOM     22  C   UNL     1       0.532  10.695  20.140  0.00  0.00    +0.000 A 
ATOM     23  N   UNL     1      -0.049   9.843  20.995  0.00  0.00    +0.000 NA
ATOM     24  O   UNL     1       0.562   8.629  20.708  0.00  0.00    +0.000 OA
BRANCH  20  27
ATOM     25  N   UNL     1       3.353   5.906  18.699  0.00  0.00    +0.000 N 
ATOM     26  C   UNL     1       2.568   6.541  19.627  0.00  0.00    +0.000 A 
ATOM     27  C   UNL     1       2.215   7.744  19.060  0.00  0.00    +0.000 A 
ATOM     28  C   UNL     1       2.783   7.717  17.774  0.00  0.00    +0.000 A 
ATOM     29  N   UNL     1       3.455   6.588  17.537  0.00  0.00    +0.000 NA
BRANCH  25  30
ATOM     30  C   UNL     1       3.975   4.599  18.820  0.00  0.00    +0.000 C 
BRANCH  30  33
ATOM     31  C   UNL     1       7.600   4.620  17.538  0.00  0.00    +0.000 C 
ATOM     32  N   UNL     1       6.156   4.439  17.603  0.00  0.00    +0.000 N 
ATOM     33  C   UNL     1       5.488   4.706  18.801  0.00  0.00    +0.000 C 
ATOM     34  O   UNL     1       6.089   5.011  19.836  0.00  0.00    +0.000 OA
BRANCH  32  35
ATOM     35  C   UNL     1       5.482   4.080  16.378  0.00  0.00    +0.000 C 
ATOM     36  C   UNL     1       5.400   4.988  15.175  0.00  0.00    +0.000 C 
ATOM     37  C   UNL     1       6.292   3.787  15.139  0.00  0.00    +0.000 C 
ENDBRANCH  32  35
ENDBRANCH  30  33
ENDBRANCH  25  30
ENDBRANCH  20  27
ENDBRANCH   1  22
TORSDOF 7
ENDMDL
MODEL 7
REMARK VINA RESULT:      -7.7      5.573     10.764
REMARK  Name = 
REMARK  8 active torsions:
REMARK  status: ('A' for Active; 'I' for Inactive)
REMARK    1  A    between atoms: C_1  and  N_2
REMARK    2  A    between atoms: N_2  and  C_33
REMARK    3  A    between atoms: C_3  and  C_5
REMARK    4  A    between atoms: C_5  and  N_6
REMARK    5  A    between atoms: C_8  and  C_9
REMARK    6  A    between atoms: C_11  and  C_12
REMARK    7  A    between atoms: C_12  and  C_13
REMARK    8  A    between atoms: C_16  and  C_17
REMARK                            x       y       z     vdW  Elec       q    Type
REMARK                         _______ _______ _______ _____ _____    ______ ____
ROOT
ATOM      1  C   UNL     1       3.256   3.812  19.149  0.00  0.00    +0.000 C 
ATOM      2  C   UNL     1       2.332   2.750  18.457  0.00  0.00    +0.000 C 
ATOM      3  C   UNL     1       2.058   2.163  19.858  0.00  0.00    +0.000 C 
ATOM      4  C   UNL     1       3.404   2.758  20.311  0.00  0.00    +0.000 C 
ENDROOT
BRANCH   1   5
ATOM      5  C   UNL     1       2.584   5.230  19.543  0.00  0.00    +0.000 A 
ATOM      6  C   UNL     1       1.793   5.375  20.694  0.00  0.00    +0.000 A 
ATOM      7  C   UNL     1       1.232   6.599  21.051  0.00  0.00    +0.000 A 
ATOM      8  C   UNL     1       1.473   7.718  20.261  0.00  0.00    +0.000 A 
ATOM      9  N   UNL     1       2.196   7.624  19.123  0.00  0.00    +0.000 NA
ATOM     10  C   UNL     1       2.730   6.409  18.805  0.00  0.00    +0.000 A 
BRANCH   8  11
ATOM     11  C   UNL     1       0.984   9.049  20.634  0.00  0.00    +0.000 A 
ATOM     12  C   UNL     1       1.014  10.132  19.773  0.00  0.00    +0.000 A 
ATOM     13  N   UNL     1       0.625  11.388  20.091  0.00  0.00    +0.000 NA
ATOM     14  C   UNL     1       0.179  11.572  21.332  0.00  0.00    +0.000 A 
ATOM     15  N   UNL     1      -0.202  12.848  21.684  0.00  0.00    +0.000 N 
ATOM     16  N   UNL     1       0.052  10.602  22.243  0.00  0.00    +0.000 NA
ATOM     17  C   UNL     1       0.458   9.360  21.870  0.00  0.00    +0.000 A 
ATOM     18  H   UNL     1      -0.450  13.366  20.854  0.00  0.00    +0.000 HD
ATOM     19  H   UNL     1      -0.880  12.808  22.430  0.00  0.00    +0.000 HD
ENDBRANCH   8  11
ENDBRANCH   1   5
BRANCH   1  22
ATOM     20  C   UNL     1       5.882   4.431  16.751  0.00  0.00    +0.000 A 
ATOM     21  N   UNL     1       4.592   4.283  16.992  0.00  0.00    +0.000 NA
ATOM     22  C   UNL     1       4.559   4.060  18.352  0.00  0.00    +0.000 A 
ATOM     23  N   UNL     1       5.764   4.054  18.939  0.00  0.00    +0.000 NA
ATOM     24  O   UNL     1       6.636   4.326  17.892  0.00  0.00    +0.000 OA
BRANCH  20  27
ATOM     25  N   UNL     1       7.001   4.626  13.289  0.00  0.00    +0.000 N 
ATOM     26  C   UNL     1       6.047   4.237  14.194  0.00  0.00    +0.000 A 
ATOM     27  C   UNL     1       6.500   4.660  15.422  0.00  0.00    +0.000 A 
ATOM     28  C   UNL     1       7.700   5.341  15.150  0.00  0.00    +0.000 A 
ATOM     29  N   UNL     1       7.998   5.348  13.848  0.00  0.00    +0.000 NA
BRANCH  25  30
ATOM     30  C   UNL     1       6.989   4.415  11.852  0.00  0.00    +0.000 C 
BRANCH  30  33
ATOM     31  C   UNL     1       5.558   0.964  10.939  0.00  0.00    +0.000 C 
ATOM     32  N   UNL     1       5.653   2.359  11.352  0.00  0.00    +0.000 N 
ATOM     33  C   UNL     1       6.914   2.939  11.513  0.00  0.00    +0.000 C 
ATOM     34  O   UNL     1       7.957   2.287  11.400  0.00  0.00    +0.000 OA
BRANCH  32  35
ATOM     35  C   UNL     1       4.417   3.092  11.478  0.00  0.00    +0.000 C 
ATOM     36  C   UNL     1       3.765   3.829  10.333  0.00  0.00    +0.000 C 
ATOM     37  C   UNL     1       3.161   2.556  10.835  0.00  0.00    +0.000 C 
ENDBRANCH  32  35
ENDBRANCH  30  33
ENDBRANCH  25  30
ENDBRANCH  20  27
ENDBRANCH   1  22
TORSDOF 7
ENDMDL
MODEL 8
REMARK VINA RESULT:      -7.6      4.823      9.076
REMARK  Name = 
REMARK  8 active torsions:
REMARK  status: ('A' for Active; 'I' for Inactive)
REMARK    1  A    between atoms: C_1  and  N_2
REMARK    2  A    between atoms: N_2  and  C_33
REMARK    3  A    between atoms: C_3  and  C_5
REMARK    4  A    between atoms: C_5  and  N_6
REMARK    5  A    between atoms: C_8  and  C_9
REMARK    6  A    between atoms: C_11  and  C_12
REMARK    7  A    between atoms: C_12  and  C_13
REMARK    8  A    between atoms: C_16  and  C_17
REMARK                            x       y       z     vdW  Elec       q    Type
REMARK                         _______ _______ _______ _____ _____    ______ ____
ROOT
ATOM      1  C   UNL     1       0.379  11.666  19.209  0.00  0.00    +0.000 C 
ATOM      2  C   UNL     1       1.207  12.844  18.585  0.00  0.00    +0.000 C 
ATOM      3  C   UNL     1       1.761  13.123  19.998  0.00  0.00    +0.000 C 
ATOM      4  C   UNL     1       0.495  12.456  20.567  0.00  0.00    +0.000 C 
ENDROOT
BRANCH   1   5
ATOM      5  C   UNL     1       1.048  10.194  19.171  0.00  0.00    +0.000 A 
ATOM      6  C   UNL     1       1.783   9.748  18.061  0.00  0.00    +0.000 A 
ATOM      7  C   UNL     1       2.382   8.490  18.034  0.00  0.00    +0.000 A 
ATOM      8  C   UNL     1       2.269   7.655  19.139  0.00  0.00    +0.000 A 
ATOM      9  N   UNL     1       1.541   8.020  20.217  0.00  0.00    +0.000 NA
ATOM     10  C   UNL     1       0.969   9.259  20.209  0.00  0.00    +0.000 A 
BRANCH   8  11
ATOM     11  C   UNL     1       2.951   6.358  19.203  0.00  0.00    +0.000 A 
ATOM     12  C   UNL     1       3.995   6.012  18.364  0.00  0.00    +0.000 A 
ATOM     13  N   UNL     1       4.616   4.810  18.352  0.00  0.00    +0.000 NA
ATOM     14  C   UNL     1       4.174   3.907  19.225  0.00  0.00    +0.000 A 
ATOM     15  N   UNL     1       4.777   2.670  19.214  0.00  0.00    +0.000 N 
ATOM     16  N   UNL     1       3.210   4.131  20.123  0.00  0.00    +0.000 NA
ATOM     17  C   UNL     1       2.621   5.355  20.090  0.00  0.00    +0.000 A 
ATOM     18  H   UNL     1       5.705   2.751  18.823  0.00  0.00    +0.000 HD
ATOM     19  H   UNL     1       4.690   2.239  20.123  0.00  0.00    +0.000 HD
ENDBRANCH   8  11
ENDBRANCH   1   5
BRANCH   1  22
ATOM     20  C   UNL     1      -3.165  11.621  18.523  0.00  0.00    +0.000 A 
ATOM     21  N   UNL     1      -2.193  11.768  19.405  0.00  0.00    +0.000 NA
ATOM     22  C   UNL     1      -1.058  11.598  18.639  0.00  0.00    +0.000 A 
ATOM     23  N   UNL     1      -1.300  11.342  17.346  0.00  0.00    +0.000 NA
ATOM     24  O   UNL     1      -2.686  11.384  17.260  0.00  0.00    +0.000 OA
BRANCH  20  27
ATOM     25  N   UNL     1      -6.594  12.107  19.655  0.00  0.00    +0.000 N 
ATOM     26  C   UNL     1      -5.283  12.507  19.678  0.00  0.00    +0.000 A 
ATOM     27  C   UNL     1      -4.619  11.668  18.814  0.00  0.00    +0.000 A 
ATOM     28  C   UNL     1      -5.619  10.838  18.276  0.00  0.00    +0.000 A 
ATOM     29  N   UNL     1      -6.831  11.118  18.764  0.00  0.00    +0.000 NA
BRANCH  25  30
ATOM     30  C   UNL     1      -7.702  12.679  20.399  0.00  0.00    +0.000 C 
BRANCH  30  33
ATOM     31  C   UNL     1      -7.385  16.381  21.392  0.00  0.00    +0.000 C 
ATOM     32  N   UNL     1      -7.476  14.929  21.473  0.00  0.00    +0.000 N 
ATOM     33  C   UNL     1      -7.704  14.193  20.307  0.00  0.00    +0.000 C 
ATOM     34  O   UNL     1      -7.917  14.736  19.217  0.00  0.00    +0.000 OA
BRANCH  32  35
ATOM     35  C   UNL     1      -7.225  14.325  22.759  0.00  0.00    +0.000 C 
ATOM     36  C   UNL     1      -5.843  14.003  23.273  0.00  0.00    +0.000 C 
ATOM     37  C   UNL     1      -6.605  15.147  23.862  0.00  0.00    +0.000 C 
ENDBRANCH  32  35
ENDBRANCH  30  33
ENDBRANCH  25  30
ENDBRANCH  20  27
ENDBRANCH   1  22
TORSDOF 7
ENDMDL
MODEL 9
REMARK VINA RESULT:      -7.6      0.695      1.259
REMARK  Name = 
REMARK  8 active torsions:
REMARK  status: ('A' for Active; 'I' for Inactive)
REMARK    1  A    between atoms: C_1  and  N_2
REMARK    2  A    between atoms: N_2  and  C_33
REMARK    3  A    between atoms: C_3  and  C_5
REMARK    4  A    between atoms: C_5  and  N_6
REMARK    5  A    between atoms: C_8  and  C_9
REMARK    6  A    between atoms: C_11  and  C_12
REMARK    7  A    between atoms: C_12  and  C_13
REMARK    8  A    between atoms: C_16  and  C_17
REMARK                            x       y       z     vdW  Elec       q    Type
REMARK                         _______ _______ _______ _____ _____    ______ ____
ROOT
ATOM      1  C   UNL     1       0.155  11.096  19.590  0.00  0.00    +0.000 C 
ATOM      2  C   UNL     1      -1.296  11.119  20.186  0.00  0.00    +0.000 C 
ATOM      3  C   UNL     1      -1.820  10.819  18.766  0.00  0.00    +0.000 C 
ATOM      4  C   UNL     1      -0.528  11.449  18.215  0.00  0.00    +0.000 C 
ENDROOT
BRANCH   1   5
ATOM      5  C   UNL     1       0.957   9.692  19.658  0.00  0.00    +0.000 A 
ATOM      6  C   UNL     1       0.944   8.892  20.812  0.00  0.00    +0.000 A 
ATOM      7  C   UNL     1       1.613   7.671  20.867  0.00  0.00    +0.000 A 
ATOM      8  C   UNL     1       2.299   7.216  19.747  0.00  0.00    +0.000 A 
ATOM      9  N   UNL     1       2.374   7.965  18.624  0.00  0.00    +0.000 NA
ATOM     10  C   UNL     1       1.707   9.155  18.606  0.00  0.00    +0.000 A 
BRANCH   8  11
ATOM     11  C   UNL     1       2.946   5.901  19.716  0.00  0.00    +0.000 A 
ATOM     12  C   UNL     1       4.121   5.654  19.029  0.00  0.00    +0.000 A 
ATOM     13  N   UNL     1       4.723   4.447  18.929  0.00  0.00    +0.000 NA
ATOM     14  C   UNL     1       4.123   3.433  19.549  0.00  0.00    +0.000 A 
ATOM     15  N   UNL     1       4.707   2.191  19.441  0.00  0.00    +0.000 N 
ATOM     16  N   UNL     1       3.014   3.547  20.287  0.00  0.00    +0.000 NA
ATOM     17  C   UNL     1       2.452   4.782  20.353  0.00  0.00    +0.000 A 
ATOM     18  H   UNL     1       5.690   2.298  19.239  0.00  0.00    +0.000 HD
ATOM     19  H   UNL     1       4.452   1.623  20.236  0.00  0.00    +0.000 HD
ENDBRANCH   8  11
ENDBRANCH   1   5
BRANCH   1  22
ATOM     20  C   UNL     1       2.468  13.775  20.297  0.00  0.00    +0.000 A 
ATOM     21  N   UNL     1       1.949  12.942  19.413  0.00  0.00    +0.000 NA
ATOM     22  C   UNL     1       1.040  12.227  20.165  0.00  0.00    +0.000 A 
ATOM     23  N   UNL     1       0.997  12.578  21.457  0.00  0.00    +0.000 NA
ATOM     24  O   UNL     1       1.916  13.616  21.543  0.00  0.00    +0.000 OA
BRANCH  20  27
ATOM     25  N   UNL     1       5.416  15.901  20.033  0.00  0.00    +0.000 N 
ATOM     26  C   UNL     1       4.849  14.728  20.461  0.00  0.00    +0.000 A 
ATOM     27  C   UNL     1       3.542  14.765  20.036  0.00  0.00    +0.000 A 
ATOM     28  C   UNL     1       3.430  15.966  19.314  0.00  0.00    +0.000 A 
ATOM     29  N   UNL     1       4.577  16.652  19.285  0.00  0.00    +0.000 NA
BRANCH  25  30
ATOM     30  C   UNL     1       6.786  16.341  20.231  0.00  0.00    +0.000 C 
BRANCH  30  33
ATOM     31  C   UNL     1       9.533  13.973  18.953  0.00  0.00    +0.000 C 
ATOM     32  N   UNL     1       8.670  14.740  19.841  0.00  0.00    +0.000 N 
ATOM     33  C   UNL     1       7.735  15.623  19.292  0.00  0.00    +0.000 C 
ATOM     34  O   UNL     1       7.671  15.841  18.078  0.00  0.00    +0.000 OA
BRANCH  32  35
ATOM     35  C   UNL     1       8.770  14.465  21.254  0.00  0.00    +0.000 C 
ATOM     36  C   UNL     1       8.084  13.301  21.928  0.00  0.00    +0.000 C 
ATOM     37  C   UNL     1       9.566  13.274  21.728  0.00  0.00    +0.000 C 
ENDBRANCH  32  35
ENDBRANCH  30  33
ENDBRANCH  25  30
ENDBRANCH  20  27
ENDBRANCH   1  22
TORSDOF 7
ENDMDL
