MODEL 1
REMARK VINA RESULT:      -8.3      0.000      0.000
REMARK  Name = 
REMARK  8 active torsions:
REMARK  status: ('A' for Active; 'I' for Inactive)
REMARK    1  A    between atoms: C_1  and  C_2
REMARK    2  A    between atoms: C_6  and  N_7
REMARK    3  A    between atoms: C_8  and  C_9
REMARK    4  A    between atoms: N_11  and  C_12
REMARK    5  A    between atoms: C_12  and  C_13
REMARK    6  A    between atoms: C_13  and  C_14
REMARK    7  A    between atoms: C_13  and  C_15
REMARK    8  A    between atoms: C_19  and  N_20
REMARK                            x       y       z     vdW  Elec       q    Type
REMARK                         _______ _______ _______ _____ _____    ______ ____
ROOT
ATOM      1  C   UNL     1       0.720   9.872  19.466  0.00  0.00    +0.000 C 
ATOM      2  C   UNL     1      -0.551   9.919  18.608  0.00  0.00    +0.000 C 
ENDROOT
BRANCH   1   3
ATOM      3  C   UNL     1       1.658   8.723  19.132  0.00  0.00    +0.000 A 
ATOM      4  C   UNL     1       1.845   7.620  19.970  0.00  0.00    +0.000 A 
ATOM      5  C   UNL     1       2.750   6.614  19.619  0.00  0.00    +0.000 A 
ATOM      6  F   UNL     1       2.879   5.570  20.455  0.00  0.00    +0.000 F 
ATOM      7  C   UNL     1       3.530   6.672  18.446  0.00  0.00    +0.000 A 
ATOM      8  C   UNL     1       3.345   7.789  17.626  0.00  0.00    +0.000 A 
ATOM      9  C   UNL     1       2.417   8.778  17.959  0.00  0.00    +0.000 A 
ATOM     10  F   UNL     1       2.258   9.808  17.114  0.00  0.00    +0.000 F 
BRANCH   7  11
ATOM     11  N   UNL     1       4.414   5.632  18.133  0.00  0.00    +0.000 N 
ATOM     12  C   UNL     1       5.720   5.510  18.822  0.00  0.00    +0.000 C 
ATOM     13  C   UNL     1       6.917   5.726  17.848  0.00  0.00    +0.000 C 
ATOM     14  C   UNL     1       7.289   4.439  17.088  0.00  0.00    +0.000 C 
ATOM     15  C   UNL     1       6.663   4.621  15.707  0.00  0.00    +0.000 C 
ATOM     16  C   UNL     1       5.667   5.749  15.933  0.00  0.00    +0.000 C 
ATOM     17  C   UNL     1       4.399   5.232  16.701  0.00  0.00    +0.000 C 
ATOM     18  N   UNL     1       6.530   6.642  16.748  0.00  0.00    +0.000 NA
ATOM     19  H   UNL     1       5.935   7.375  17.127  0.00  0.00    +0.000 HD
ENDBRANCH   7  11
ENDBRANCH   1   3
BRANCH   1  20
ATOM     20  C   UNL     1       0.415   9.917  20.981  0.00  0.00    +0.000 C 
BRANCH  20  23
ATOM     21  C   UNL     1      -0.983  11.796  21.809  0.00  0.00    +0.000 C 
ATOM     22  O   UNL     1       0.016  12.489  22.002  0.00  0.00    +0.000 OA
ATOM     23  N   UNL     1      -0.867  10.511  21.317  0.00  0.00    +0.000 N 
ATOM     24  H   UNL     1      -1.715   9.987  21.133  0.00  0.00    +0.000 HD
BRANCH  21  31
ATOM     25  C   UNL     1      -7.775  14.023  24.226  0.00  0.00    +0.000 C 
ATOM     26  C   UNL     1      -6.613  13.752  23.316  0.00  0.00    +0.000 A 
ATOM     27  C   UNL     1      -6.711  14.051  21.961  0.00  0.00    +0.000 A 
ATOM     28  C   UNL     1      -5.636  13.774  21.122  0.00  0.00    +0.000 A 
ATOM     29  C   UNL     1      -4.473  13.201  21.681  0.00  0.00    +0.000 A 
ATOM     30  C   UNL     1      -3.219  12.797  21.120  0.00  0.00    +0.000 A 
ATOM     31  C   UNL     1      -2.337  12.284  22.054  0.00  0.00    +0.000 A 
ATOM     32  S   UNL     1      -3.045  12.272  23.618  0.00  0.00    +0.000 S 
ATOM     33  C   UNL     1      -4.496  12.955  23.046  0.00  0.00    +0.000 A 
ATOM     34  N   UNL     1      -5.517  13.204  23.892  0.00  0.00    +0.000 NA
BRANCH  30  35
ATOM     35  N   UNL     1      -2.926  12.909  19.804  0.00  0.00    +0.000 N 
ATOM     36  H   UNL     1      -2.017  12.705  19.410  0.00  0.00    +0.000 HD
ATOM     37  H   UNL     1      -3.556  13.415  19.175  0.00  0.00    +0.000 HD
ENDBRANCH  30  35
ENDBRANCH  21  31
ENDBRANCH  20  23
ENDBRANCH   1  20
TORSDOF 6
ENDMDL
MODEL 2
REMARK VINA RESULT:      -8.1      2.126      2.848
REMARK  Name = 
REMARK  8 active torsions:
REMARK  status: ('A' for Active; 'I' for Inactive)
REMARK    1  A    between atoms: C_1  and  C_2
REMARK    2  A    between atoms: C_6  and  N_7
REMARK    3  A    between atoms: C_8  and  C_9
REMARK    4  A    between atoms: N_11  and  C_12
REMARK    5  A    between atoms: C_12  and  C_13
REMARK    6  A    between atoms: C_13  and  C_14
REMARK    7  A    between atoms: C_13  and  C_15
REMARK    8  A    between atoms: C_19  and  N_20
REMARK                            x       y       z     vdW  Elec       q    Type
REMARK                         _______ _______ _______ _____ _____    ______ ____
ROOT
ATOM      1  C   UNL     1       0.671  10.805  19.404  0.00  0.00    +0.000 C 
ATOM      2  C   UNL     1      -0.706  10.957  18.746  0.00  0.00    +0.000 C 
ENDROOT
BRANCH   1   3
ATOM      3  C   UNL     1       1.212   9.385  19.403  0.00  0.00    +0.000 A 
ATOM      4  C   UNL     1       1.147   8.540  20.514  0.00  0.00    +0.000 A 
ATOM      5  C   UNL     1       1.695   7.255  20.456  0.00  0.00    +0.000 A 
ATOM      6  F   UNL     1       1.591   6.482  21.550  0.00  0.00    +0.000 F 
ATOM      7  C   UNL     1       2.359   6.765  19.313  0.00  0.00    +0.000 A 
ATOM      8  C   UNL     1       2.432   7.627  18.215  0.00  0.00    +0.000 A 
ATOM      9  C   UNL     1       1.854   8.898  18.259  0.00  0.00    +0.000 A 
ATOM     10  F   UNL     1       1.925   9.665  17.162  0.00  0.00    +0.000 F 
BRANCH   7  11
ATOM     11  N   UNL     1       2.881   5.466  19.302  0.00  0.00    +0.000 N 
ATOM     12  C   UNL     1       3.772   5.013  18.208  0.00  0.00    +0.000 C 
ATOM     13  C   UNL     1       3.122   3.884  17.354  0.00  0.00    +0.000 C 
ATOM     14  C   UNL     1       3.320   2.492  17.982  0.00  0.00    +0.000 C 
ATOM     15  C   UNL     1       1.984   2.188  18.657  0.00  0.00    +0.000 C 
ATOM     16  C   UNL     1       1.319   3.555  18.722  0.00  0.00    +0.000 C 
ATOM     17  C   UNL     1       1.960   4.436  19.853  0.00  0.00    +0.000 C 
ATOM     18  N   UNL     1       1.645   4.022  17.351  0.00  0.00    +0.000 NA
ATOM     19  H   UNL     1       1.410   5.012  17.303  0.00  0.00    +0.000 HD
ENDBRANCH   7  11
ENDBRANCH   1   3
BRANCH   1  20
ATOM     20  C   UNL     1       0.721  11.416  20.824  0.00  0.00    +0.000 C 
BRANCH  20  23
ATOM     21  C   UNL     1      -1.051  12.057  22.444  0.00  0.00    +0.000 C 
ATOM     22  O   UNL     1      -0.585  11.297  23.293  0.00  0.00    +0.000 OA
ATOM     23  N   UNL     1      -0.467  12.163  21.196  0.00  0.00    +0.000 N 
ATOM     24  H   UNL     1      -0.855  12.830  20.538  0.00  0.00    +0.000 HD
BRANCH  21  31
ATOM     25  C   UNL     1      -7.621  15.729  22.976  0.00  0.00    +0.000 C 
ATOM     26  C   UNL     1      -6.190  15.340  23.213  0.00  0.00    +0.000 A 
ATOM     27  C   UNL     1      -5.413  16.073  24.105  0.00  0.00    +0.000 A 
ATOM     28  C   UNL     1      -4.082  15.717  24.300  0.00  0.00    +0.000 A 
ATOM     29  C   UNL     1      -3.565  14.614  23.586  0.00  0.00    +0.000 A 
ATOM     30  C   UNL     1      -2.275  13.996  23.548  0.00  0.00    +0.000 A 
ATOM     31  C   UNL     1      -2.211  12.906  22.698  0.00  0.00    +0.000 A 
ATOM     32  S   UNL     1      -3.722  12.645  21.928  0.00  0.00    +0.000 S 
ATOM     33  C   UNL     1      -4.442  13.962  22.732  0.00  0.00    +0.000 A 
ATOM     34  N   UNL     1      -5.736  14.276  22.510  0.00  0.00    +0.000 NA
BRANCH  30  35
ATOM     35  N   UNL     1      -1.221  14.436  24.273  0.00  0.00    +0.000 N 
ATOM     36  H   UNL     1      -1.056  15.410  24.494  0.00  0.00    +0.000 HD
ATOM     37  H   UNL     1      -0.423  13.821  24.452  0.00  0.00    +0.000 HD
ENDBRANCH  30  35
ENDBRANCH  21  31
ENDBRANCH  20  23
ENDBRANCH   1  20
TORSDOF 6
ENDMDL
MODEL 3
REMARK VINA RESULT:      -8.1      2.467      3.136
REMARK  Name = 
REMARK  8 active torsions:
REMARK  status: ('A' for Active; 'I' for Inactive)
REMARK    1  A    between atoms: C_1  and  C_2
REMARK    2  A    between atoms: C_6  and  N_7
REMARK    3  A    between atoms: C_8  and  C_9
REMARK    4  A    between atoms: N_11  and  C_12
REMARK    5  A    between atoms: C_12  and  C_13
REMARK    6  A    between atoms: C_13  and  C_14
REMARK    7  A    between atoms: C_13  and  C_15
REMARK    8  A    between atoms: C_19  and  N_20
REMARK                            x       y       z     vdW  Elec       q    Type
REMARK                         _______ _______ _______ _____ _____    ______ ____
ROOT
ATOM      1  C   UNL     1       0.688  10.467  19.666  0.00  0.00    +0.000 C 
ATOM      2  C   UNL     1      -0.757  10.587  19.168  0.00  0.00    +0.000 C 
ENDROOT
BRANCH   1   3
ATOM      3  C   UNL     1       1.276   9.070  19.553  0.00  0.00    +0.000 A 
ATOM      4  C   UNL     1       1.288   8.157  20.611  0.00  0.00    +0.000 A 
ATOM      5  C   UNL     1       1.875   6.899  20.450  0.00  0.00    +0.000 A 
ATOM      6  F   UNL     1       1.845   6.057  21.496  0.00  0.00    +0.000 F 
ATOM      7  C   UNL     1       2.504   6.504  19.252  0.00  0.00    +0.000 A 
ATOM      8  C   UNL     1       2.500   7.434  18.207  0.00  0.00    +0.000 A 
ATOM      9  C   UNL     1       1.883   8.678  18.356  0.00  0.00    +0.000 A 
ATOM     10  F   UNL     1       1.880   9.513  17.306  0.00  0.00    +0.000 F 
BRANCH   7  11
ATOM     11  N   UNL     1       3.068   5.227  19.137  0.00  0.00    +0.000 N 
ATOM     12  C   UNL     1       3.789   4.821  17.907  0.00  0.00    +0.000 C 
ATOM     13  C   UNL     1       3.054   3.673  17.153  0.00  0.00    +0.000 C 
ATOM     14  C   UNL     1       3.406   2.285  17.719  0.00  0.00    +0.000 C 
ATOM     15  C   UNL     1       2.209   1.921  18.596  0.00  0.00    +0.000 C 
ATOM     16  C   UNL     1       1.510   3.259  18.788  0.00  0.00    +0.000 C 
ATOM     17  C   UNL     1       2.289   4.156  19.813  0.00  0.00    +0.000 C 
ATOM     18  N   UNL     1       1.592   3.751  17.388  0.00  0.00    +0.000 NA
ATOM     19  H   UNL     1       1.314   4.730  17.394  0.00  0.00    +0.000 HD
ENDBRANCH   7  11
ENDBRANCH   1   3
BRANCH   1  20
ATOM     20  C   UNL     1       0.873  11.033  21.094  0.00  0.00    +0.000 C 
BRANCH  20  23
ATOM     21  C   UNL     1      -0.860  12.015  22.580  0.00  0.00    +0.000 C 
ATOM     22  O   UNL     1      -0.806  11.040  23.329  0.00  0.00    +0.000 OA
ATOM     23  N   UNL     1      -0.068  12.080  21.449  0.00  0.00    +0.000 N 
ATOM     24  H   UNL     1      -0.111  12.917  20.879  0.00  0.00    +0.000 HD
BRANCH  21  31
ATOM     25  C   UNL     1      -4.416  18.606  23.495  0.00  0.00    +0.000 C 
ATOM     26  C   UNL     1      -4.145  17.130  23.491  0.00  0.00    +0.000 A 
ATOM     27  C   UNL     1      -5.113  16.248  23.960  0.00  0.00    +0.000 A 
ATOM     28  C   UNL     1      -4.843  14.883  23.973  0.00  0.00    +0.000 A 
ATOM     29  C   UNL     1      -3.589  14.438  23.501  0.00  0.00    +0.000 A 
ATOM     30  C   UNL     1      -2.998  13.140  23.381  0.00  0.00    +0.000 A 
ATOM     31  C   UNL     1      -1.723  13.162  22.841  0.00  0.00    +0.000 A 
ATOM     32  S   UNL     1      -1.235  14.772  22.500  0.00  0.00    +0.000 S 
ATOM     33  C   UNL     1      -2.711  15.415  23.054  0.00  0.00    +0.000 A 
ATOM     34  N   UNL     1      -2.932  16.746  23.028  0.00  0.00    +0.000 NA
BRANCH  30  35
ATOM     35  N   UNL     1      -3.626  12.002  23.756  0.00  0.00    +0.000 N 
ATOM     36  H   UNL     1      -3.927  11.811  24.703  0.00  0.00    +0.000 HD
ATOM     37  H   UNL     1      -3.635  11.187  23.136  0.00  0.00    +0.000 HD
ENDBRANCH  30  35
ENDBRANCH  21  31
ENDBRANCH  20  23
ENDBRANCH   1  20
TORSDOF 6
ENDMDL
MODEL 4
REMARK VINA RESULT:      -8.1      2.280      3.167
REMARK  Name = 
REMARK  8 active torsions:
REMARK  status: ('A' for Active; 'I' for Inactive)
REMARK    1  A    between atoms: C_1  and  C_2
REMARK    2  A    between atoms: C_6  and  N_7
REMARK    3  A    between atoms: C_8  and  C_9
REMARK    4  A    between atoms: N_11  and  C_12
REMARK    5  A    between atoms: C_12  and  C_13
REMARK    6  A    between atoms: C_13  and  C_14
REMARK    7  A    between atoms: C_13  and  C_15
REMARK    8  A    between atoms: C_19  and  N_20
REMARK                            x       y       z     vdW  Elec       q    Type
REMARK                         _______ _______ _______ _____ _____    ______ ____
ROOT
ATOM      1  C   UNL     1       1.281  10.473  18.743  0.00  0.00    +0.000 C 
ATOM      2  C   UNL     1       2.268  11.348  17.960  0.00  0.00    +0.000 C 
ENDROOT
BRANCH   1   3
ATOM      3  C   UNL     1       1.731   9.033  18.927  0.00  0.00    +0.000 A 
ATOM      4  C   UNL     1       2.426   8.317  17.948  0.00  0.00    +0.000 A 
ATOM      5  C   UNL     1       2.780   6.983  18.167  0.00  0.00    +0.000 A 
ATOM      6  F   UNL     1       3.460   6.350  17.197  0.00  0.00    +0.000 F 
ATOM      7  C   UNL     1       2.435   6.291  19.346  0.00  0.00    +0.000 A 
ATOM      8  C   UNL     1       1.724   7.014  20.310  0.00  0.00    +0.000 A 
ATOM      9  C   UNL     1       1.400   8.357  20.106  0.00  0.00    +0.000 A 
ATOM     10  F   UNL     1       0.750   9.007  21.082  0.00  0.00    +0.000 F 
BRANCH   7  11
ATOM     11  N   UNL     1       2.824   4.958  19.523  0.00  0.00    +0.000 N 
ATOM     12  C   UNL     1       3.899   4.363  18.695  0.00  0.00    +0.000 C 
ATOM     13  C   UNL     1       3.364   3.230  17.769  0.00  0.00    +0.000 C 
ATOM     14  C   UNL     1       3.283   1.874  18.494  0.00  0.00    +0.000 C 
ATOM     15  C   UNL     1       1.805   1.723  18.847  0.00  0.00    +0.000 C 
ATOM     16  C   UNL     1       1.270   3.139  18.685  0.00  0.00    +0.000 C 
ATOM     17  C   UNL     1       1.710   4.044  19.890  0.00  0.00    +0.000 C 
ATOM     18  N   UNL     1       1.948   3.482  17.409  0.00  0.00    +0.000 NA
ATOM     19  H   UNL     1       1.822   4.481  17.258  0.00  0.00    +0.000 HD
ENDBRANCH   7  11
ENDBRANCH   1   3
BRANCH   1  20
ATOM     20  C   UNL     1      -0.154  10.537  18.169  0.00  0.00    +0.000 C 
BRANCH  20  23
ATOM     21  C   UNL     1      -1.029  11.956  20.011  0.00  0.00    +0.000 C 
ATOM     22  O   UNL     1      -0.006  12.640  20.005  0.00  0.00    +0.000 OA
ATOM     23  N   UNL     1      -1.172  10.893  19.141  0.00  0.00    +0.000 N 
ATOM     24  H   UNL     1      -2.046  10.379  19.148  0.00  0.00    +0.000 HD
BRANCH  21  31
ATOM     25  C   UNL     1      -7.450  13.645  23.595  0.00  0.00    +0.000 C 
ATOM     26  C   UNL     1      -6.034  13.210  23.352  0.00  0.00    +0.000 A 
ATOM     27  C   UNL     1      -5.223  12.862  24.427  0.00  0.00    +0.000 A 
ATOM     28  C   UNL     1      -3.906  12.482  24.192  0.00  0.00    +0.000 A 
ATOM     29  C   UNL     1      -3.436  12.458  22.861  0.00  0.00    +0.000 A 
ATOM     30  C   UNL     1      -2.170  12.129  22.279  0.00  0.00    +0.000 A 
ATOM     31  C   UNL     1      -2.154  12.231  20.899  0.00  0.00    +0.000 A 
ATOM     32  S   UNL     1      -3.679  12.752  20.310  0.00  0.00    +0.000 S 
ATOM     33  C   UNL     1      -4.343  12.822  21.876  0.00  0.00    +0.000 A 
ATOM     34  N   UNL     1      -5.625  13.200  22.061  0.00  0.00    +0.000 NA
BRANCH  30  35
ATOM     35  N   UNL     1      -1.096  11.751  23.009  0.00  0.00    +0.000 N 
ATOM     36  H   UNL     1      -1.141  11.495  23.988  0.00  0.00    +0.000 HD
ATOM     37  H   UNL     1      -0.148  11.916  22.658  0.00  0.00    +0.000 HD
ENDBRANCH  30  35
ENDBRANCH  21  31
ENDBRANCH  20  23
ENDBRANCH   1  20
TORSDOF 6
ENDMDL
MODEL 5
REMARK VINA RESULT:      -8.0      1.620      2.353
REMARK  Name = 
REMARK  8 active torsions:
REMARK  status: ('A' for Active; 'I' for Inactive)
REMARK    1  A    between atoms: C_1  and  C_2
REMARK    2  A    between atoms: C_6  and  N_7
REMARK    3  A    between atoms: C_8  and  C_9
REMARK    4  A    between atoms: N_11  and  C_12
REMARK    5  A    between atoms: C_12  and  C_13
REMARK    6  A    between atoms: C_13  and  C_14
REMARK    7  A    between atoms: C_13  and  C_15
REMARK    8  A    between atoms: C_19  and  N_20
REMARK                            x       y       z     vdW  Elec       q    Type
REMARK                         _______ _______ _______ _____ _____    ______ ____
ROOT
ATOM      1  C   UNL     1       0.812  10.244  19.649  0.00  0.00    +0.000 C 
ATOM      2  C   UNL     1      -0.469  10.473  18.836  0.00  0.00    +0.000 C 
ENDROOT
BRANCH   1   3
ATOM      3  C   UNL     1       1.426   8.864  19.475  0.00  0.00    +0.000 A 
ATOM      4  C   UNL     1       1.418   7.890  20.477  0.00  0.00    +0.000 A 
ATOM      5  C   UNL     1       2.031   6.653  20.263  0.00  0.00    +0.000 A 
ATOM      6  F   UNL     1       1.980   5.750  21.256  0.00  0.00    +0.000 F 
ATOM      7  C   UNL     1       2.705   6.338  19.066  0.00  0.00    +0.000 A 
ATOM      8  C   UNL     1       2.721   7.328  18.078  0.00  0.00    +0.000 A 
ATOM      9  C   UNL     1       2.078   8.552  18.278  0.00  0.00    +0.000 A 
ATOM     10  F   UNL     1       2.097   9.448  17.279  0.00  0.00    +0.000 F 
BRANCH   7  11
ATOM     11  N   UNL     1       3.294   5.079  18.896  0.00  0.00    +0.000 N 
ATOM     12  C   UNL     1       3.653   4.583  17.546  0.00  0.00    +0.000 C 
ATOM     13  C   UNL     1       2.809   3.340  17.137  0.00  0.00    +0.000 C 
ATOM     14  C   UNL     1       3.398   2.028  17.688  0.00  0.00    +0.000 C 
ATOM     15  C   UNL     1       2.531   1.706  18.904  0.00  0.00    +0.000 C 
ATOM     16  C   UNL     1       1.832   3.028  19.182  0.00  0.00    +0.000 C 
ATOM     17  C   UNL     1       2.814   4.050  19.856  0.00  0.00    +0.000 C 
ATOM     18  N   UNL     1       1.475   3.384  17.785  0.00  0.00    +0.000 NA
ATOM     19  H   UNL     1       1.147   4.348  17.791  0.00  0.00    +0.000 HD
ENDBRANCH   7  11
ENDBRANCH   1   3
BRANCH   1  20
ATOM     20  C   UNL     1       0.633  10.586  21.147  0.00  0.00    +0.000 C 
BRANCH  20  23
ATOM     21  C   UNL     1      -1.062  12.362  21.532  0.00  0.00    +0.000 C 
ATOM     22  O   UNL     1      -0.240  13.239  21.267  0.00  0.00    +0.000 OA
ATOM     23  N   UNL     1      -0.703  11.028  21.504  0.00  0.00    +0.000 N 
ATOM     24  H   UNL     1      -1.418  10.333  21.689  0.00  0.00    +0.000 HD
BRANCH  21  31
ATOM     25  C   UNL     1      -7.917  13.744  24.366  0.00  0.00    +0.000 C 
ATOM     26  C   UNL     1      -6.798  13.572  23.380  0.00  0.00    +0.000 A 
ATOM     27  C   UNL     1      -7.044  13.734  22.020  0.00  0.00    +0.000 A 
ATOM     28  C   UNL     1      -6.006  13.550  21.113  0.00  0.00    +0.000 A 
ATOM     29  C   UNL     1      -4.728  13.209  21.608  0.00  0.00    +0.000 A 
ATOM     30  C   UNL     1      -3.473  12.951  20.970  0.00  0.00    +0.000 A 
ATOM     31  C   UNL     1      -2.453  12.659  21.858  0.00  0.00    +0.000 A 
ATOM     32  S   UNL     1      -3.030  12.678  23.475  0.00  0.00    +0.000 S 
ATOM     33  C   UNL     1      -4.609  13.082  22.984  0.00  0.00    +0.000 A 
ATOM     34  N   UNL     1      -5.590  13.247  23.896  0.00  0.00    +0.000 NA
BRANCH  30  35
ATOM     35  N   UNL     1      -3.302  12.991  19.628  0.00  0.00    +0.000 N 
ATOM     36  H   UNL     1      -2.660  13.618  19.161  0.00  0.00    +0.000 HD
ATOM     37  H   UNL     1      -3.975  12.533  19.007  0.00  0.00    +0.000 HD
ENDBRANCH  30  35
ENDBRANCH  21  31
ENDBRANCH  20  23
ENDBRANCH   1  20
TORSDOF 6
ENDMDL
MODEL 6
REMARK VINA RESULT:      -8.0      2.419      3.275
REMARK  Name = 
REMARK  8 active torsions:
REMARK  status: ('A' for Active; 'I' for Inactive)
REMARK    1  A    between atoms: C_1  and  C_2
REMARK    2  A    between atoms: C_6  and  N_7
REMARK    3  A    between atoms: C_8  and  C_9
REMARK    4  A    between atoms: N_11  and  C_12
REMARK    5  A    between atoms: C_12  and  C_13
REMARK    6  A    between atoms: C_13  and  C_14
REMARK    7  A    between atoms: C_13  and  C_15
REMARK    8  A    between atoms: C_19  and  N_20
REMARK                            x       y       z     vdW  Elec       q    Type
REMARK                         _______ _______ _______ _____ _____    ______ ____
ROOT
ATOM      1  C   UNL     1       1.122  10.169  18.847  0.00  0.00    +0.000 C 
ATOM      2  C   UNL     1       1.942  11.399  18.438  0.00  0.00    +0.000 C 
ENDROOT
BRANCH   1   3
ATOM      3  C   UNL     1       1.861   8.849  18.705  0.00  0.00    +0.000 A 
ATOM      4  C   UNL     1       2.671   8.539  17.609  0.00  0.00    +0.000 A 
ATOM      5  C   UNL     1       3.296   7.291  17.525  0.00  0.00    +0.000 A 
ATOM      6  F   UNL     1       4.074   7.054  16.456  0.00  0.00    +0.000 F 
ATOM      7  C   UNL     1       3.120   6.288  18.499  0.00  0.00    +0.000 A 
ATOM      8  C   UNL     1       2.293   6.605  19.581  0.00  0.00    +0.000 A 
ATOM      9  C   UNL     1       1.696   7.863  19.684  0.00  0.00    +0.000 A 
ATOM     10  F   UNL     1       0.943   8.121  20.764  0.00  0.00    +0.000 F 
BRANCH   7  11
ATOM     11  N   UNL     1       3.778   5.058  18.374  0.00  0.00    +0.000 N 
ATOM     12  C   UNL     1       3.368   4.077  17.342  0.00  0.00    +0.000 C 
ATOM     13  C   UNL     1       2.785   2.776  17.970  0.00  0.00    +0.000 C 
ATOM     14  C   UNL     1       3.887   1.776  18.367  0.00  0.00    +0.000 C 
ATOM     15  C   UNL     1       4.031   1.953  19.877  0.00  0.00    +0.000 C 
ATOM     16  C   UNL     1       3.338   3.284  20.131  0.00  0.00    +0.000 C 
ATOM     17  C   UNL     1       4.239   4.482  19.666  0.00  0.00    +0.000 C 
ATOM     18  N   UNL     1       2.143   3.074  19.274  0.00  0.00    +0.000 NA
ATOM     19  H   UNL     1       1.660   3.967  19.203  0.00  0.00    +0.000 HD
ENDBRANCH   7  11
ENDBRANCH   1   3
BRANCH   1  20
ATOM     20  C   UNL     1      -0.254  10.113  18.143  0.00  0.00    +0.000 C 
BRANCH  20  23
ATOM     21  C   UNL     1      -2.389  11.375  18.299  0.00  0.00    +0.000 C 
ATOM     22  O   UNL     1      -2.430  11.507  17.076  0.00  0.00    +0.000 OA
ATOM     23  N   UNL     1      -1.339  10.708  18.902  0.00  0.00    +0.000 N 
ATOM     24  H   UNL     1      -1.362  10.584  19.907  0.00  0.00    +0.000 HD
BRANCH  21  31
ATOM     25  C   UNL     1      -6.909  14.310  23.580  0.00  0.00    +0.000 C 
ATOM     26  C   UNL     1      -6.452  13.651  22.310  0.00  0.00    +0.000 A 
ATOM     27  C   UNL     1      -7.391  13.222  21.377  0.00  0.00    +0.000 A 
ATOM     28  C   UNL     1      -6.958  12.593  20.214  0.00  0.00    +0.000 A 
ATOM     29  C   UNL     1      -5.571  12.416  20.018  0.00  0.00    +0.000 A 
ATOM     30  C   UNL     1      -4.804  11.822  18.965  0.00  0.00    +0.000 A 
ATOM     31  C   UNL     1      -3.438  11.878  19.181  0.00  0.00    +0.000 A 
ATOM     32  S   UNL     1      -3.087  12.636  20.680  0.00  0.00    +0.000 S 
ATOM     33  C   UNL     1      -4.736  12.893  21.019  0.00  0.00    +0.000 A 
ATOM     34  N   UNL     1      -5.115  13.503  22.161  0.00  0.00    +0.000 NA
BRANCH  30  35
ATOM     35  N   UNL     1      -5.361  11.264  17.867  0.00  0.00    +0.000 N 
ATOM     36  H   UNL     1      -5.328  11.680  16.945  0.00  0.00    +0.000 HD
ATOM     37  H   UNL     1      -6.030  10.495  17.961  0.00  0.00    +0.000 HD
ENDBRANCH  30  35
ENDBRANCH  21  31
ENDBRANCH  20  23
ENDBRANCH   1  20
TORSDOF 6
ENDMDL
MODEL 7
REMARK VINA RESULT:      -7.9      2.512      3.171
REMARK  Name = 
REMARK  8 active torsions:
REMARK  status: ('A' for Active; 'I' for Inactive)
REMARK    1  A    between atoms: C_1  and  C_2
REMARK    2  A    between atoms: C_6  and  N_7
REMARK    3  A    between atoms: C_8  and  C_9
REMARK    4  A    between atoms: N_11  and  C_12
REMARK    5  A    between atoms: C_12  and  C_13
REMARK    6  A    between atoms: C_13  and  C_14
REMARK    7  A    between atoms: C_13  and  C_15
REMARK    8  A    between atoms: C_19  and  N_20
REMARK                            x       y       z     vdW  Elec       q    Type
REMARK                         _______ _______ _______ _____ _____    ______ ____
ROOT
ATOM      1  C   UNL     1       1.007  10.432  18.909  0.00  0.00    +0.000 C 
ATOM      2  C   UNL     1       2.099  11.395  18.425  0.00  0.00    +0.000 C 
ENDROOT
BRANCH   1   3
ATOM      3  C   UNL     1       1.473   8.996  19.085  0.00  0.00    +0.000 A 
ATOM      4  C   UNL     1       1.344   8.290  20.285  0.00  0.00    +0.000 A 
ATOM      5  C   UNL     1       1.825   6.982  20.389  0.00  0.00    +0.000 A 
ATOM      6  F   UNL     1       1.661   6.348  21.562  0.00  0.00    +0.000 F 
ATOM      7  C   UNL     1       2.482   6.329  19.326  0.00  0.00    +0.000 A 
ATOM      8  C   UNL     1       2.620   7.053  18.138  0.00  0.00    +0.000 A 
ATOM      9  C   UNL     1       2.109   8.347  18.021  0.00  0.00    +0.000 A 
ATOM     10  F   UNL     1       2.240   8.977  16.844  0.00  0.00    +0.000 F 
BRANCH   7  11
ATOM     11  N   UNL     1       2.936   5.013  19.478  0.00  0.00    +0.000 N 
ATOM     12  C   UNL     1       4.042   4.489  18.644  0.00  0.00    +0.000 C 
ATOM     13  C   UNL     1       3.568   3.351  17.691  0.00  0.00    +0.000 C 
ATOM     14  C   UNL     1       3.550   1.978  18.387  0.00  0.00    +0.000 C 
ATOM     15  C   UNL     1       2.079   1.747  18.728  0.00  0.00    +0.000 C 
ATOM     16  C   UNL     1       1.477   3.138  18.593  0.00  0.00    +0.000 C 
ATOM     17  C   UNL     1       1.866   4.038  19.819  0.00  0.00    +0.000 C 
ATOM     18  N   UNL     1       2.143   3.541  17.328  0.00  0.00    +0.000 NA
ATOM     19  H   UNL     1       1.969   4.536  17.197  0.00  0.00    +0.000 HD
ENDBRANCH   7  11
ENDBRANCH   1   3
BRANCH   1  20
ATOM     20  C   UNL     1      -0.270  10.498  18.041  0.00  0.00    +0.000 C 
BRANCH  20  23
ATOM     21  C   UNL     1      -2.565  11.450  18.059  0.00  0.00    +0.000 C 
ATOM     22  O   UNL     1      -2.614  11.422  16.829  0.00  0.00    +0.000 OA
ATOM     23  N   UNL     1      -1.436  11.020  18.730  0.00  0.00    +0.000 N 
ATOM     24  H   UNL     1      -1.449  11.021  19.744  0.00  0.00    +0.000 HD
BRANCH  21  31
ATOM     25  C   UNL     1      -7.499  14.180  23.073  0.00  0.00    +0.000 C 
ATOM     26  C   UNL     1      -6.944  13.536  21.835  0.00  0.00    +0.000 A 
ATOM     27  C   UNL     1      -7.809  13.049  20.862  0.00  0.00    +0.000 A 
ATOM     28  C   UNL     1      -7.285  12.434  19.729  0.00  0.00    +0.000 A 
ATOM     29  C   UNL     1      -5.882  12.331  19.605  0.00  0.00    +0.000 A 
ATOM     30  C   UNL     1      -5.032  11.771  18.599  0.00  0.00    +0.000 A 
ATOM     31  C   UNL     1      -3.683  11.903  18.881  0.00  0.00    +0.000 A 
ATOM     32  S   UNL     1      -3.451  12.691  20.388  0.00  0.00    +0.000 S 
ATOM     33  C   UNL     1      -5.126  12.861  20.640  0.00  0.00    +0.000 A 
ATOM     34  N   UNL     1      -5.595  13.460  21.755  0.00  0.00    +0.000 NA
BRANCH  30  35
ATOM     35  N   UNL     1      -5.502  11.174  17.479  0.00  0.00    +0.000 N 
ATOM     36  H   UNL     1      -5.006  10.448  16.977  0.00  0.00    +0.000 HD
ATOM     37  H   UNL     1      -6.288  11.582  16.967  0.00  0.00    +0.000 HD
ENDBRANCH  30  35
ENDBRANCH  21  31
ENDBRANCH  20  23
ENDBRANCH   1  20
TORSDOF 6
ENDMDL
MODEL 8
REMARK VINA RESULT:      -7.9      1.737      2.631
REMARK  Name = 
REMARK  8 active torsions:
REMARK  status: ('A' for Active; 'I' for Inactive)
REMARK    1  A    between atoms: C_1  and  C_2
REMARK    2  A    between atoms: C_6  and  N_7
REMARK    3  A    between atoms: C_8  and  C_9
REMARK    4  A    between atoms: N_11  and  C_12
REMARK    5  A    between atoms: C_12  and  C_13
REMARK    6  A    between atoms: C_13  and  C_14
REMARK    7  A    between atoms: C_13  and  C_15
REMARK    8  A    between atoms: C_19  and  N_20
REMARK                            x       y       z     vdW  Elec       q    Type
REMARK                         _______ _______ _______ _____ _____    ______ ____
ROOT
ATOM      1  C   UNL     1       1.053  10.125  19.005  0.00  0.00    +0.000 C 
ATOM      2  C   UNL     1      -0.277  10.201  18.244  0.00  0.00    +0.000 C 
ENDROOT
BRANCH   1   3
ATOM      3  C   UNL     1       1.807   8.819  18.819  0.00  0.00    +0.000 A 
ATOM      4  C   UNL     1       2.637   8.564  17.724  0.00  0.00    +0.000 A 
ATOM      5  C   UNL     1       3.275   7.327  17.596  0.00  0.00    +0.000 A 
ATOM      6  F   UNL     1       4.072   7.142  16.531  0.00  0.00    +0.000 F 
ATOM      7  C   UNL     1       3.093   6.280  18.524  0.00  0.00    +0.000 A 
ATOM      8  C   UNL     1       2.246   6.543  19.605  0.00  0.00    +0.000 A 
ATOM      9  C   UNL     1       1.636   7.791  19.752  0.00  0.00    +0.000 A 
ATOM     10  F   UNL     1       0.863   7.995  20.829  0.00  0.00    +0.000 F 
BRANCH   7  11
ATOM     11  N   UNL     1       3.765   5.063  18.357  0.00  0.00    +0.000 N 
ATOM     12  C   UNL     1       3.354   4.106  17.303  0.00  0.00    +0.000 C 
ATOM     13  C   UNL     1       2.795   2.781  17.902  0.00  0.00    +0.000 C 
ATOM     14  C   UNL     1       3.914   1.785  18.257  0.00  0.00    +0.000 C 
ATOM     15  C   UNL     1       4.076   1.921  19.770  0.00  0.00    +0.000 C 
ATOM     16  C   UNL     1       3.370   3.236  20.069  0.00  0.00    +0.000 C 
ATOM     17  C   UNL     1       4.250   4.458  19.626  0.00  0.00    +0.000 C 
ATOM     18  N   UNL     1       2.166   3.034  19.221  0.00  0.00    +0.000 NA
ATOM     19  H   UNL     1       1.671   3.923  19.182  0.00  0.00    +0.000 HD
ENDBRANCH   7  11
ENDBRANCH   1   3
BRANCH   1  20
ATOM     20  C   UNL     1       0.898  10.468  20.506  0.00  0.00    +0.000 C 
BRANCH  20  23
ATOM     21  C   UNL     1      -0.687  12.031  21.608  0.00  0.00    +0.000 C 
ATOM     22  O   UNL     1       0.239  12.759  21.965  0.00  0.00    +0.000 OA
ATOM     23  N   UNL     1      -0.440  10.876  20.892  0.00  0.00    +0.000 N 
ATOM     24  H   UNL     1      -1.232  10.324  20.580  0.00  0.00    +0.000 HD
BRANCH  21  31
ATOM     25  C   UNL     1      -7.663  13.346  24.164  0.00  0.00    +0.000 C 
ATOM     26  C   UNL     1      -6.488  13.249  23.234  0.00  0.00    +0.000 A 
ATOM     27  C   UNL     1      -6.638  13.587  21.893  0.00  0.00    +0.000 A 
ATOM     28  C   UNL     1      -5.548  13.472  21.036  0.00  0.00    +0.000 A 
ATOM     29  C   UNL     1      -4.319  13.019  21.562  0.00  0.00    +0.000 A 
ATOM     30  C   UNL     1      -3.034  12.788  20.976  0.00  0.00    +0.000 A 
ATOM     31  C   UNL     1      -2.086  12.346  21.882  0.00  0.00    +0.000 A 
ATOM     32  S   UNL     1      -2.768  12.190  23.450  0.00  0.00    +0.000 S 
ATOM     33  C   UNL     1      -4.296  12.719  22.917  0.00  0.00    +0.000 A 
ATOM     34  N   UNL     1      -5.329  12.812  23.780  0.00  0.00    +0.000 NA
BRANCH  30  35
ATOM     35  N   UNL     1      -2.772  12.985  19.663  0.00  0.00    +0.000 N 
ATOM     36  H   UNL     1      -2.265  13.784  19.304  0.00  0.00    +0.000 HD
ATOM     37  H   UNL     1      -3.264  12.440  18.950  0.00  0.00    +0.000 HD
ENDBRANCH  30  35
ENDBRANCH  21  31
ENDBRANCH  20  23
ENDBRANCH   1  20
TORSDOF 6
ENDMDL
MODEL 9
REMARK VINA RESULT:      -7.9      1.994      2.842
REMARK  Name = 
REMARK  8 active torsions:
REMARK  status: ('A' for Active; 'I' for Inactive)
REMARK    1  A    between atoms: C_1  and  C_2
REMARK    2  A    between atoms: C_6  and  N_7
REMARK    3  A    between atoms: C_8  and  C_9
REMARK    4  A    between atoms: N_11  and  C_12
REMARK    5  A    between atoms: C_12  and  C_13
REMARK    6  A    between atoms: C_13  and  C_14
REMARK    7  A    between atoms: C_13  and  C_15
REMARK    8  A    between atoms: C_19  and  N_20
REMARK                            x       y       z     vdW  Elec       q    Type
REMARK                         _______ _______ _______ _____ _____    ______ ____
ROOT
ATOM      1  C   UNL     1       0.590  10.782  19.304  0.00  0.00    +0.000 C 
ATOM      2  C   UNL     1      -0.621  10.950  18.377  0.00  0.00    +0.000 C 
ENDROOT
BRANCH   1   3
ATOM      3  C   UNL     1       1.154   9.372  19.348  0.00  0.00    +0.000 A 
ATOM      4  C   UNL     1       1.081   8.553  20.479  0.00  0.00    +0.000 A 
ATOM      5  C   UNL     1       1.650   7.277  20.464  0.00  0.00    +0.000 A 
ATOM      6  F   UNL     1       1.537   6.530  21.574  0.00  0.00    +0.000 F 
ATOM      7  C   UNL     1       2.344   6.770  19.346  0.00  0.00    +0.000 A 
ATOM      8  C   UNL     1       2.424   7.606  18.228  0.00  0.00    +0.000 A 
ATOM      9  C   UNL     1       1.825   8.867  18.230  0.00  0.00    +0.000 A 
ATOM     10  F   UNL     1       1.905   9.608  17.115  0.00  0.00    +0.000 F 
BRANCH   7  11
ATOM     11  N   UNL     1       2.887   5.479  19.377  0.00  0.00    +0.000 N 
ATOM     12  C   UNL     1       3.801   5.013  18.309  0.00  0.00    +0.000 C 
ATOM     13  C   UNL     1       3.182   3.850  17.477  0.00  0.00    +0.000 C 
ATOM     14  C   UNL     1       3.393   2.479  18.144  0.00  0.00    +0.000 C 
ATOM     15  C   UNL     1       2.052   2.171  18.807  0.00  0.00    +0.000 C 
ATOM     16  C   UNL     1       1.364   3.529  18.826  0.00  0.00    +0.000 C 
ATOM     17  C   UNL     1       1.974   4.450  19.942  0.00  0.00    +0.000 C 
ATOM     18  N   UNL     1       1.704   3.964  17.448  0.00  0.00    +0.000 NA
ATOM     19  H   UNL     1       1.454   4.948  17.370  0.00  0.00    +0.000 HD
ENDBRANCH   7  11
ENDBRANCH   1   3
BRANCH   1  20
ATOM     20  C   UNL     1       0.324  11.319  20.730  0.00  0.00    +0.000 C 
BRANCH  20  23
ATOM     21  C   UNL     1      -1.713  11.875  22.039  0.00  0.00    +0.000 C 
ATOM     22  O   UNL     1      -1.331  11.176  22.978  0.00  0.00    +0.000 OA
ATOM     23  N   UNL     1      -0.955  11.987  20.889  0.00  0.00    +0.000 N 
ATOM     24  H   UNL     1      -1.282  12.603  20.154  0.00  0.00    +0.000 HD
BRANCH  21  31
ATOM     25  C   UNL     1      -7.779  16.282  21.198  0.00  0.00    +0.000 C 
ATOM     26  C   UNL     1      -6.821  15.283  21.781  0.00  0.00    +0.000 A 
ATOM     27  C   UNL     1      -7.104  14.687  23.005  0.00  0.00    +0.000 A 
ATOM     28  C   UNL     1      -6.199  13.780  23.547  0.00  0.00    +0.000 A 
ATOM     29  C   UNL     1      -5.020  13.490  22.827  0.00  0.00    +0.000 A 
ATOM     30  C   UNL     1      -3.905  12.631  23.088  0.00  0.00    +0.000 A 
ATOM     31  C   UNL     1      -2.954  12.642  22.082  0.00  0.00    +0.000 A 
ATOM     32  S   UNL     1      -3.408  13.719  20.826  0.00  0.00    +0.000 S 
ATOM     33  C   UNL     1      -4.856  14.145  21.615  0.00  0.00    +0.000 A 
ATOM     34  N   UNL     1      -5.705  15.033  21.057  0.00  0.00    +0.000 NA
BRANCH  30  35
ATOM     35  N   UNL     1      -3.794  11.880  24.208  0.00  0.00    +0.000 N 
ATOM     36  H   UNL     1      -4.430  11.943  24.993  0.00  0.00    +0.000 HD
ATOM     37  H   UNL     1      -2.932  11.364  24.401  0.00  0.00    +0.000 HD
ENDBRANCH  30  35
ENDBRANCH  21  31
ENDBRANCH  20  23
ENDBRANCH   1  20
TORSDOF 6
ENDMDL
