MODEL 1
REMARK VINA RESULT:      -4.9      0.000      0.000
REMARK  Name = 
REMARK  1 active torsions:
REMARK  status: ('A' for Active; 'I' for Inactive)
REMARK    1  A    between atoms: N_1  and  C_2
REMARK                            x       y       z     vdW  Elec       q    Type
REMARK                         _______ _______ _______ _____ _____    ______ ____
ROOT
ATOM      1  C   UNL     1       5.851   4.151  17.617  0.00  0.00    +0.000 A 
ATOM      2  C   UNL     1       5.075   4.136  16.525  0.00  0.00    +0.000 A 
ATOM      3  N   UNL     1       5.544   4.499  15.294  0.00  0.00    +0.000 N 
ATOM      4  C   UNL     1       6.821   4.926  15.062  0.00  0.00    +0.000 A 
ATOM      5  O   UNL     1       7.199   5.262  13.945  0.00  0.00    +0.000 OA
ATOM      6  N   UNL     1       7.644   4.947  16.149  0.00  0.00    +0.000 N 
ATOM      7  C   UNL     1       7.294   4.544  17.407  0.00  0.00    +0.000 A 
ATOM      8  O   UNL     1       8.109   4.473  18.327  0.00  0.00    +0.000 OA
ATOM      9  H   UNL     1       4.930   4.492  14.488  0.00  0.00    +0.000 HD
ATOM     10  H   UNL     1       8.602   5.217  15.998  0.00  0.00    +0.000 HD
ENDROOT
BRANCH   1  11
ATOM     11  N   UNL     1       5.448   3.822  18.898  0.00  0.00    +0.000 N 
ATOM     12  H   UNL     1       5.185   4.611  19.478  0.00  0.00    +0.000 HD
ATOM     13  H   UNL     1       4.760   3.066  18.888  0.00  0.00    +0.000 HD
ENDBRANCH   1  11
TORSDOF 1
ENDMDL
MODEL 2
REMARK VINA RESULT:      -4.9      1.836      3.233
REMARK  Name = 
REMARK  1 active torsions:
REMARK  status: ('A' for Active; 'I' for Inactive)
REMARK    1  A    between atoms: N_1  and  C_2
REMARK                            x       y       z     vdW  Elec       q    Type
REMARK                         _______ _______ _______ _____ _____    ______ ____
ROOT
ATOM      1  C   UNL     1       6.560   5.168  16.123  0.00  0.00    +0.000 A 
ATOM      2  C   UNL     1       5.270   5.524  16.180  0.00  0.00    +0.000 A 
ATOM      3  N   UNL     1       4.480   5.222  17.254  0.00  0.00    +0.000 N 
ATOM      4  C   UNL     1       4.912   4.522  18.345  0.00  0.00    +0.000 A 
ATOM      5  O   UNL     1       4.167   4.254  19.280  0.00  0.00    +0.000 OA
ATOM      6  N   UNL     1       6.224   4.150  18.326  0.00  0.00    +0.000 N 
ATOM      7  C   UNL     1       7.113   4.456  17.335  0.00  0.00    +0.000 A 
ATOM      8  O   UNL     1       8.313   4.196  17.423  0.00  0.00    +0.000 OA
ATOM      9  H   UNL     1       3.503   5.491  17.264  0.00  0.00    +0.000 HD
ATOM     10  H   UNL     1       6.579   3.670  19.136  0.00  0.00    +0.000 HD
ENDROOT
BRANCH   1  11
ATOM     11  N   UNL     1       7.419   5.414  15.068  0.00  0.00    +0.000 N 
ATOM     12  H   UNL     1       7.240   4.864  14.235  0.00  0.00    +0.000 HD
ATOM     13  H   UNL     1       7.512   6.417  14.890  0.00  0.00    +0.000 HD
ENDBRANCH   1  11
TORSDOF 1
ENDMDL
MODEL 3
REMARK VINA RESULT:      -4.9      5.397      6.023
REMARK  Name = 
REMARK  1 active torsions:
REMARK  status: ('A' for Active; 'I' for Inactive)
REMARK    1  A    between atoms: N_1  and  C_2
REMARK                            x       y       z     vdW  Elec       q    Type
REMARK                         _______ _______ _______ _____ _____    ______ ____
ROOT
ATOM      1  C   UNL     1       3.862   2.033  19.776  0.00  0.00    +0.000 A 
ATOM      2  C   UNL     1       3.548   1.858  18.485  0.00  0.00    +0.000 A 
ATOM      3  N   UNL     1       2.265   1.967  18.028  0.00  0.00    +0.000 N 
ATOM      4  C   UNL     1       1.192   2.241  18.829  0.00  0.00    +0.000 A 
ATOM      5  O   UNL     1       0.052   2.312  18.383  0.00  0.00    +0.000 OA
ATOM      6  N   UNL     1       1.474   2.434  20.149  0.00  0.00    +0.000 N 
ATOM      7  C   UNL     1       2.726   2.411  20.696  0.00  0.00    +0.000 A 
ATOM      8  O   UNL     1       2.937   2.708  21.872  0.00  0.00    +0.000 OA
ATOM      9  H   UNL     1       2.054   1.815  17.048  0.00  0.00    +0.000 HD
ATOM     10  H   UNL     1       0.708   2.679  20.753  0.00  0.00    +0.000 HD
ENDROOT
BRANCH   1  11
ATOM     11  N   UNL     1       5.127   1.917  20.321  0.00  0.00    +0.000 N 
ATOM     12  H   UNL     1       5.703   2.748  20.242  0.00  0.00    +0.000 HD
ATOM     13  H   UNL     1       5.091   1.527  21.265  0.00  0.00    +0.000 HD
ENDBRANCH   1  11
TORSDOF 1
ENDMDL
MODEL 4
REMARK VINA RESULT:      -4.8      2.469      2.936
REMARK  Name = 
REMARK  1 active torsions:
REMARK  status: ('A' for Active; 'I' for Inactive)
REMARK    1  A    between atoms: N_1  and  C_2
REMARK                            x       y       z     vdW  Elec       q    Type
REMARK                         _______ _______ _______ _____ _____    ______ ____
ROOT
ATOM      1  C   UNL     1       7.490   5.853  18.938  0.00  0.00    +0.000 A 
ATOM      2  C   UNL     1       7.780   6.891  18.142  0.00  0.00    +0.000 A 
ATOM      3  N   UNL     1       7.039   7.185  17.032  0.00  0.00    +0.000 N 
ATOM      4  C   UNL     1       5.962   6.452  16.619  0.00  0.00    +0.000 A 
ATOM      5  O   UNL     1       5.334   6.737  15.606  0.00  0.00    +0.000 OA
ATOM      6  N   UNL     1       5.631   5.392  17.410  0.00  0.00    +0.000 N 
ATOM      7  C   UNL     1       6.264   5.050  18.572  0.00  0.00    +0.000 A 
ATOM      8  O   UNL     1       5.852   4.154  19.308  0.00  0.00    +0.000 OA
ATOM      9  H   UNL     1       7.290   7.969  16.439  0.00  0.00    +0.000 HD
ATOM     10  H   UNL     1       4.816   4.860  17.152  0.00  0.00    +0.000 HD
ENDROOT
BRANCH   1  11
ATOM     11  N   UNL     1       8.200   5.476  20.063  0.00  0.00    +0.000 N 
ATOM     12  H   UNL     1       7.648   5.400  20.910  0.00  0.00    +0.000 HD
ATOM     13  H   UNL     1       8.786   4.659  19.875  0.00  0.00    +0.000 HD
ENDBRANCH   1  11
TORSDOF 1
ENDMDL
MODEL 5
REMARK VINA RESULT:      -4.8      2.181      3.516
REMARK  Name = 
REMARK  1 active torsions:
REMARK  status: ('A' for Active; 'I' for Inactive)
REMARK    1  A    between atoms: N_1  and  C_2
REMARK                            x       y       z     vdW  Elec       q    Type
REMARK                         _______ _______ _______ _____ _____    ______ ____
ROOT
ATOM      1  C   UNL     1       6.693   5.924  17.200  0.00  0.00    +0.000 A 
ATOM      2  C   UNL     1       5.476   6.368  17.540  0.00  0.00    +0.000 A 
ATOM      3  N   UNL     1       4.642   5.653  18.353  0.00  0.00    +0.000 N 
ATOM      4  C   UNL     1       4.952   4.428  18.873  0.00  0.00    +0.000 A 
ATOM      5  O   UNL     1       4.169   3.808  19.583  0.00  0.00    +0.000 OA
ATOM      6  N   UNL     1       6.188   3.947  18.556  0.00  0.00    +0.000 N 
ATOM      7  C   UNL     1       7.120   4.608  17.806  0.00  0.00    +0.000 A 
ATOM      8  O   UNL     1       8.263   4.180  17.648  0.00  0.00    +0.000 OA
ATOM      9  H   UNL     1       3.720   6.006  18.582  0.00  0.00    +0.000 HD
ATOM     10  H   UNL     1       6.459   3.066  18.960  0.00  0.00    +0.000 HD
ENDROOT
BRANCH   1  11
ATOM     11  N   UNL     1       7.586   6.574  16.367  0.00  0.00    +0.000 N 
ATOM     12  H   UNL     1       8.121   7.313  16.809  0.00  0.00    +0.000 HD
ATOM     13  H   UNL     1       8.156   5.908  15.841  0.00  0.00    +0.000 HD
ENDBRANCH   1  11
TORSDOF 1
ENDMDL
MODEL 6
REMARK VINA RESULT:      -4.8      0.941      3.171
REMARK  Name = 
REMARK  1 active torsions:
REMARK  status: ('A' for Active; 'I' for Inactive)
REMARK    1  A    between atoms: N_1  and  C_2
REMARK                            x       y       z     vdW  Elec       q    Type
REMARK                         _______ _______ _______ _____ _____    ______ ____
ROOT
ATOM      1  C   UNL     1       5.853   4.217  15.073  0.00  0.00    +0.000 A 
ATOM      2  C   UNL     1       5.271   3.819  16.212  0.00  0.00    +0.000 A 
ATOM      3  N   UNL     1       5.863   3.994  17.432  0.00  0.00    +0.000 N 
ATOM      4  C   UNL     1       7.094   4.562  17.606  0.00  0.00    +0.000 A 
ATOM      5  O   UNL     1       7.600   4.684  18.715  0.00  0.00    +0.000 OA
ATOM      6  N   UNL     1       7.714   4.988  16.468  0.00  0.00    +0.000 N 
ATOM      7  C   UNL     1       7.183   4.920  15.211  0.00  0.00    +0.000 A 
ATOM      8  O   UNL     1       7.735   5.426  14.234  0.00  0.00    +0.000 OA
ATOM      9  H   UNL     1       5.406   3.670  18.276  0.00  0.00    +0.000 HD
ATOM     10  H   UNL     1       8.603   5.449  16.572  0.00  0.00    +0.000 HD
ENDROOT
BRANCH   1  11
ATOM     11  N   UNL     1       5.333   4.057  13.802  0.00  0.00    +0.000 N 
ATOM     12  H   UNL     1       4.450   3.561  13.762  0.00  0.00    +0.000 HD
ATOM     13  H   UNL     1       5.336   4.940  13.286  0.00  0.00    +0.000 HD
ENDBRANCH   1  11
TORSDOF 1
ENDMDL
MODEL 7
REMARK VINA RESULT:      -4.8      2.779      3.290
REMARK  Name = 
REMARK  1 active torsions:
REMARK  status: ('A' for Active; 'I' for Inactive)
REMARK    1  A    between atoms: N_1  and  C_2
REMARK                            x       y       z     vdW  Elec       q    Type
REMARK                         _______ _______ _______ _____ _____    ______ ____
ROOT
ATOM      1  C   UNL     1       6.963   5.359  17.968  0.00  0.00    +0.000 A 
ATOM      2  C   UNL     1       6.671   6.205  16.972  0.00  0.00    +0.000 A 
ATOM      3  N   UNL     1       7.161   7.480  16.933  0.00  0.00    +0.000 N 
ATOM      4  C   UNL     1       7.966   8.016  17.900  0.00  0.00    +0.000 A 
ATOM      5  O   UNL     1       8.370   9.172  17.839  0.00  0.00    +0.000 OA
ATOM      6  N   UNL     1       8.293   7.180  18.926  0.00  0.00    +0.000 N 
ATOM      7  C   UNL     1       7.910   5.872  19.027  0.00  0.00    +0.000 A 
ATOM      8  O   UNL     1       8.329   5.130  19.914  0.00  0.00    +0.000 OA
ATOM      9  H   UNL     1       6.911   8.104  16.175  0.00  0.00    +0.000 HD
ATOM     10  H   UNL     1       8.919   7.536  19.629  0.00  0.00    +0.000 HD
ENDROOT
BRANCH   1  11
ATOM     11  N   UNL     1       6.491   4.065  18.093  0.00  0.00    +0.000 N 
ATOM     12  H   UNL     1       6.362   3.572  17.216  0.00  0.00    +0.000 HD
ATOM     13  H   UNL     1       7.026   3.540  18.788  0.00  0.00    +0.000 HD
ENDBRANCH   1  11
TORSDOF 1
ENDMDL
MODEL 8
REMARK VINA RESULT:      -4.8      2.448      3.915
REMARK  Name = 
REMARK  1 active torsions:
REMARK  status: ('A' for Active; 'I' for Inactive)
REMARK    1  A    between atoms: N_1  and  C_2
REMARK                            x       y       z     vdW  Elec       q    Type
REMARK                         _______ _______ _______ _____ _____    ______ ____
ROOT
ATOM      1  C   UNL     1       6.322   6.177  17.130  0.00  0.00    +0.000 A 
ATOM      2  C   UNL     1       5.908   5.164  17.904  0.00  0.00    +0.000 A 
ATOM      3  N   UNL     1       6.510   4.864  19.093  0.00  0.00    +0.000 N 
ATOM      4  C   UNL     1       7.588   5.541  19.593  0.00  0.00    +0.000 A 
ATOM      5  O   UNL     1       8.113   5.229  20.656  0.00  0.00    +0.000 OA
ATOM      6  N   UNL     1       8.032   6.585  18.837  0.00  0.00    +0.000 N 
ATOM      7  C   UNL     1       7.463   7.007  17.669  0.00  0.00    +0.000 A 
ATOM      8  O   UNL     1       7.832   8.027  17.087  0.00  0.00    +0.000 OA
ATOM      9  H   UNL     1       6.186   4.083  19.651  0.00  0.00    +0.000 HD
ATOM     10  H   UNL     1       8.797   7.127  19.203  0.00  0.00    +0.000 HD
ENDROOT
BRANCH   1  11
ATOM     11  N   UNL     1       5.783   6.530  15.907  0.00  0.00    +0.000 N 
ATOM     12  H   UNL     1       6.062   7.443  15.566  0.00  0.00    +0.000 HD
ATOM     13  H   UNL     1       5.894   5.780  15.221  0.00  0.00    +0.000 HD
ENDBRANCH   1  11
TORSDOF 1
ENDMDL
MODEL 9
REMARK VINA RESULT:      -4.8      1.954      3.313
REMARK  Name = 
REMARK  1 active torsions:
REMARK  status: ('A' for Active; 'I' for Inactive)
REMARK    1  A    between atoms: N_1  and  C_2
REMARK                            x       y       z     vdW  Elec       q    Type
REMARK                         _______ _______ _______ _____ _____    ______ ____
ROOT
ATOM      1  C   UNL     1       6.899   5.041  15.642  0.00  0.00    +0.000 A 
ATOM      2  C   UNL     1       6.137   3.962  15.863  0.00  0.00    +0.000 A 
ATOM      3  N   UNL     1       5.641   3.663  17.101  0.00  0.00    +0.000 N 
ATOM      4  C   UNL     1       5.886   4.409  18.220  0.00  0.00    +0.000 A 
ATOM      5  O   UNL     1       5.439   4.097  19.318  0.00  0.00    +0.000 OA
ATOM      6  N   UNL     1       6.651   5.522  18.032  0.00  0.00    +0.000 N 
ATOM      7  C   UNL     1       7.141   5.944  16.828  0.00  0.00    +0.000 A 
ATOM      8  O   UNL     1       7.727   7.019  16.695  0.00  0.00    +0.000 OA
ATOM      9  H   UNL     1       5.080   2.831  17.243  0.00  0.00    +0.000 HD
ATOM     10  H   UNL     1       6.811   6.112  18.831  0.00  0.00    +0.000 HD
ENDROOT
BRANCH   1  11
ATOM     11  N   UNL     1       7.456   5.401  14.429  0.00  0.00    +0.000 N 
ATOM     12  H   UNL     1       8.019   4.682  13.988  0.00  0.00    +0.000 HD
ATOM     13  H   UNL     1       6.758   5.819  13.808  0.00  0.00    +0.000 HD
ENDBRANCH   1  11
TORSDOF 1
ENDMDL
