MODEL 1
REMARK VINA RESULT:      -6.2      0.000      0.000
REMARK  Name = 
REMARK  2 active torsions:
REMARK  status: ('A' for Active; 'I' for Inactive)
REMARK    1  A    between atoms: C_2  and  C_3
REMARK    2  A    between atoms: C_2  and  C_11
REMARK                            x       y       z     vdW  Elec       q    Type
REMARK                         _______ _______ _______ _____ _____    ______ ____
ROOT
ATOM      1  C   UNL     1       4.308   5.082  17.317  0.00  0.00    +0.000 A 
ATOM      2  C   UNL     1       4.330   3.680  17.195  0.00  0.00    +0.000 A 
ATOM      3  C   UNL     1       3.237   2.907  17.596  0.00  0.00    +0.000 A 
ATOM      4  C   UNL     1       2.104   3.525  18.110  0.00  0.00    +0.000 A 
ATOM      5 CL   UNL     1       0.759   2.573  18.597  0.00  0.00    +0.000 Cl
ATOM      6  C   UNL     1       2.055   4.910  18.232  0.00  0.00    +0.000 A 
ATOM      7  C   UNL     1       3.154   5.691  17.842  0.00  0.00    +0.000 A 
ATOM      8 CL   UNL     1       3.000   7.393  18.108  0.00  0.00    +0.000 Cl
ENDROOT
BRANCH   1  10
ATOM      9  O   UNL     1       5.470   6.359  15.714  0.00  0.00    +0.000 OA
ATOM     10  C   UNL     1       5.487   5.881  16.845  0.00  0.00    +0.000 C 
BRANCH  10  11
ATOM     11  C   UNL     1       6.685   6.004  17.777  0.00  0.00    +0.000 C 
ATOM     12 CL   UNL     1       7.723   4.576  17.555  0.00  0.00    +0.000 Cl
ATOM     13 CL   UNL     1       7.598   7.486  17.428  0.00  0.00    +0.000 Cl
ENDBRANCH  10  11
ENDBRANCH   1  10
TORSDOF 2
ENDMDL
MODEL 2
REMARK VINA RESULT:      -6.1      0.638      1.160
REMARK  Name = 
REMARK  2 active torsions:
REMARK  status: ('A' for Active; 'I' for Inactive)
REMARK    1  A    between atoms: C_2  and  C_3
REMARK    2  A    between atoms: C_2  and  C_11
REMARK                            x       y       z     vdW  Elec       q    Type
REMARK                         _______ _______ _______ _____ _____    ______ ____
ROOT
ATOM      1  C   UNL     1       4.405   5.145  17.170  0.00  0.00    +0.000 A 
ATOM      2  C   UNL     1       4.416   3.741  17.059  0.00  0.00    +0.000 A 
ATOM      3  C   UNL     1       3.332   2.977  17.497  0.00  0.00    +0.000 A 
ATOM      4  C   UNL     1       2.216   3.605  18.038  0.00  0.00    +0.000 A 
ATOM      5 CL   UNL     1       0.881   2.663  18.571  0.00  0.00    +0.000 Cl
ATOM      6  C   UNL     1       2.178   4.991  18.150  0.00  0.00    +0.000 A 
ATOM      7  C   UNL     1       3.269   5.763  17.723  0.00  0.00    +0.000 A 
ATOM      8 CL   UNL     1       3.131   7.468  17.979  0.00  0.00    +0.000 Cl
ENDROOT
BRANCH   1  10
ATOM      9  O   UNL     1       5.476   6.514  15.581  0.00  0.00    +0.000 OA
ATOM     10  C   UNL     1       5.574   5.933  16.658  0.00  0.00    +0.000 C 
BRANCH  10  11
ATOM     11  C   UNL     1       6.857   5.921  17.478  0.00  0.00    +0.000 C 
ATOM     12 CL   UNL     1       7.588   7.542  17.408  0.00  0.00    +0.000 Cl
ATOM     13 CL   UNL     1       6.519   5.473  19.162  0.00  0.00    +0.000 Cl
ENDBRANCH  10  11
ENDBRANCH   1  10
TORSDOF 2
ENDMDL
MODEL 3
REMARK VINA RESULT:      -6.0      2.565      5.157
REMARK  Name = 
REMARK  2 active torsions:
REMARK  status: ('A' for Active; 'I' for Inactive)
REMARK    1  A    between atoms: C_2  and  C_3
REMARK    2  A    between atoms: C_2  and  C_11
REMARK                            x       y       z     vdW  Elec       q    Type
REMARK                         _______ _______ _______ _____ _____    ______ ____
ROOT
ATOM      1  C   UNL     1       3.125   4.468  18.533  0.00  0.00    +0.000 A 
ATOM      2  C   UNL     1       3.164   5.652  17.772  0.00  0.00    +0.000 A 
ATOM      3  C   UNL     1       4.378   6.285  17.491  0.00  0.00    +0.000 A 
ATOM      4  C   UNL     1       5.568   5.736  17.952  0.00  0.00    +0.000 A 
ATOM      5 CL   UNL     1       7.060   6.512  17.599  0.00  0.00    +0.000 Cl
ATOM      6  C   UNL     1       5.554   4.561  18.698  0.00  0.00    +0.000 A 
ATOM      7  C   UNL     1       4.338   3.928  18.995  0.00  0.00    +0.000 A 
ATOM      8 CL   UNL     1       4.447   2.517  19.988  0.00  0.00    +0.000 Cl
ENDROOT
BRANCH   1  10
ATOM      9  O   UNL     1       1.345   3.044  17.935  0.00  0.00    +0.000 OA
ATOM     10  C   UNL     1       1.805   3.800  18.787  0.00  0.00    +0.000 C 
BRANCH  10  11
ATOM     11  C   UNL     1       1.065   4.147  20.071  0.00  0.00    +0.000 C 
ATOM     12 CL   UNL     1       1.186   2.764  21.184  0.00  0.00    +0.000 Cl
ATOM     13 CL   UNL     1       1.758   5.600  20.820  0.00  0.00    +0.000 Cl
ENDBRANCH  10  11
ENDBRANCH   1  10
TORSDOF 2
ENDMDL
MODEL 4
REMARK VINA RESULT:      -5.9      0.845      1.100
REMARK  Name = 
REMARK  2 active torsions:
REMARK  status: ('A' for Active; 'I' for Inactive)
REMARK    1  A    between atoms: C_2  and  C_3
REMARK    2  A    between atoms: C_2  and  C_11
REMARK                            x       y       z     vdW  Elec       q    Type
REMARK                         _______ _______ _______ _____ _____    ______ ____
ROOT
ATOM      1  C   UNL     1       4.175   5.091  17.237  0.00  0.00    +0.000 A 
ATOM      2  C   UNL     1       4.190   3.694  17.066  0.00  0.00    +0.000 A 
ATOM      3  C   UNL     1       3.125   2.905  17.508  0.00  0.00    +0.000 A 
ATOM      4  C   UNL     1       2.025   3.502  18.110  0.00  0.00    +0.000 A 
ATOM      5 CL   UNL     1       0.713   2.531  18.647  0.00  0.00    +0.000 Cl
ATOM      6  C   UNL     1       1.983   4.883  18.282  0.00  0.00    +0.000 A 
ATOM      7  C   UNL     1       3.055   5.678  17.852  0.00  0.00    +0.000 A 
ATOM      8 CL   UNL     1       2.917   7.370  18.184  0.00  0.00    +0.000 Cl
ENDROOT
BRANCH   1  10
ATOM      9  O   UNL     1       5.166   6.585  15.708  0.00  0.00    +0.000 OA
ATOM     10  C   UNL     1       5.323   5.908  16.720  0.00  0.00    +0.000 C 
BRANCH  10  11
ATOM     11  C   UNL     1       6.657   5.805  17.447  0.00  0.00    +0.000 C 
ATOM     12 CL   UNL     1       6.339   5.591  19.185  0.00  0.00    +0.000 Cl
ATOM     13 CL   UNL     1       7.604   4.438  16.825  0.00  0.00    +0.000 Cl
ENDBRANCH  10  11
ENDBRANCH   1  10
TORSDOF 2
ENDMDL
MODEL 5
REMARK VINA RESULT:      -5.9      1.631      1.996
REMARK  Name = 
REMARK  2 active torsions:
REMARK  status: ('A' for Active; 'I' for Inactive)
REMARK    1  A    between atoms: C_2  and  C_3
REMARK    2  A    between atoms: C_2  and  C_11
REMARK                            x       y       z     vdW  Elec       q    Type
REMARK                         _______ _______ _______ _____ _____    ______ ____
ROOT
ATOM      1  C   UNL     1       4.667   4.588  18.814  0.00  0.00    +0.000 A 
ATOM      2  C   UNL     1       4.562   3.240  19.206  0.00  0.00    +0.000 A 
ATOM      3  C   UNL     1       3.327   2.586  19.203  0.00  0.00    +0.000 A 
ATOM      4  C   UNL     1       2.185   3.263  18.794  0.00  0.00    +0.000 A 
ATOM      5 CL   UNL     1       0.669   2.455  18.784  0.00  0.00    +0.000 Cl
ATOM      6  C   UNL     1       2.266   4.593  18.393  0.00  0.00    +0.000 A 
ATOM      7  C   UNL     1       3.501   5.259  18.405  0.00  0.00    +0.000 A 
ATOM      8 CL   UNL     1       3.460   6.928  17.953  0.00  0.00    +0.000 Cl
ENDROOT
BRANCH   1  10
ATOM      9  O   UNL     1       6.627   5.377  19.855  0.00  0.00    +0.000 OA
ATOM     10  C   UNL     1       6.015   5.247  18.799  0.00  0.00    +0.000 C 
BRANCH  10  11
ATOM     11  C   UNL     1       6.532   5.785  17.472  0.00  0.00    +0.000 C 
ATOM     12 CL   UNL     1       7.671   7.110  17.804  0.00  0.00    +0.000 Cl
ATOM     13 CL   UNL     1       7.338   4.500  16.549  0.00  0.00    +0.000 Cl
ENDBRANCH  10  11
ENDBRANCH   1  10
TORSDOF 2
ENDMDL
MODEL 6
REMARK VINA RESULT:      -5.9      1.453      2.035
REMARK  Name = 
REMARK  2 active torsions:
REMARK  status: ('A' for Active; 'I' for Inactive)
REMARK    1  A    between atoms: C_2  and  C_3
REMARK    2  A    between atoms: C_2  and  C_11
REMARK                            x       y       z     vdW  Elec       q    Type
REMARK                         _______ _______ _______ _____ _____    ______ ____
ROOT
ATOM      1  C   UNL     1       4.477   5.543  17.240  0.00  0.00    +0.000 A 
ATOM      2  C   UNL     1       3.442   6.049  18.050  0.00  0.00    +0.000 A 
ATOM      3  C   UNL     1       2.360   5.245  18.418  0.00  0.00    +0.000 A 
ATOM      4  C   UNL     1       2.305   3.923  17.995  0.00  0.00    +0.000 A 
ATOM      5 CL   UNL     1       0.976   2.934  18.455  0.00  0.00    +0.000 Cl
ATOM      6  C   UNL     1       3.320   3.398  17.201  0.00  0.00    +0.000 A 
ATOM      7  C   UNL     1       4.403   4.203  16.818  0.00  0.00    +0.000 A 
ATOM      8 CL   UNL     1       5.563   3.458  15.774  0.00  0.00    +0.000 Cl
ENDROOT
BRANCH   1  10
ATOM      9  O   UNL     1       5.697   6.923  15.771  0.00  0.00    +0.000 OA
ATOM     10  C   UNL     1       5.639   6.426  16.892  0.00  0.00    +0.000 C 
BRANCH  10  11
ATOM     11  C   UNL     1       6.731   6.613  17.937  0.00  0.00    +0.000 C 
ATOM     12 CL   UNL     1       7.679   5.111  18.038  0.00  0.00    +0.000 Cl
ATOM     13 CL   UNL     1       7.784   7.975  17.502  0.00  0.00    +0.000 Cl
ENDBRANCH  10  11
ENDBRANCH   1  10
TORSDOF 2
ENDMDL
MODEL 7
REMARK VINA RESULT:      -5.8      1.827      1.889
REMARK  Name = 
REMARK  2 active torsions:
REMARK  status: ('A' for Active; 'I' for Inactive)
REMARK    1  A    between atoms: C_2  and  C_3
REMARK    2  A    between atoms: C_2  and  C_11
REMARK                            x       y       z     vdW  Elec       q    Type
REMARK                         _______ _______ _______ _____ _____    ______ ____
ROOT
ATOM      1  C   UNL     1       4.789   4.324  18.801  0.00  0.00    +0.000 A 
ATOM      2  C   UNL     1       4.559   3.024  19.288  0.00  0.00    +0.000 A 
ATOM      3  C   UNL     1       3.277   2.468  19.272  0.00  0.00    +0.000 A 
ATOM      4  C   UNL     1       2.213   3.197  18.756  0.00  0.00    +0.000 A 
ATOM      5 CL   UNL     1       0.638   2.509  18.731  0.00  0.00    +0.000 Cl
ATOM      6  C   UNL     1       2.418   4.481  18.261  0.00  0.00    +0.000 A 
ATOM      7  C   UNL     1       3.700   5.049  18.286  0.00  0.00    +0.000 A 
ATOM      8 CL   UNL     1       3.814   6.676  17.708  0.00  0.00    +0.000 Cl
ENDROOT
BRANCH   1  10
ATOM      9  O   UNL     1       6.634   5.358  19.841  0.00  0.00    +0.000 OA
ATOM     10  C   UNL     1       6.185   4.875  18.805  0.00  0.00    +0.000 C 
BRANCH  10  11
ATOM     11  C   UNL     1       6.960   4.865  17.494  0.00  0.00    +0.000 C 
ATOM     12 CL   UNL     1       5.978   4.037  16.263  0.00  0.00    +0.000 Cl
ATOM     13 CL   UNL     1       7.327   6.522  16.973  0.00  0.00    +0.000 Cl
ENDBRANCH  10  11
ENDBRANCH   1  10
TORSDOF 2
ENDMDL
MODEL 8
REMARK VINA RESULT:      -5.8      1.409      2.375
REMARK  Name = 
REMARK  2 active torsions:
REMARK  status: ('A' for Active; 'I' for Inactive)
REMARK    1  A    between atoms: C_2  and  C_3
REMARK    2  A    between atoms: C_2  and  C_11
REMARK                            x       y       z     vdW  Elec       q    Type
REMARK                         _______ _______ _______ _____ _____    ______ ____
ROOT
ATOM      1  C   UNL     1       4.546   5.526  17.074  0.00  0.00    +0.000 A 
ATOM      2  C   UNL     1       3.500   6.080  17.836  0.00  0.00    +0.000 A 
ATOM      3  C   UNL     1       2.426   5.293  18.261  0.00  0.00    +0.000 A 
ATOM      4  C   UNL     1       2.392   3.941  17.944  0.00  0.00    +0.000 A 
ATOM      5 CL   UNL     1       1.074   2.973  18.474  0.00  0.00    +0.000 Cl
ATOM      6  C   UNL     1       3.419   3.369  17.200  0.00  0.00    +0.000 A 
ATOM      7  C   UNL     1       4.493   4.156  16.760  0.00  0.00    +0.000 A 
ATOM      8 CL   UNL     1       5.670   3.347  15.784  0.00  0.00    +0.000 Cl
ENDROOT
BRANCH   1  10
ATOM      9  O   UNL     1       5.576   7.125  15.682  0.00  0.00    +0.000 OA
ATOM     10  C   UNL     1       5.698   6.396  16.663  0.00  0.00    +0.000 C 
BRANCH  10  11
ATOM     11  C   UNL     1       6.995   6.282  17.452  0.00  0.00    +0.000 C 
ATOM     12 CL   UNL     1       7.725   7.900  17.577  0.00  0.00    +0.000 Cl
ATOM     13 CL   UNL     1       6.686   5.622  19.071  0.00  0.00    +0.000 Cl
ENDBRANCH  10  11
ENDBRANCH   1  10
TORSDOF 2
ENDMDL
MODEL 9
REMARK VINA RESULT:      -5.8      1.806      4.904
REMARK  Name = 
REMARK  2 active torsions:
REMARK  status: ('A' for Active; 'I' for Inactive)
REMARK    1  A    between atoms: C_2  and  C_3
REMARK    2  A    between atoms: C_2  and  C_11
REMARK                            x       y       z     vdW  Elec       q    Type
REMARK                         _______ _______ _______ _____ _____    ______ ____
ROOT
ATOM      1  C   UNL     1       3.281   4.809  17.673  0.00  0.00    +0.000 A 
ATOM      2  C   UNL     1       4.373   3.988  17.333  0.00  0.00    +0.000 A 
ATOM      3  C   UNL     1       5.643   4.533  17.126  0.00  0.00    +0.000 A 
ATOM      4  C   UNL     1       5.841   5.901  17.270  0.00  0.00    +0.000 A 
ATOM      5 CL   UNL     1       7.406   6.567  17.021  0.00  0.00    +0.000 Cl
ATOM      6  C   UNL     1       4.779   6.730  17.615  0.00  0.00    +0.000 A 
ATOM      7  C   UNL     1       3.499   6.191  17.812  0.00  0.00    +0.000 A 
ATOM      8 CL   UNL     1       2.248   7.332  18.166  0.00  0.00    +0.000 Cl
ENDROOT
BRANCH   1  10
ATOM      9  O   UNL     1       1.039   4.359  17.103  0.00  0.00    +0.000 OA
ATOM     10  C   UNL     1       1.939   4.183  17.920  0.00  0.00    +0.000 C 
BRANCH  10  11
ATOM     11  C   UNL     1       1.740   3.408  19.215  0.00  0.00    +0.000 C 
ATOM     12 CL   UNL     1       1.198   4.542  20.475  0.00  0.00    +0.000 Cl
ATOM     13 CL   UNL     1       0.540   2.119  18.994  0.00  0.00    +0.000 Cl
ENDBRANCH  10  11
ENDBRANCH   1  10
TORSDOF 2
ENDMDL
