MODEL 1
REMARK VINA RESULT:      -7.0      0.000      0.000
REMARK  Name = 
REMARK  7 active torsions:
REMARK  status: ('A' for Active; 'I' for Inactive)
REMARK    1  A    between atoms: C_1  and  C_2
REMARK    2  A    between atoms: C_2  and  O_3
REMARK    3  A    between atoms: O_3  and  C_4
REMARK    4  A    between atoms: C_11  and  N_12
REMARK    5  A    between atoms: C_15  and  C_16
REMARK    6  A    between atoms: C_22  and  C_23
REMARK    7  A    between atoms: C_22  and  C_24
REMARK                            x       y       z     vdW  Elec       q    Type
REMARK                         _______ _______ _______ _____ _____    ______ ____
ROOT
ATOM      1  C   UNL     1       4.740   3.947  17.109  0.00  0.00    +0.000 C 
ATOM      2  O   UNL     1       4.363   3.182  17.988  0.00  0.00    +0.000 OA
ATOM      3  N   UNL     1       4.474   5.270  16.971  0.00  0.00    +0.000 N 
ATOM      4  C   UNL     1       3.722   6.045  17.847  0.00  0.00    +0.000 A 
ATOM      5  C   UNL     1       3.398   7.315  17.423  0.00  0.00    +0.000 A 
ATOM      6  C   UNL     1       2.542   8.097  18.204  0.00  0.00    +0.000 A 
ATOM      7  C   UNL     1       2.071   7.630  19.418  0.00  0.00    +0.000 A 
ATOM      8  C   UNL     1       2.535   6.357  19.802  0.00  0.00    +0.000 A 
ATOM      9  N   UNL     1       3.322   5.573  19.033  0.00  0.00    +0.000 NA
ATOM     10  N   UNL     1       1.163   8.322  20.248  0.00  0.00    +0.000 NA
ATOM     11  C   UNL     1       0.691   9.513  20.006  0.00  0.00    +0.000 C 
ATOM     12  C   UNL     1       1.021  10.393  18.773  0.00  0.00    +0.000 C 
ATOM     13  C   UNL     1       1.845  11.617  19.204  0.00  0.00    +0.000 C 
ATOM     14  C   UNL     1      -0.238  10.699  17.940  0.00  0.00    +0.000 C 
ATOM     15  S   UNL     1       2.103   9.641  17.500  0.00  0.00    +0.000 S 
ATOM     16  H   UNL     1       4.839   5.686  16.127  0.00  0.00    +0.000 HD
ENDROOT
BRANCH  11  17
ATOM     17  C   UNL     1      -0.216  10.095  21.107  0.00  0.00    +0.000 A 
ATOM     18  C   UNL     1      -0.255   9.467  22.364  0.00  0.00    +0.000 A 
ATOM     19  C   UNL     1      -0.943  10.045  23.441  0.00  0.00    +0.000 A 
ATOM     20  C   UNL     1      -1.613  11.256  23.282  0.00  0.00    +0.000 A 
ATOM     21  C   UNL     1      -1.629  11.866  22.038  0.00  0.00    +0.000 A 
ATOM     22  C   UNL     1      -0.952  11.281  20.965  0.00  0.00    +0.000 A 
ENDBRANCH  11  17
BRANCH   8  23
ATOM     23  N   UNL     1       2.256   5.834  21.071  0.00  0.00    +0.000 N 
ATOM     24  H   UNL     1       3.040   5.286  21.406  0.00  0.00    +0.000 HD
ATOM     25  H   UNL     1       1.996   6.614  21.671  0.00  0.00    +0.000 HD
ENDBRANCH   8  23
BRANCH   1  26
ATOM     26  O   UNL     1       5.539   3.577  16.072  0.00  0.00    +0.000 OA
BRANCH  26  28
ATOM     27  C   UNL     1       6.201   3.955  13.799  0.00  0.00    +0.000 C 
ATOM     28  C   UNL     1       5.782   4.607  15.104  0.00  0.00    +0.000 C 
ENDBRANCH  26  28
ENDBRANCH   1  26
TORSDOF 4
ENDMDL
MODEL 2
REMARK VINA RESULT:      -7.0      2.236      3.447
REMARK  Name = 
REMARK  7 active torsions:
REMARK  status: ('A' for Active; 'I' for Inactive)
REMARK    1  A    between atoms: C_1  and  C_2
REMARK    2  A    between atoms: C_2  and  O_3
REMARK    3  A    between atoms: O_3  and  C_4
REMARK    4  A    between atoms: C_11  and  N_12
REMARK    5  A    between atoms: C_15  and  C_16
REMARK    6  A    between atoms: C_22  and  C_23
REMARK    7  A    between atoms: C_22  and  C_24
REMARK                            x       y       z     vdW  Elec       q    Type
REMARK                         _______ _______ _______ _____ _____    ______ ____
ROOT
ATOM      1  C   UNL     1       3.048   6.426  18.550  0.00  0.00    +0.000 C 
ATOM      2  O   UNL     1       3.149   5.898  19.649  0.00  0.00    +0.000 OA
ATOM      3  N   UNL     1       2.436   7.592  18.227  0.00  0.00    +0.000 N 
ATOM      4  C   UNL     1       1.809   8.456  19.118  0.00  0.00    +0.000 A 
ATOM      5  C   UNL     1       1.071   9.481  18.567  0.00  0.00    +0.000 A 
ATOM      6  C   UNL     1       0.319  10.307  19.407  0.00  0.00    +0.000 A 
ATOM      7  C   UNL     1       0.358  10.142  20.780  0.00  0.00    +0.000 A 
ATOM      8  C   UNL     1       1.214   9.125  21.246  0.00  0.00    +0.000 A 
ATOM      9  N   UNL     1       1.907   8.289  20.441  0.00  0.00    +0.000 NA
ATOM     10  N   UNL     1      -0.405  10.890  21.702  0.00  0.00    +0.000 NA
ATOM     11  C   UNL     1      -1.206  11.868  21.386  0.00  0.00    +0.000 C 
ATOM     12  C   UNL     1      -1.483  12.396  19.955  0.00  0.00    +0.000 C 
ATOM     13  C   UNL     1      -0.898  13.808  19.790  0.00  0.00    +0.000 C 
ATOM     14  C   UNL     1      -2.967  12.243  19.570  0.00  0.00    +0.000 C 
ATOM     15  S   UNL     1      -0.676  11.492  18.581  0.00  0.00    +0.000 S 
ATOM     16  H   UNL     1       2.420   7.800  17.240  0.00  0.00    +0.000 HD
ENDROOT
BRANCH  11  17
ATOM     17  C   UNL     1      -1.862  12.590  22.578  0.00  0.00    +0.000 A 
ATOM     18  C   UNL     1      -1.198  13.681  23.166  0.00  0.00    +0.000 A 
ATOM     19  C   UNL     1      -1.822  14.463  24.150  0.00  0.00    +0.000 A 
ATOM     20  C   UNL     1      -3.117  14.167  24.570  0.00  0.00    +0.000 A 
ATOM     21  C   UNL     1      -3.769  13.067  24.040  0.00  0.00    +0.000 A 
ATOM     22  C   UNL     1      -3.140  12.284  23.069  0.00  0.00    +0.000 A 
ENDBRANCH  11  17
BRANCH   8  23
ATOM     23  N   UNL     1       1.461   8.954  22.614  0.00  0.00    +0.000 N 
ATOM     24  H   UNL     1       2.263   9.504  22.898  0.00  0.00    +0.000 HD
ATOM     25  H   UNL     1       0.599   9.171  23.109  0.00  0.00    +0.000 HD
ENDBRANCH   8  23
BRANCH   1  26
ATOM     26  O   UNL     1       3.571   5.906  17.406  0.00  0.00    +0.000 OA
BRANCH  26  28
ATOM     27  C   UNL     1       5.324   5.806  15.773  0.00  0.00    +0.000 C 
ATOM     28  C   UNL     1       4.674   6.642  16.861  0.00  0.00    +0.000 C 
ENDBRANCH  26  28
ENDBRANCH   1  26
TORSDOF 4
ENDMDL
MODEL 3
REMARK VINA RESULT:      -6.9      3.556      8.685
REMARK  Name = 
REMARK  7 active torsions:
REMARK  status: ('A' for Active; 'I' for Inactive)
REMARK    1  A    between atoms: C_1  and  C_2
REMARK    2  A    between atoms: C_2  and  O_3
REMARK    3  A    between atoms: O_3  and  C_4
REMARK    4  A    between atoms: C_11  and  N_12
REMARK    5  A    between atoms: C_15  and  C_16
REMARK    6  A    between atoms: C_22  and  C_23
REMARK    7  A    between atoms: C_22  and  C_24
REMARK                            x       y       z     vdW  Elec       q    Type
REMARK                         _______ _______ _______ _____ _____    ______ ____
ROOT
ATOM      1  C   UNL     1      -0.830  10.736  21.677  0.00  0.00    +0.000 C 
ATOM      2  O   UNL     1      -0.818  11.488  20.712  0.00  0.00    +0.000 OA
ATOM      3  N   UNL     1      -0.175   9.560  21.840  0.00  0.00    +0.000 N 
ATOM      4  C   UNL     1       0.691   8.977  20.921  0.00  0.00    +0.000 A 
ATOM      5  C   UNL     1       1.093   7.687  21.186  0.00  0.00    +0.000 A 
ATOM      6  C   UNL     1       1.863   7.004  20.240  0.00  0.00    +0.000 A 
ATOM      7  C   UNL     1       2.271   7.631  19.076  0.00  0.00    +0.000 A 
ATOM      8  C   UNL     1       1.883   8.979  18.944  0.00  0.00    +0.000 A 
ATOM      9  N   UNL     1       1.098   9.633  19.828  0.00  0.00    +0.000 NA
ATOM     10  N   UNL     1       3.002   7.010  18.041  0.00  0.00    +0.000 NA
ATOM     11  C   UNL     1       3.434   5.781  18.068  0.00  0.00    +0.000 C 
ATOM     12  C   UNL     1       3.230   4.766  19.223  0.00  0.00    +0.000 C 
ATOM     13  C   UNL     1       4.574   4.469  19.908  0.00  0.00    +0.000 C 
ATOM     14  C   UNL     1       2.433   3.532  18.760  0.00  0.00    +0.000 C 
ATOM     15  S   UNL     1       2.205   5.330  20.633  0.00  0.00    +0.000 S 
ATOM     16  H   UNL     1      -0.388   9.075  22.698  0.00  0.00    +0.000 HD
ENDROOT
BRANCH  11  17
ATOM     17  C   UNL     1       4.286   5.358  16.856  0.00  0.00    +0.000 A 
ATOM     18  C   UNL     1       4.941   6.347  16.103  0.00  0.00    +0.000 A 
ATOM     19  C   UNL     1       5.848   6.003  15.089  0.00  0.00    +0.000 A 
ATOM     20  C   UNL     1       6.111   4.666  14.803  0.00  0.00    +0.000 A 
ATOM     21  C   UNL     1       5.438   3.676  15.499  0.00  0.00    +0.000 A 
ATOM     22  C   UNL     1       4.527   4.023  16.500  0.00  0.00    +0.000 A 
ENDBRANCH  11  17
BRANCH   8  23
ATOM     23  N   UNL     1       2.356   9.771  17.890  0.00  0.00    +0.000 N 
ATOM     24  H   UNL     1       3.274  10.139  18.110  0.00  0.00    +0.000 HD
ATOM     25  H   UNL     1       2.315   9.208  17.043  0.00  0.00    +0.000 HD
ENDBRANCH   8  23
BRANCH   1  26
ATOM     26  O   UNL     1      -1.537  10.974  22.815  0.00  0.00    +0.000 OA
BRANCH  26  28
ATOM     27  C   UNL     1      -3.297  12.482  23.430  0.00  0.00    +0.000 C 
ATOM     28  C   UNL     1      -1.829  12.355  23.064  0.00  0.00    +0.000 C 
ENDBRANCH  26  28
ENDBRANCH   1  26
TORSDOF 4
ENDMDL
MODEL 4
REMARK VINA RESULT:      -6.8      3.375      8.711
REMARK  Name = 
REMARK  7 active torsions:
REMARK  status: ('A' for Active; 'I' for Inactive)
REMARK    1  A    between atoms: C_1  and  C_2
REMARK    2  A    between atoms: C_2  and  O_3
REMARK    3  A    between atoms: O_3  and  C_4
REMARK    4  A    between atoms: C_11  and  N_12
REMARK    5  A    between atoms: C_15  and  C_16
REMARK    6  A    between atoms: C_22  and  C_23
REMARK    7  A    between atoms: C_22  and  C_24
REMARK                            x       y       z     vdW  Elec       q    Type
REMARK                         _______ _______ _______ _____ _____    ______ ____
ROOT
ATOM      1  C   UNL     1      -0.422   9.699  21.332  0.00  0.00    +0.000 C 
ATOM      2  O   UNL     1      -0.533  10.476  20.394  0.00  0.00    +0.000 OA
ATOM      3  N   UNL     1       0.372   8.604  21.433  0.00  0.00    +0.000 N 
ATOM      4  C   UNL     1       1.266   8.156  20.467  0.00  0.00    +0.000 A 
ATOM      5  C   UNL     1       1.826   6.915  20.674  0.00  0.00    +0.000 A 
ATOM      6  C   UNL     1       2.636   6.358  19.680  0.00  0.00    +0.000 A 
ATOM      7  C   UNL     1       2.925   7.064  18.526  0.00  0.00    +0.000 A 
ATOM      8  C   UNL     1       2.378   8.360  18.454  0.00  0.00    +0.000 A 
ATOM      9  N   UNL     1       1.554   8.889  19.386  0.00  0.00    +0.000 NA
ATOM     10  N   UNL     1       3.686   6.566  17.447  0.00  0.00    +0.000 NA
ATOM     11  C   UNL     1       4.260   5.397  17.417  0.00  0.00    +0.000 C 
ATOM     12  C   UNL     1       4.219   4.330  18.542  0.00  0.00    +0.000 C 
ATOM     13  C   UNL     1       5.612   4.173  19.173  0.00  0.00    +0.000 C 
ATOM     14  C   UNL     1       3.555   3.025  18.062  0.00  0.00    +0.000 C 
ATOM     15  S   UNL     1       3.186   4.724  20.003  0.00  0.00    +0.000 S 
ATOM     16  H   UNL     1       0.249   8.071  22.280  0.00  0.00    +0.000 HD
ENDROOT
BRANCH  11  17
ATOM     17  C   UNL     1       5.112   5.115  16.165  0.00  0.00    +0.000 A 
ATOM     18  C   UNL     1       6.452   5.538  16.140  0.00  0.00    +0.000 A 
ATOM     19  C   UNL     1       7.307   5.171  15.090  0.00  0.00    +0.000 A 
ATOM     20  C   UNL     1       6.839   4.383  14.041  0.00  0.00    +0.000 A 
ATOM     21  C   UNL     1       5.508   3.998  14.021  0.00  0.00    +0.000 A 
ATOM     22  C   UNL     1       4.657   4.375  15.063  0.00  0.00    +0.000 A 
ENDBRANCH  11  17
BRANCH   8  23
ATOM     23  N   UNL     1       2.716   9.234  17.413  0.00  0.00    +0.000 N 
ATOM     24  H   UNL     1       1.924   9.370  16.795  0.00  0.00    +0.000 HD
ATOM     25  H   UNL     1       3.076  10.087  17.836  0.00  0.00    +0.000 HD
ENDBRANCH   8  23
BRANCH   1  26
ATOM     26  O   UNL     1      -1.111   9.815  22.501  0.00  0.00    +0.000 OA
BRANCH  26  28
ATOM     27  C   UNL     1      -2.293  11.813  23.102  0.00  0.00    +0.000 C 
ATOM     28  C   UNL     1      -0.965  11.080  23.160  0.00  0.00    +0.000 C 
ENDBRANCH  26  28
ENDBRANCH   1  26
TORSDOF 4
ENDMDL
MODEL 5
REMARK VINA RESULT:      -6.8      2.135      3.326
REMARK  Name = 
REMARK  7 active torsions:
REMARK  status: ('A' for Active; 'I' for Inactive)
REMARK    1  A    between atoms: C_1  and  C_2
REMARK    2  A    between atoms: C_2  and  O_3
REMARK    3  A    between atoms: O_3  and  C_4
REMARK    4  A    between atoms: C_11  and  N_12
REMARK    5  A    between atoms: C_15  and  C_16
REMARK    6  A    between atoms: C_22  and  C_23
REMARK    7  A    between atoms: C_22  and  C_24
REMARK                            x       y       z     vdW  Elec       q    Type
REMARK                         _______ _______ _______ _____ _____    ______ ____
ROOT
ATOM      1  C   UNL     1       3.034   6.012  18.714  0.00  0.00    +0.000 C 
ATOM      2  O   UNL     1       3.124   5.582  19.856  0.00  0.00    +0.000 OA
ATOM      3  N   UNL     1       2.454   7.161  18.287  0.00  0.00    +0.000 N 
ATOM      4  C   UNL     1       1.855   8.120  19.098  0.00  0.00    +0.000 A 
ATOM      5  C   UNL     1       1.144   9.111  18.457  0.00  0.00    +0.000 A 
ATOM      6  C   UNL     1       0.418  10.031  19.220  0.00  0.00    +0.000 A 
ATOM      7  C   UNL     1       0.458   9.989  20.602  0.00  0.00    +0.000 A 
ATOM      8  C   UNL     1       1.286   8.994  21.157  0.00  0.00    +0.000 A 
ATOM      9  N   UNL     1       1.953   8.070  20.431  0.00  0.00    +0.000 NA
ATOM     10  N   UNL     1      -0.281  10.838  21.454  0.00  0.00    +0.000 NA
ATOM     11  C   UNL     1      -1.055  11.806  21.052  0.00  0.00    +0.000 C 
ATOM     12  C   UNL     1      -1.322  12.211  19.579  0.00  0.00    +0.000 C 
ATOM     13  C   UNL     1      -0.698  13.585  19.288  0.00  0.00    +0.000 C 
ATOM     14  C   UNL     1      -2.812  12.065  19.211  0.00  0.00    +0.000 C 
ATOM     15  S   UNL     1      -0.546  11.164  18.292  0.00  0.00    +0.000 S 
ATOM     16  H   UNL     1       2.441   7.280  17.286  0.00  0.00    +0.000 HD
ENDROOT
BRANCH  11  17
ATOM     17  C   UNL     1      -1.687  12.651  22.175  0.00  0.00    +0.000 A 
ATOM     18  C   UNL     1      -2.960  12.303  22.658  0.00  0.00    +0.000 A 
ATOM     19  C   UNL     1      -3.508  12.945  23.779  0.00  0.00    +0.000 A 
ATOM     20  C   UNL     1      -2.800  13.949  24.435  0.00  0.00    +0.000 A 
ATOM     21  C   UNL     1      -1.565  14.340  23.944  0.00  0.00    +0.000 A 
ATOM     22  C   UNL     1      -1.028  13.708  22.821  0.00  0.00    +0.000 A 
ENDBRANCH  11  17
BRANCH   8  23
ATOM     23  N   UNL     1       1.533   8.940  22.535  0.00  0.00    +0.000 N 
ATOM     24  H   UNL     1       2.463   8.579  22.712  0.00  0.00    +0.000 HD
ATOM     25  H   UNL     1       1.358   9.868  22.913  0.00  0.00    +0.000 HD
ENDBRANCH   8  23
BRANCH   1  26
ATOM     26  O   UNL     1       3.538   5.376  17.621  0.00  0.00    +0.000 OA
BRANCH  26  28
ATOM     27  C   UNL     1       2.464   3.267  17.242  0.00  0.00    +0.000 C 
ATOM     28  C   UNL     1       3.705   3.960  17.773  0.00  0.00    +0.000 C 
ENDBRANCH  26  28
ENDBRANCH   1  26
TORSDOF 4
ENDMDL
MODEL 6
REMARK VINA RESULT:      -6.6      0.292      1.000
REMARK  Name = 
REMARK  7 active torsions:
REMARK  status: ('A' for Active; 'I' for Inactive)
REMARK    1  A    between atoms: C_1  and  C_2
REMARK    2  A    between atoms: C_2  and  O_3
REMARK    3  A    between atoms: O_3  and  C_4
REMARK    4  A    between atoms: C_11  and  N_12
REMARK    5  A    between atoms: C_15  and  C_16
REMARK    6  A    between atoms: C_22  and  C_23
REMARK    7  A    between atoms: C_22  and  C_24
REMARK                            x       y       z     vdW  Elec       q    Type
REMARK                         _______ _______ _______ _____ _____    ______ ____
ROOT
ATOM      1  C   UNL     1       4.435   3.998  17.197  0.00  0.00    +0.000 C 
ATOM      2  O   UNL     1       4.062   3.265  18.103  0.00  0.00    +0.000 OA
ATOM      3  N   UNL     1       4.216   5.327  17.041  0.00  0.00    +0.000 N 
ATOM      4  C   UNL     1       3.526   6.147  17.928  0.00  0.00    +0.000 A 
ATOM      5  C   UNL     1       3.236   7.421  17.490  0.00  0.00    +0.000 A 
ATOM      6  C   UNL     1       2.439   8.250  18.285  0.00  0.00    +0.000 A 
ATOM      7  C   UNL     1       1.995   7.825  19.524  0.00  0.00    +0.000 A 
ATOM      8  C   UNL     1       2.423   6.542  19.917  0.00  0.00    +0.000 A 
ATOM      9  N   UNL     1       3.152   5.714  19.136  0.00  0.00    +0.000 NA
ATOM     10  N   UNL     1       1.145   8.568  20.372  0.00  0.00    +0.000 NA
ATOM     11  C   UNL     1       0.710   9.771  20.123  0.00  0.00    +0.000 C 
ATOM     12  C   UNL     1       1.029  10.614  18.862  0.00  0.00    +0.000 C 
ATOM     13  C   UNL     1       1.914  11.814  19.239  0.00  0.00    +0.000 C 
ATOM     14  C   UNL     1      -0.247  10.953  18.068  0.00  0.00    +0.000 C 
ATOM     15  S   UNL     1       2.034   9.797  17.566  0.00  0.00    +0.000 S 
ATOM     16  H   UNL     1       4.565   5.713  16.177  0.00  0.00    +0.000 HD
ENDROOT
BRANCH  11  17
ATOM     17  C   UNL     1      -0.134  10.408  21.243  0.00  0.00    +0.000 A 
ATOM     18  C   UNL     1      -0.876  11.569  20.963  0.00  0.00    +0.000 A 
ATOM     19  C   UNL     1      -1.776  12.096  21.902  0.00  0.00    +0.000 A 
ATOM     20  C   UNL     1      -1.947  11.479  23.139  0.00  0.00    +0.000 A 
ATOM     21  C   UNL     1      -1.188  10.364  23.454  0.00  0.00    +0.000 A 
ATOM     22  C   UNL     1      -0.285   9.849  22.521  0.00  0.00    +0.000 A 
ENDBRANCH  11  17
BRANCH   8  23
ATOM     23  N   UNL     1       2.171   6.055  21.206  0.00  0.00    +0.000 N 
ATOM     24  H   UNL     1       2.191   6.812  21.879  0.00  0.00    +0.000 HD
ATOM     25  H   UNL     1       1.294   5.540  21.171  0.00  0.00    +0.000 HD
ENDBRANCH   8  23
BRANCH   1  26
ATOM     26  O   UNL     1       5.182   3.578  16.140  0.00  0.00    +0.000 OA
BRANCH  26  28
ATOM     27  C   UNL     1       6.289   4.021  14.060  0.00  0.00    +0.000 C 
ATOM     28  C   UNL     1       5.717   4.631  15.327  0.00  0.00    +0.000 C 
ENDBRANCH  26  28
ENDBRANCH   1  26
TORSDOF 4
ENDMDL
MODEL 7
REMARK VINA RESULT:      -6.4      4.986      6.866
REMARK  Name = 
REMARK  7 active torsions:
REMARK  status: ('A' for Active; 'I' for Inactive)
REMARK    1  A    between atoms: C_1  and  C_2
REMARK    2  A    between atoms: C_2  and  O_3
REMARK    3  A    between atoms: O_3  and  C_4
REMARK    4  A    between atoms: C_11  and  N_12
REMARK    5  A    between atoms: C_15  and  C_16
REMARK    6  A    between atoms: C_22  and  C_23
REMARK    7  A    between atoms: C_22  and  C_24
REMARK                            x       y       z     vdW  Elec       q    Type
REMARK                         _______ _______ _______ _____ _____    ______ ____
ROOT
ATOM      1  C   UNL     1       1.442   9.613  18.316  0.00  0.00    +0.000 C 
ATOM      2  O   UNL     1       1.822   9.975  19.421  0.00  0.00    +0.000 OA
ATOM      3  N   UNL     1       0.254   9.858  17.709  0.00  0.00    +0.000 N 
ATOM      4  C   UNL     1      -0.785  10.618  18.234  0.00  0.00    +0.000 A 
ATOM      5  C   UNL     1      -1.983  10.576  17.555  0.00  0.00    +0.000 A 
ATOM      6  C   UNL     1      -3.099  11.219  18.099  0.00  0.00    +0.000 A 
ATOM      7  C   UNL     1      -2.994  11.942  19.274  0.00  0.00    +0.000 A 
ATOM      8  C   UNL     1      -1.705  11.997  19.840  0.00  0.00    +0.000 A 
ATOM      9  N   UNL     1      -0.632  11.340  19.350  0.00  0.00    +0.000 NA
ATOM     10  N   UNL     1      -4.072  12.578  19.927  0.00  0.00    +0.000 NA
ATOM     11  C   UNL     1      -5.296  12.613  19.482  0.00  0.00    +0.000 C 
ATOM     12  C   UNL     1      -5.809  11.968  18.168  0.00  0.00    +0.000 C 
ATOM     13  C   UNL     1      -6.199  13.061  17.160  0.00  0.00    +0.000 C 
ATOM     14  C   UNL     1      -6.887  10.902  18.443  0.00  0.00    +0.000 C 
ATOM     15  S   UNL     1      -4.593  10.989  17.210  0.00  0.00    +0.000 S 
ATOM     16  H   UNL     1       0.134   9.401  16.818  0.00  0.00    +0.000 HD
ENDROOT
BRANCH  11  17
ATOM     17  C   UNL     1      -6.278  13.446  20.328  0.00  0.00    +0.000 A 
ATOM     18  C   UNL     1      -7.119  12.788  21.242  0.00  0.00    +0.000 A 
ATOM     19  C   UNL     1      -7.917  13.513  22.141  0.00  0.00    +0.000 A 
ATOM     20  C   UNL     1      -7.896  14.905  22.138  0.00  0.00    +0.000 A 
ATOM     21  C   UNL     1      -7.113  15.572  21.211  0.00  0.00    +0.000 A 
ATOM     22  C   UNL     1      -6.329  14.847  20.310  0.00  0.00    +0.000 A 
ENDBRANCH  11  17
BRANCH   8  23
ATOM     23  N   UNL     1      -1.431  12.817  20.943  0.00  0.00    +0.000 N 
ATOM     24  H   UNL     1      -0.750  12.375  21.550  0.00  0.00    +0.000 HD
ATOM     25  H   UNL     1      -1.154  13.728  20.584  0.00  0.00    +0.000 HD
ENDBRANCH   8  23
BRANCH   1  26
ATOM     26  O   UNL     1       2.195   8.871  17.458  0.00  0.00    +0.000 OA
BRANCH  26  28
ATOM     27  C   UNL     1       3.970   7.260  17.522  0.00  0.00    +0.000 C 
ATOM     28  C   UNL     1       2.543   7.566  17.939  0.00  0.00    +0.000 C 
ENDBRANCH  26  28
ENDBRANCH   1  26
TORSDOF 4
ENDMDL
MODEL 8
REMARK VINA RESULT:      -6.3      3.671      5.959
REMARK  Name = 
REMARK  7 active torsions:
REMARK  status: ('A' for Active; 'I' for Inactive)
REMARK    1  A    between atoms: C_1  and  C_2
REMARK    2  A    between atoms: C_2  and  O_3
REMARK    3  A    between atoms: O_3  and  C_4
REMARK    4  A    between atoms: C_11  and  N_12
REMARK    5  A    between atoms: C_15  and  C_16
REMARK    6  A    between atoms: C_22  and  C_23
REMARK    7  A    between atoms: C_22  and  C_24
REMARK                            x       y       z     vdW  Elec       q    Type
REMARK                         _______ _______ _______ _____ _____    ______ ____
ROOT
ATOM      1  C   UNL     1       2.269   8.320  18.359  0.00  0.00    +0.000 C 
ATOM      2  O   UNL     1       2.217   8.843  17.254  0.00  0.00    +0.000 OA
ATOM      3  N   UNL     1       1.593   8.657  19.485  0.00  0.00    +0.000 N 
ATOM      4  C   UNL     1       0.656   9.679  19.596  0.00  0.00    +0.000 A 
ATOM      5  C   UNL     1       0.236   9.994  20.870  0.00  0.00    +0.000 A 
ATOM      6  C   UNL     1      -0.609  11.092  21.058  0.00  0.00    +0.000 A 
ATOM      7  C   UNL     1      -1.070  11.821  19.976  0.00  0.00    +0.000 A 
ATOM      8  C   UNL     1      -0.654  11.361  18.712  0.00  0.00    +0.000 A 
ATOM      9  N   UNL     1       0.201  10.332  18.521  0.00  0.00    +0.000 NA
ATOM     10  N   UNL     1      -1.880  12.973  20.069  0.00  0.00    +0.000 NA
ATOM     11  C   UNL     1      -2.343  13.470  21.182  0.00  0.00    +0.000 C 
ATOM     12  C   UNL     1      -2.097  12.909  22.606  0.00  0.00    +0.000 C 
ATOM     13  C   UNL     1      -3.404  12.341  23.183  0.00  0.00    +0.000 C 
ATOM     14  C   UNL     1      -1.364  13.928  23.499  0.00  0.00    +0.000 C 
ATOM     15  S   UNL     1      -0.972  11.468  22.732  0.00  0.00    +0.000 S 
ATOM     16  H   UNL     1       1.844   8.123  20.303  0.00  0.00    +0.000 HD
ENDROOT
BRANCH  11  17
ATOM     17  C   UNL     1      -3.279  14.683  21.018  0.00  0.00    +0.000 A 
ATOM     18  C   UNL     1      -2.723  15.972  20.964  0.00  0.00    +0.000 A 
ATOM     19  C   UNL     1      -3.516  17.090  20.664  0.00  0.00    +0.000 A 
ATOM     20  C   UNL     1      -4.880  16.943  20.419  0.00  0.00    +0.000 A 
ATOM     21  C   UNL     1      -5.456  15.687  20.516  0.00  0.00    +0.000 A 
ATOM     22  C   UNL     1      -4.665  14.579  20.827  0.00  0.00    +0.000 A 
ENDBRANCH  11  17
BRANCH   8  23
ATOM     23  N   UNL     1      -1.169  11.915  17.532  0.00  0.00    +0.000 N 
ATOM     24  H   UNL     1      -0.974  11.308  16.744  0.00  0.00    +0.000 HD
ATOM     25  H   UNL     1      -2.157  12.103  17.690  0.00  0.00    +0.000 HD
ENDBRANCH   8  23
BRANCH   1  26
ATOM     26  O   UNL     1       3.050   7.246  18.655  0.00  0.00    +0.000 OA
BRANCH  26  28
ATOM     27  C   UNL     1       2.317   5.046  18.048  0.00  0.00    +0.000 C 
ATOM     28  C   UNL     1       2.338   6.100  19.140  0.00  0.00    +0.000 C 
ENDBRANCH  26  28
ENDBRANCH   1  26
TORSDOF 4
ENDMDL
MODEL 9
REMARK VINA RESULT:      -6.3      2.594      4.088
REMARK  Name = 
REMARK  7 active torsions:
REMARK  status: ('A' for Active; 'I' for Inactive)
REMARK    1  A    between atoms: C_1  and  C_2
REMARK    2  A    between atoms: C_2  and  O_3
REMARK    3  A    between atoms: O_3  and  C_4
REMARK    4  A    between atoms: C_11  and  N_12
REMARK    5  A    between atoms: C_15  and  C_16
REMARK    6  A    between atoms: C_22  and  C_23
REMARK    7  A    between atoms: C_22  and  C_24
REMARK                            x       y       z     vdW  Elec       q    Type
REMARK                         _______ _______ _______ _____ _____    ______ ____
ROOT
ATOM      1  C   UNL     1       2.484   6.103  19.721  0.00  0.00    +0.000 C 
ATOM      2  O   UNL     1       2.411   5.653  20.856  0.00  0.00    +0.000 OA
ATOM      3  N   UNL     1       2.078   7.314  19.265  0.00  0.00    +0.000 N 
ATOM      4  C   UNL     1       1.507   8.323  20.033  0.00  0.00    +0.000 A 
ATOM      5  C   UNL     1       0.976   9.393  19.347  0.00  0.00    +0.000 A 
ATOM      6  C   UNL     1       0.280  10.379  20.054  0.00  0.00    +0.000 A 
ATOM      7  C   UNL     1       0.174  10.317  21.432  0.00  0.00    +0.000 A 
ATOM      8  C   UNL     1       0.829   9.231  22.044  0.00  0.00    +0.000 A 
ATOM      9  N   UNL     1       1.462   8.247  21.368  0.00  0.00    +0.000 NA
ATOM     10  N   UNL     1      -0.552  11.232  22.225  0.00  0.00    +0.000 NA
ATOM     11  C   UNL     1      -1.172  12.284  21.770  0.00  0.00    +0.000 C 
ATOM     12  C   UNL     1      -1.243  12.732  20.287  0.00  0.00    +0.000 C 
ATOM     13  C   UNL     1      -0.448  14.033  20.090  0.00  0.00    +0.000 C 
ATOM     14  C   UNL     1      -2.694  12.755  19.769  0.00  0.00    +0.000 C 
ATOM     15  S   UNL     1      -0.457  11.621  19.060  0.00  0.00    +0.000 S 
ATOM     16  H   UNL     1       2.179   7.445  18.270  0.00  0.00    +0.000 HD
ENDROOT
BRANCH  11  17
ATOM     17  C   UNL     1      -1.819  13.179  22.843  0.00  0.00    +0.000 A 
ATOM     18  C   UNL     1      -3.121  12.885  23.285  0.00  0.00    +0.000 A 
ATOM     19  C   UNL     1      -3.691  13.575  24.365  0.00  0.00    +0.000 A 
ATOM     20  C   UNL     1      -2.977  14.576  25.020  0.00  0.00    +0.000 A 
ATOM     21  C   UNL     1      -1.713  14.915  24.568  0.00  0.00    +0.000 A 
ATOM     22  C   UNL     1      -1.153  14.234  23.485  0.00  0.00    +0.000 A 
ENDBRANCH  11  17
BRANCH   8  23
ATOM     23  N   UNL     1       0.928   9.134  23.438  0.00  0.00    +0.000 N 
ATOM     24  H   UNL     1       0.027   8.897  23.839  0.00  0.00    +0.000 HD
ATOM     25  H   UNL     1       1.673   8.473  23.646  0.00  0.00    +0.000 HD
ENDBRANCH   8  23
BRANCH   1  26
ATOM     26  O   UNL     1       3.025   5.429  18.670  0.00  0.00    +0.000 OA
BRANCH  26  28
ATOM     27  C   UNL     1       1.916   3.356  18.198  0.00  0.00    +0.000 C 
ATOM     28  C   UNL     1       2.070   4.812  17.796  0.00  0.00    +0.000 C 
ENDBRANCH  26  28
ENDBRANCH   1  26
TORSDOF 4
ENDMDL
