MODEL 1
REMARK VINA RESULT:      -8.0      0.000      0.000
REMARK  Name = 
REMARK  4 active torsions:
REMARK  status: ('A' for Active; 'I' for Inactive)
REMARK    1  A    between atoms: O_1  and  C_2
REMARK    2  A    between atoms: N_13  and  C_14
REMARK    3  A    between atoms: C_21  and  C_22
REMARK    4  A    between atoms: C_25  and  O_26
REMARK                            x       y       z     vdW  Elec       q    Type
REMARK                         _______ _______ _______ _____ _____    ______ ____
ROOT
ATOM      1  C   UNL     1      -1.061  12.264  18.371  0.00  0.00    +0.000 C 
ATOM      2  C   UNL     1      -1.854  12.161  19.450  0.00  0.00    +0.000 C 
ATOM      3  N   UNL     1      -3.227  12.437  19.530  0.00  0.00    +0.000 N 
ATOM      4  C   UNL     1      -3.468  12.577  20.929  0.00  0.00    +0.000 A 
ATOM      5  C   UNL     1      -4.627  12.950  21.573  0.00  0.00    +0.000 A 
ATOM      6  C   UNL     1      -4.589  13.006  22.969  0.00  0.00    +0.000 A 
ATOM      7  C   UNL     1      -3.411  12.694  23.680  0.00  0.00    +0.000 A 
ATOM      8  C   UNL     1      -2.243  12.305  23.014  0.00  0.00    +0.000 A 
ATOM      9  C   UNL     1      -2.283  12.234  21.640  0.00  0.00    +0.000 A 
ATOM     10  N   UNL     1      -1.312  11.898  20.704  0.00  0.00    +0.000 N 
ATOM     11  C   UNL     1       0.101  11.785  20.967  0.00  0.00    +0.000 C 
ATOM     12  N   UNL     1       0.834  11.408  19.753  0.00  0.00    +0.000 N 
ATOM     13  C   UNL     1       0.456  12.154  18.522  0.00  0.00    +0.000 C 
ATOM     14  H   UNL     1      -3.530  13.235  18.985  0.00  0.00    +0.000 HD
ENDROOT
BRANCH  12  15
ATOM     15  C   UNL     1       1.214  10.075  19.577  0.00  0.00    +0.000 A 
ATOM     16  C   UNL     1       1.199   9.123  20.609  0.00  0.00    +0.000 A 
ATOM     17  C   UNL     1       1.652   7.812  20.405  0.00  0.00    +0.000 A 
ATOM     18  C   UNL     1       2.124   7.430  19.154  0.00  0.00    +0.000 A 
ATOM     19 BR   UNL     1       2.761   5.672  18.881  0.00  0.00    +0.000 Br
ATOM     20  C   UNL     1       2.135   8.343  18.106  0.00  0.00    +0.000 A 
ATOM     21  C   UNL     1       1.683   9.648  18.321  0.00  0.00    +0.000 A 
ENDBRANCH  12  15
BRANCH  13  22
ATOM     22  C   UNL     1       1.151  13.524  18.527  0.00  0.00    +0.000 A 
ATOM     23  C   UNL     1       2.518  13.616  18.208  0.00  0.00    +0.000 A 
ATOM     24  C   UNL     1       3.179  14.848  18.221  0.00  0.00    +0.000 A 
ATOM     25  C   UNL     1       2.477  16.000  18.555  0.00  0.00    +0.000 A 
ATOM     26  C   UNL     1       1.132  15.940  18.885  0.00  0.00    +0.000 A 
ATOM     27  C   UNL     1       0.473  14.710  18.876  0.00  0.00    +0.000 A 
BRANCH  25  28
ATOM     28  O   UNL     1       3.079  17.223  18.577  0.00  0.00    +0.000 OA
ATOM     29  H   UNL     1       2.391  17.906  18.568  0.00  0.00    +0.000 HD
ENDBRANCH  25  28
ENDBRANCH  13  22
BRANCH   1  30
ATOM     30  O   UNL     1      -1.557  12.528  17.103  0.00  0.00    +0.000 OA
ATOM     31  H   UNL     1      -2.339  11.957  16.989  0.00  0.00    +0.000 HD
ENDBRANCH   1  30
TORSDOF 4
ENDMDL
MODEL 2
REMARK VINA RESULT:      -7.3      2.817      5.342
REMARK  Name = 
REMARK  4 active torsions:
REMARK  status: ('A' for Active; 'I' for Inactive)
REMARK    1  A    between atoms: O_1  and  C_2
REMARK    2  A    between atoms: N_13  and  C_14
REMARK    3  A    between atoms: C_21  and  C_22
REMARK    4  A    between atoms: C_25  and  O_26
REMARK                            x       y       z     vdW  Elec       q    Type
REMARK                         _______ _______ _______ _____ _____    ______ ____
ROOT
ATOM      1  C   UNL     1      -0.014  11.116  20.562  0.00  0.00    +0.000 C 
ATOM      2  C   UNL     1       0.922  12.063  20.389  0.00  0.00    +0.000 C 
ATOM      3  N   UNL     1       1.175  13.173  21.208  0.00  0.00    +0.000 N 
ATOM      4  C   UNL     1       1.942  14.044  20.377  0.00  0.00    +0.000 A 
ATOM      5  C   UNL     1       2.377  15.324  20.639  0.00  0.00    +0.000 A 
ATOM      6  C   UNL     1       3.120  15.960  19.640  0.00  0.00    +0.000 A 
ATOM      7  C   UNL     1       3.405  15.312  18.419  0.00  0.00    +0.000 A 
ATOM      8  C   UNL     1       2.965  14.007  18.170  0.00  0.00    +0.000 A 
ATOM      9  C   UNL     1       2.247  13.374  19.159  0.00  0.00    +0.000 A 
ATOM     10  N   UNL     1       1.673  12.109  19.218  0.00  0.00    +0.000 N 
ATOM     11  C   UNL     1       1.479  11.225  18.097  0.00  0.00    +0.000 C 
ATOM     12  N   UNL     1       0.850   9.968  18.521  0.00  0.00    +0.000 N 
ATOM     13  C   UNL     1      -0.306  10.114  19.446  0.00  0.00    +0.000 C 
ATOM     14  H   UNL     1       0.349  13.608  21.599  0.00  0.00    +0.000 HD
ENDROOT
BRANCH  12  15
ATOM     15  C   UNL     1       1.650   8.837  18.702  0.00  0.00    +0.000 A 
ATOM     16  C   UNL     1       2.536   8.351  17.727  0.00  0.00    +0.000 A 
ATOM     17  C   UNL     1       3.271   7.174  17.925  0.00  0.00    +0.000 A 
ATOM     18  C   UNL     1       3.134   6.464  19.112  0.00  0.00    +0.000 A 
ATOM     19 BR   UNL     1       4.103   4.863  19.372  0.00  0.00    +0.000 Br
ATOM     20  C   UNL     1       2.279   6.927  20.105  0.00  0.00    +0.000 A 
ATOM     21  C   UNL     1       1.549   8.101  19.896  0.00  0.00    +0.000 A 
ENDBRANCH  12  15
BRANCH  13  22
ATOM     22  C   UNL     1      -1.560  10.479  18.636  0.00  0.00    +0.000 A 
ATOM     23  C   UNL     1      -1.837   9.805  17.434  0.00  0.00    +0.000 A 
ATOM     24  C   UNL     1      -2.962  10.128  16.670  0.00  0.00    +0.000 A 
ATOM     25  C   UNL     1      -3.820  11.132  17.102  0.00  0.00    +0.000 A 
ATOM     26  C   UNL     1      -3.568  11.822  18.277  0.00  0.00    +0.000 A 
ATOM     27  C   UNL     1      -2.443  11.502  19.038  0.00  0.00    +0.000 A 
BRANCH  25  28
ATOM     28  O   UNL     1      -4.931  11.478  16.392  0.00  0.00    +0.000 OA
ATOM     29  H   UNL     1      -5.449  10.677  16.220  0.00  0.00    +0.000 HD
ENDBRANCH  25  28
ENDBRANCH  13  22
BRANCH   1  30
ATOM     30  O   UNL     1      -0.787  11.033  21.711  0.00  0.00    +0.000 OA
ATOM     31  H   UNL     1      -1.581  10.521  21.473  0.00  0.00    +0.000 HD
ENDBRANCH   1  30
TORSDOF 4
ENDMDL
MODEL 3
REMARK VINA RESULT:      -7.2      2.839      5.333
REMARK  Name = 
REMARK  4 active torsions:
REMARK  status: ('A' for Active; 'I' for Inactive)
REMARK    1  A    between atoms: O_1  and  C_2
REMARK    2  A    between atoms: N_13  and  C_14
REMARK    3  A    between atoms: C_21  and  C_22
REMARK    4  A    between atoms: C_25  and  O_26
REMARK                            x       y       z     vdW  Elec       q    Type
REMARK                         _______ _______ _______ _____ _____    ______ ____
ROOT
ATOM      1  C   UNL     1      -0.030  11.052  20.542  0.00  0.00    +0.000 C 
ATOM      2  C   UNL     1       0.930  11.978  20.390  0.00  0.00    +0.000 C 
ATOM      3  N   UNL     1       1.196  13.077  21.221  0.00  0.00    +0.000 N 
ATOM      4  C   UNL     1       1.995  13.936  20.408  0.00  0.00    +0.000 A 
ATOM      5  C   UNL     1       2.455  15.204  20.686  0.00  0.00    +0.000 A 
ATOM      6  C   UNL     1       3.228  15.829  19.703  0.00  0.00    +0.000 A 
ATOM      7  C   UNL     1       3.517  15.184  18.482  0.00  0.00    +0.000 A 
ATOM      8  C   UNL     1       3.052  13.890  18.217  0.00  0.00    +0.000 A 
ATOM      9  C   UNL     1       2.304  13.267  19.191  0.00  0.00    +0.000 A 
ATOM     10  N   UNL     1       1.700  12.015  19.231  0.00  0.00    +0.000 N 
ATOM     11  C   UNL     1       1.504  11.143  18.100  0.00  0.00    +0.000 C 
ATOM     12  N   UNL     1       0.840   9.899  18.506  0.00  0.00    +0.000 N 
ATOM     13  C   UNL     1      -0.327  10.064  19.414  0.00  0.00    +0.000 C 
ATOM     14  H   UNL     1       0.374  13.528  21.602  0.00  0.00    +0.000 HD
ENDROOT
BRANCH  12  15
ATOM     15  C   UNL     1       1.611   8.748  18.691  0.00  0.00    +0.000 A 
ATOM     16  C   UNL     1       1.580   7.977  19.864  0.00  0.00    +0.000 A 
ATOM     17  C   UNL     1       2.419   6.867  20.035  0.00  0.00    +0.000 A 
ATOM     18  C   UNL     1       3.303   6.506  19.024  0.00  0.00    +0.000 A 
ATOM     19 BR   UNL     1       4.455   5.027  19.261  0.00  0.00    +0.000 Br
ATOM     20  C   UNL     1       3.345   7.237  17.843  0.00  0.00    +0.000 A 
ATOM     21  C   UNL     1       2.505   8.343  17.685  0.00  0.00    +0.000 A 
ENDBRANCH  12  15
BRANCH  13  22
ATOM     22  C   UNL     1      -1.559  10.463  18.588  0.00  0.00    +0.000 A 
ATOM     23  C   UNL     1      -2.425  11.464  19.062  0.00  0.00    +0.000 A 
ATOM     24  C   UNL     1      -3.562  11.835  18.338  0.00  0.00    +0.000 A 
ATOM     25  C   UNL     1      -3.843  11.205  17.132  0.00  0.00    +0.000 A 
ATOM     26  C   UNL     1      -3.015  10.207  16.643  0.00  0.00    +0.000 A 
ATOM     27  C   UNL     1      -1.882   9.834  17.368  0.00  0.00    +0.000 A 
BRANCH  25  28
ATOM     28  O   UNL     1      -4.938  11.537  16.390  0.00  0.00    +0.000 OA
ATOM     29  H   UNL     1      -5.518  10.762  16.334  0.00  0.00    +0.000 HD
ENDBRANCH  25  28
ENDBRANCH  13  22
BRANCH   1  30
ATOM     30  O   UNL     1      -0.822  10.979  21.678  0.00  0.00    +0.000 OA
ATOM     31  H   UNL     1      -1.515  10.320  21.489  0.00  0.00    +0.000 HD
ENDBRANCH   1  30
TORSDOF 4
ENDMDL
MODEL 4
REMARK VINA RESULT:      -7.2      3.345      6.996
REMARK  Name = 
REMARK  4 active torsions:
REMARK  status: ('A' for Active; 'I' for Inactive)
REMARK    1  A    between atoms: O_1  and  C_2
REMARK    2  A    between atoms: N_13  and  C_14
REMARK    3  A    between atoms: C_21  and  C_22
REMARK    4  A    between atoms: C_25  and  O_26
REMARK                            x       y       z     vdW  Elec       q    Type
REMARK                         _______ _______ _______ _____ _____    ______ ____
ROOT
ATOM      1  C   UNL     1      -0.994  12.412  18.633  0.00  0.00    +0.000 C 
ATOM      2  C   UNL     1      -0.123  11.458  19.002  0.00  0.00    +0.000 C 
ATOM      3  N   UNL     1       0.796  10.781  18.188  0.00  0.00    +0.000 N 
ATOM      4  C   UNL     1       1.147   9.628  18.953  0.00  0.00    +0.000 A 
ATOM      5  C   UNL     1       1.941   8.562  18.592  0.00  0.00    +0.000 A 
ATOM      6  C   UNL     1       2.123   7.555  19.544  0.00  0.00    +0.000 A 
ATOM      7  C   UNL     1       1.516   7.634  20.815  0.00  0.00    +0.000 A 
ATOM      8  C   UNL     1       0.721   8.729  21.173  0.00  0.00    +0.000 A 
ATOM      9  C   UNL     1       0.553   9.729  20.242  0.00  0.00    +0.000 A 
ATOM     10  N   UNL     1      -0.169  10.917  20.283  0.00  0.00    +0.000 N 
ATOM     11  C   UNL     1      -1.157  11.262  21.273  0.00  0.00    +0.000 C 
ATOM     12  N   UNL     1      -1.716  12.595  21.016  0.00  0.00    +0.000 N 
ATOM     13  C   UNL     1      -2.085  12.869  19.601  0.00  0.00    +0.000 C 
ATOM     14  H   UNL     1       0.459  10.564  17.258  0.00  0.00    +0.000 HD
ENDROOT
BRANCH  12  15
ATOM     15  C   UNL     1      -1.244  13.683  21.755  0.00  0.00    +0.000 A 
ATOM     16  C   UNL     1      -0.396  14.668  21.225  0.00  0.00    +0.000 A 
ATOM     17  C   UNL     1       0.108  15.708  22.020  0.00  0.00    +0.000 A 
ATOM     18  C   UNL     1      -0.239  15.780  23.365  0.00  0.00    +0.000 A 
ATOM     19 BR   UNL     1       0.459  17.163  24.446  0.00  0.00    +0.000 Br
ATOM     20  C   UNL     1      -1.091  14.831  23.916  0.00  0.00    +0.000 A 
ATOM     21  C   UNL     1      -1.586  13.798  23.114  0.00  0.00    +0.000 A 
ENDBRANCH  12  15
BRANCH  13  22
ATOM     22  C   UNL     1      -3.449  12.228  19.300  0.00  0.00    +0.000 A 
ATOM     23  C   UNL     1      -4.557  12.529  20.111  0.00  0.00    +0.000 A 
ATOM     24  C   UNL     1      -5.806  11.948  19.870  0.00  0.00    +0.000 A 
ATOM     25  C   UNL     1      -5.955  11.058  18.813  0.00  0.00    +0.000 A 
ATOM     26  C   UNL     1      -4.879  10.733  18.002  0.00  0.00    +0.000 A 
ATOM     27  C   UNL     1      -3.632  11.310  18.246  0.00  0.00    +0.000 A 
BRANCH  25  28
ATOM     28  O   UNL     1      -7.154  10.470  18.538  0.00  0.00    +0.000 OA
ATOM     29  H   UNL     1      -7.832  10.878  19.098  0.00  0.00    +0.000 HD
ENDBRANCH  25  28
ENDBRANCH  13  22
BRANCH   1  30
ATOM     30  O   UNL     1      -0.988  12.978  17.367  0.00  0.00    +0.000 OA
ATOM     31  H   UNL     1      -1.684  13.659  17.366  0.00  0.00    +0.000 HD
ENDBRANCH   1  30
TORSDOF 4
ENDMDL
MODEL 5
REMARK VINA RESULT:      -7.1      3.190      6.019
REMARK  Name = 
REMARK  4 active torsions:
REMARK  status: ('A' for Active; 'I' for Inactive)
REMARK    1  A    between atoms: O_1  and  C_2
REMARK    2  A    between atoms: N_13  and  C_14
REMARK    3  A    between atoms: C_21  and  C_22
REMARK    4  A    between atoms: C_25  and  O_26
REMARK                            x       y       z     vdW  Elec       q    Type
REMARK                         _______ _______ _______ _____ _____    ______ ____
ROOT
ATOM      1  C   UNL     1      -0.147  10.861  21.707  0.00  0.00    +0.000 C 
ATOM      2  C   UNL     1       0.311   9.878  20.915  0.00  0.00    +0.000 C 
ATOM      3  N   UNL     1       0.884   8.661  21.310  0.00  0.00    +0.000 N 
ATOM      4  C   UNL     1       1.559   8.203  20.139  0.00  0.00    +0.000 A 
ATOM      5  C   UNL     1       2.375   7.104  19.986  0.00  0.00    +0.000 A 
ATOM      6  C   UNL     1       2.913   6.883  18.715  0.00  0.00    +0.000 A 
ATOM      7  C   UNL     1       2.629   7.754  17.642  0.00  0.00    +0.000 A 
ATOM      8  C   UNL     1       1.789   8.861  17.808  0.00  0.00    +0.000 A 
ATOM      9  C   UNL     1       1.246   9.071  19.055  0.00  0.00    +0.000 A 
ATOM     10  N   UNL     1       0.400  10.063  19.539  0.00  0.00    +0.000 N 
ATOM     11  C   UNL     1       0.089  11.299  18.866  0.00  0.00    +0.000 C 
ATOM     12  N   UNL     1      -0.842  12.109  19.660  0.00  0.00    +0.000 N 
ATOM     13  C   UNL     1      -0.519  12.217  21.108  0.00  0.00    +0.000 C 
ATOM     14  H   UNL     1       1.482   8.719  22.125  0.00  0.00    +0.000 HD
ENDROOT
BRANCH  12  15
ATOM     15  C   UNL     1      -2.200  12.105  19.327  0.00  0.00    +0.000 A 
ATOM     16  C   UNL     1      -3.200  12.646  20.151  0.00  0.00    +0.000 A 
ATOM     17  C   UNL     1      -4.557  12.562  19.809  0.00  0.00    +0.000 A 
ATOM     18  C   UNL     1      -4.934  11.936  18.626  0.00  0.00    +0.000 A 
ATOM     19 BR   UNL     1      -6.764  11.797  18.175  0.00  0.00    +0.000 Br
ATOM     20  C   UNL     1      -3.968  11.407  17.779  0.00  0.00    +0.000 A 
ATOM     21  C   UNL     1      -2.618  11.495  18.131  0.00  0.00    +0.000 A 
ENDBRANCH  12  15
BRANCH  13  22
ATOM     22  C   UNL     1       0.582  13.272  21.305  0.00  0.00    +0.000 A 
ATOM     23  C   UNL     1       0.290  14.469  21.981  0.00  0.00    +0.000 A 
ATOM     24  C   UNL     1       1.268  15.452  22.160  0.00  0.00    +0.000 A 
ATOM     25  C   UNL     1       2.548  15.245  21.659  0.00  0.00    +0.000 A 
ATOM     26  C   UNL     1       2.863  14.081  20.978  0.00  0.00    +0.000 A 
ATOM     27  C   UNL     1       1.885  13.101  20.796  0.00  0.00    +0.000 A 
BRANCH  25  28
ATOM     28  O   UNL     1       3.534  16.174  21.812  0.00  0.00    +0.000 OA
ATOM     29  H   UNL     1       4.378  15.772  21.558  0.00  0.00    +0.000 HD
ENDBRANCH  25  28
ENDBRANCH  13  22
BRANCH   1  30
ATOM     30  O   UNL     1      -0.251  10.722  23.083  0.00  0.00    +0.000 OA
ATOM     31  H   UNL     1      -1.192  10.556  23.274  0.00  0.00    +0.000 HD
ENDBRANCH   1  30
TORSDOF 4
ENDMDL
MODEL 6
REMARK VINA RESULT:      -6.9      2.485      5.487
REMARK  Name = 
REMARK  4 active torsions:
REMARK  status: ('A' for Active; 'I' for Inactive)
REMARK    1  A    between atoms: O_1  and  C_2
REMARK    2  A    between atoms: N_13  and  C_14
REMARK    3  A    between atoms: C_21  and  C_22
REMARK    4  A    between atoms: C_25  and  O_26
REMARK                            x       y       z     vdW  Elec       q    Type
REMARK                         _______ _______ _______ _____ _____    ______ ____
ROOT
ATOM      1  C   UNL     1       0.470  11.696  20.981  0.00  0.00    +0.000 C 
ATOM      2  C   UNL     1       1.429  12.538  20.563  0.00  0.00    +0.000 C 
ATOM      3  N   UNL     1       1.944  13.651  21.243  0.00  0.00    +0.000 N 
ATOM      4  C   UNL     1       2.595  14.406  20.221  0.00  0.00    +0.000 A 
ATOM      5  C   UNL     1       3.186  15.646  20.308  0.00  0.00    +0.000 A 
ATOM      6  C   UNL     1       3.759  16.161  19.142  0.00  0.00    +0.000 A 
ATOM      7  C   UNL     1       3.727  15.436  17.932  0.00  0.00    +0.000 A 
ATOM      8  C   UNL     1       3.132  14.171  17.860  0.00  0.00    +0.000 A 
ATOM      9  C   UNL     1       2.582  13.656  19.011  0.00  0.00    +0.000 A 
ATOM     10  N   UNL     1       1.923  12.458  19.264  0.00  0.00    +0.000 N 
ATOM     11  C   UNL     1       1.423  11.550  18.263  0.00  0.00    +0.000 C 
ATOM     12  N   UNL     1       0.788  10.381  18.883  0.00  0.00    +0.000 N 
ATOM     13  C   UNL     1      -0.134  10.681  20.012  0.00  0.00    +0.000 C 
ATOM     14  H   UNL     1       1.258  14.183  21.764  0.00  0.00    +0.000 HD
ENDROOT
BRANCH  12  15
ATOM     15  C   UNL     1       1.505   9.185  18.970  0.00  0.00    +0.000 A 
ATOM     16  C   UNL     1       2.284   8.672  17.921  0.00  0.00    +0.000 A 
ATOM     17  C   UNL     1       2.934   7.435  18.027  0.00  0.00    +0.000 A 
ATOM     18  C   UNL     1       2.818   6.690  19.195  0.00  0.00    +0.000 A 
ATOM     19 BR   UNL     1       3.671   5.009  19.332  0.00  0.00    +0.000 Br
ATOM     20  C   UNL     1       2.070   7.178  20.260  0.00  0.00    +0.000 A 
ATOM     21  C   UNL     1       1.424   8.412  20.142  0.00  0.00    +0.000 A 
ENDBRANCH  12  15
BRANCH  13  22
ATOM     22  C   UNL     1      -1.492  11.133  19.451  0.00  0.00    +0.000 A 
ATOM     23  C   UNL     1      -2.221  12.138  20.111  0.00  0.00    +0.000 A 
ATOM     24  C   UNL     1      -3.466  12.557  19.631  0.00  0.00    +0.000 A 
ATOM     25  C   UNL     1      -3.992  11.970  18.486  0.00  0.00    +0.000 A 
ATOM     26  C   UNL     1      -3.302  10.970  17.820  0.00  0.00    +0.000 A 
ATOM     27  C   UNL     1      -2.062  10.549  18.302  0.00  0.00    +0.000 A 
BRANCH  25  28
ATOM     28  O   UNL     1      -5.200  12.349  17.980  0.00  0.00    +0.000 OA
ATOM     29  H   UNL     1      -5.328  11.910  17.125  0.00  0.00    +0.000 HD
ENDBRANCH  25  28
ENDBRANCH  13  22
BRANCH   1  30
ATOM     30  O   UNL     1      -0.053  11.741  22.265  0.00  0.00    +0.000 OA
ATOM     31  H   UNL     1      -0.247  12.678  22.451  0.00  0.00    +0.000 HD
ENDBRANCH   1  30
TORSDOF 4
ENDMDL
MODEL 7
REMARK VINA RESULT:      -6.8      3.299      6.619
REMARK  Name = 
REMARK  4 active torsions:
REMARK  status: ('A' for Active; 'I' for Inactive)
REMARK    1  A    between atoms: O_1  and  C_2
REMARK    2  A    between atoms: N_13  and  C_14
REMARK    3  A    between atoms: C_21  and  C_22
REMARK    4  A    between atoms: C_25  and  O_26
REMARK                            x       y       z     vdW  Elec       q    Type
REMARK                         _______ _______ _______ _____ _____    ______ ____
ROOT
ATOM      1  C   UNL     1      -1.401  12.748  19.170  0.00  0.00    +0.000 C 
ATOM      2  C   UNL     1      -0.814  13.916  19.479  0.00  0.00    +0.000 C 
ATOM      3  N   UNL     1      -0.327  14.888  18.593  0.00  0.00    +0.000 N 
ATOM      4  C   UNL     1       0.544  15.681  19.398  0.00  0.00    +0.000 A 
ATOM      5  C   UNL     1       1.368  16.716  19.017  0.00  0.00    +0.000 A 
ATOM      6  C   UNL     1       2.123  17.330  20.021  0.00  0.00    +0.000 A 
ATOM      7  C   UNL     1       2.041  16.900  21.362  0.00  0.00    +0.000 A 
ATOM      8  C   UNL     1       1.191  15.854  21.737  0.00  0.00    +0.000 A 
ATOM      9  C   UNL     1       0.434  15.259  20.753  0.00  0.00    +0.000 A 
ATOM     10  N   UNL     1      -0.478  14.211  20.797  0.00  0.00    +0.000 N 
ATOM     11  C   UNL     1      -0.658  13.302  21.901  0.00  0.00    +0.000 C 
ATOM     12  N   UNL     1      -1.711  12.322  21.610  0.00  0.00    +0.000 N 
ATOM     13  C   UNL     1      -1.652  11.705  20.257  0.00  0.00    +0.000 C 
ATOM     14  H   UNL     1       0.115  14.518  17.761  0.00  0.00    +0.000 HD
ENDROOT
BRANCH  12  15
ATOM     15  C   UNL     1      -2.987  12.519  22.145  0.00  0.00    +0.000 A 
ATOM     16  C   UNL     1      -4.109  12.852  21.370  0.00  0.00    +0.000 A 
ATOM     17  C   UNL     1      -5.357  13.105  21.955  0.00  0.00    +0.000 A 
ATOM     18  C   UNL     1      -5.503  13.021  23.336  0.00  0.00    +0.000 A 
ATOM     19 BR   UNL     1      -7.177  13.387  24.132  0.00  0.00    +0.000 Br
ATOM     20  C   UNL     1      -4.417  12.675  24.131  0.00  0.00    +0.000 A 
ATOM     21  C   UNL     1      -3.177  12.427  23.536  0.00  0.00    +0.000 A 
ENDBRANCH  12  15
BRANCH  13  22
ATOM     22  C   UNL     1      -0.598  10.586  20.258  0.00  0.00    +0.000 A 
ATOM     23  C   UNL     1      -0.450   9.766  21.390  0.00  0.00    +0.000 A 
ATOM     24  C   UNL     1       0.511   8.751  21.424  0.00  0.00    +0.000 A 
ATOM     25  C   UNL     1       1.335   8.549  20.322  0.00  0.00    +0.000 A 
ATOM     26  C   UNL     1       1.220   9.348  19.196  0.00  0.00    +0.000 A 
ATOM     27  C   UNL     1       0.263  10.364  19.164  0.00  0.00    +0.000 A 
BRANCH  25  28
ATOM     28  O   UNL     1       2.283   7.570  20.309  0.00  0.00    +0.000 OA
ATOM     29  H   UNL     1       1.903   6.768  20.700  0.00  0.00    +0.000 HD
ENDBRANCH  25  28
ENDBRANCH  13  22
BRANCH   1  30
ATOM     30  O   UNL     1      -1.750  12.410  17.870  0.00  0.00    +0.000 OA
ATOM     31  H   UNL     1      -1.245  11.606  17.649  0.00  0.00    +0.000 HD
ENDBRANCH   1  30
TORSDOF 4
ENDMDL
MODEL 8
REMARK VINA RESULT:      -6.8      3.148      5.964
REMARK  Name = 
REMARK  4 active torsions:
REMARK  status: ('A' for Active; 'I' for Inactive)
REMARK    1  A    between atoms: O_1  and  C_2
REMARK    2  A    between atoms: N_13  and  C_14
REMARK    3  A    between atoms: C_21  and  C_22
REMARK    4  A    between atoms: C_25  and  O_26
REMARK                            x       y       z     vdW  Elec       q    Type
REMARK                         _______ _______ _______ _____ _____    ______ ____
ROOT
ATOM      1  C   UNL     1      -0.229  11.097  21.567  0.00  0.00    +0.000 C 
ATOM      2  C   UNL     1       0.231  10.052  20.860  0.00  0.00    +0.000 C 
ATOM      3  N   UNL     1       0.845   8.891  21.352  0.00  0.00    +0.000 N 
ATOM      4  C   UNL     1       1.497   8.337  20.210  0.00  0.00    +0.000 A 
ATOM      5  C   UNL     1       2.335   7.247  20.139  0.00  0.00    +0.000 A 
ATOM      6  C   UNL     1       2.842   6.916  18.879  0.00  0.00    +0.000 A 
ATOM      7  C   UNL     1       2.507   7.672  17.736  0.00  0.00    +0.000 A 
ATOM      8  C   UNL     1       1.645   8.772  17.821  0.00  0.00    +0.000 A 
ATOM      9  C   UNL     1       1.132   9.089  19.058  0.00  0.00    +0.000 A 
ATOM     10  N   UNL     1       0.277  10.105  19.470  0.00  0.00    +0.000 N 
ATOM     11  C   UNL     1      -0.084  11.263  18.692  0.00  0.00    +0.000 C 
ATOM     12  N   UNL     1      -1.012  12.126  19.432  0.00  0.00    +0.000 N 
ATOM     13  C   UNL     1      -0.651  12.380  20.853  0.00  0.00    +0.000 C 
ATOM     14  H   UNL     1       1.463   9.041  22.140  0.00  0.00    +0.000 HD
ENDROOT
BRANCH  12  15
ATOM     15  C   UNL     1      -2.377  12.061  19.143  0.00  0.00    +0.000 A 
ATOM     16  C   UNL     1      -2.891  11.520  17.953  0.00  0.00    +0.000 A 
ATOM     17  C   UNL     1      -4.265  11.534  17.674  0.00  0.00    +0.000 A 
ATOM     18  C   UNL     1      -5.151  12.087  18.591  0.00  0.00    +0.000 A 
ATOM     19 BR   UNL     1      -7.001  12.133  18.206  0.00  0.00    +0.000 Br
ATOM     20  C   UNL     1      -4.678  12.614  19.786  0.00  0.00    +0.000 A 
ATOM     21  C   UNL     1      -3.305  12.597  20.053  0.00  0.00    +0.000 A 
ENDBRANCH  12  15
BRANCH  13  22
ATOM     22  C   UNL     1       0.429  13.473  20.914  0.00  0.00    +0.000 A 
ATOM     23  C   UNL     1       1.788  13.113  20.923  0.00  0.00    +0.000 A 
ATOM     24  C   UNL     1       2.790  14.086  20.994  0.00  0.00    +0.000 A 
ATOM     25  C   UNL     1       2.438  15.429  21.058  0.00  0.00    +0.000 A 
ATOM     26  C   UNL     1       1.107  15.814  21.062  0.00  0.00    +0.000 A 
ATOM     27  C   UNL     1       0.107  14.843  20.995  0.00  0.00    +0.000 A 
BRANCH  25  28
ATOM     28  O   UNL     1       3.381  16.412  21.124  0.00  0.00    +0.000 OA
ATOM     29  H   UNL     1       4.042  16.161  21.787  0.00  0.00    +0.000 HD
ENDBRANCH  25  28
ENDBRANCH  13  22
BRANCH   1  30
ATOM     30  O   UNL     1      -0.291  11.089  22.953  0.00  0.00    +0.000 OA
ATOM     31  H   UNL     1      -0.089  10.178  23.233  0.00  0.00    +0.000 HD
ENDBRANCH   1  30
TORSDOF 4
ENDMDL
MODEL 9
REMARK VINA RESULT:      -6.7      3.300      6.582
REMARK  Name = 
REMARK  4 active torsions:
REMARK  status: ('A' for Active; 'I' for Inactive)
REMARK    1  A    between atoms: O_1  and  C_2
REMARK    2  A    between atoms: N_13  and  C_14
REMARK    3  A    between atoms: C_21  and  C_22
REMARK    4  A    between atoms: C_25  and  O_26
REMARK                            x       y       z     vdW  Elec       q    Type
REMARK                         _______ _______ _______ _____ _____    ______ ____
ROOT
ATOM      1  C   UNL     1      -1.409  12.751  19.323  0.00  0.00    +0.000 C 
ATOM      2  C   UNL     1      -0.808  13.927  19.569  0.00  0.00    +0.000 C 
ATOM      3  N   UNL     1      -0.344  14.861  18.631  0.00  0.00    +0.000 N 
ATOM      4  C   UNL     1       0.555  15.680  19.378  0.00  0.00    +0.000 A 
ATOM      5  C   UNL     1       1.371  16.695  18.932  0.00  0.00    +0.000 A 
ATOM      6  C   UNL     1       2.160  17.343  19.887  0.00  0.00    +0.000 A 
ATOM      7  C   UNL     1       2.117  16.965  21.246  0.00  0.00    +0.000 A 
ATOM      8  C   UNL     1       1.275  15.939  21.688  0.00  0.00    +0.000 A 
ATOM      9  C   UNL     1       0.485  15.311  20.751  0.00  0.00    +0.000 A 
ATOM     10  N   UNL     1      -0.430  14.271  20.863  0.00  0.00    +0.000 N 
ATOM     11  C   UNL     1      -0.579  13.406  22.007  0.00  0.00    +0.000 C 
ATOM     12  N   UNL     1      -1.646  12.422  21.786  0.00  0.00    +0.000 N 
ATOM     13  C   UNL     1      -1.631  11.752  20.458  0.00  0.00    +0.000 C 
ATOM     14  H   UNL     1       0.070  14.457  17.801  0.00  0.00    +0.000 HD
ENDROOT
BRANCH  12  15
ATOM     15  C   UNL     1      -2.904  12.646  22.353  0.00  0.00    +0.000 A 
ATOM     16  C   UNL     1      -3.189  12.434  23.711  0.00  0.00    +0.000 A 
ATOM     17  C   UNL     1      -4.481  12.608  24.225  0.00  0.00    +0.000 A 
ATOM     18  C   UNL     1      -5.513  13.005  23.382  0.00  0.00    +0.000 A 
ATOM     19 BR   UNL     1      -7.263  13.214  24.065  0.00  0.00    +0.000 Br
ATOM     20  C   UNL     1      -5.261  13.241  22.036  0.00  0.00    +0.000 A 
ATOM     21  C   UNL     1      -3.968  13.063  21.534  0.00  0.00    +0.000 A 
ENDBRANCH  12  15
BRANCH  13  22
ATOM     22  C   UNL     1      -0.583  10.628  20.469  0.00  0.00    +0.000 A 
ATOM     23  C   UNL     1       0.211  10.401  19.331  0.00  0.00    +0.000 A 
ATOM     24  C   UNL     1       1.161   9.375  19.309  0.00  0.00    +0.000 A 
ATOM     25  C   UNL     1       1.322   8.565  20.427  0.00  0.00    +0.000 A 
ATOM     26  C   UNL     1       0.546   8.757  21.559  0.00  0.00    +0.000 A 
ATOM     27  C   UNL     1      -0.404   9.779  21.580  0.00  0.00    +0.000 A 
BRANCH  25  28
ATOM     28  O   UNL     1       2.237   7.555  20.452  0.00  0.00    +0.000 OA
ATOM     29  H   UNL     1       1.765   6.712  20.530  0.00  0.00    +0.000 HD
ENDBRANCH  25  28
ENDBRANCH  13  22
BRANCH   1  30
ATOM     30  O   UNL     1      -1.800  12.366  18.049  0.00  0.00    +0.000 OA
ATOM     31  H   UNL     1      -2.120  13.171  17.603  0.00  0.00    +0.000 HD
ENDBRANCH   1  30
TORSDOF 4
ENDMDL
