MODEL 1
REMARK VINA RESULT:     -10.9      0.000      0.000
REMARK  Name = 
REMARK  8 active torsions:
REMARK  status: ('A' for Active; 'I' for Inactive)
REMARK    1  A    between atoms: C_1  and  C_2
REMARK    2  A    between atoms: N_4  and  C_5
REMARK    3  A    between atoms: C_9  and  C_10
REMARK    4  A    between atoms: C_17  and  C_18
REMARK    5  A    between atoms: C_17  and  C_19
REMARK    6  A    between atoms: N_21  and  C_22
REMARK    7  A    between atoms: C_26  and  C_27
REMARK    8  A    between atoms: C_27  and  C_28
REMARK                            x       y       z     vdW  Elec       q    Type
REMARK                         _______ _______ _______ _____ _____    ______ ____
ROOT
ATOM      1  C   UNL     1       2.912   5.940  19.142  0.00  0.00    +0.000 A 
ATOM      2  C   UNL     1       2.122   4.820  19.465  0.00  0.00    +0.000 A 
ATOM      3  C   UNL     1       2.675   3.533  19.444  0.00  0.00    +0.000 A 
ATOM      4  N   UNL     1       3.953   3.266  19.123  0.00  0.00    +0.000 NA
ATOM      5  C   UNL     1       4.686   4.339  18.833  0.00  0.00    +0.000 A 
ATOM      6  C   UNL     1       4.247   5.653  18.840  0.00  0.00    +0.000 A 
ATOM      7  C   UNL     1       5.384   6.529  18.474  0.00  0.00    +0.000 C 
ATOM      8  C   UNL     1       6.498   5.496  18.196  0.00  0.00    +0.000 C 
ATOM      9  C   UNL     1       7.711   5.740  19.104  0.00  0.00    +0.000 C 
ATOM     10  O   UNL     1       6.007   4.169  18.466  0.00  0.00    +0.000 OA
ENDROOT
BRANCH   1  15
ATOM     11  C   UNL     1       0.883   9.066  20.063  0.00  0.00    +0.000 A 
ATOM     12  C   UNL     1       1.103   9.861  18.942  0.00  0.00    +0.000 A 
ATOM     13  C   UNL     1       1.930   9.416  17.918  0.00  0.00    +0.000 A 
ATOM     14  C   UNL     1       2.545   8.168  18.008  0.00  0.00    +0.000 A 
ATOM     15  C   UNL     1       2.328   7.309  19.097  0.00  0.00    +0.000 A 
ATOM     16  C   UNL     1       1.505   7.804  20.138  0.00  0.00    +0.000 A 
BRANCH  11  20
ATOM     17  C   UNL     1      -0.665   9.999  23.379  0.00  0.00    +0.000 C 
ATOM     18  C   UNL     1       0.468   9.636  22.456  0.00  0.00    +0.000 C 
ATOM     19  O   UNL     1       1.606   9.509  22.895  0.00  0.00    +0.000 OA
ATOM     20  N   UNL     1       0.064   9.482  21.138  0.00  0.00    +0.000 N 
ATOM     21  H   UNL     1      -0.875   9.779  20.906  0.00  0.00    +0.000 HD
ENDBRANCH  11  20
ENDBRANCH   1  15
BRANCH   8  22
ATOM     22  C   UNL     1       6.978   5.635  16.738  0.00  0.00    +0.000 C 
ATOM     23  O   UNL     1       7.878   6.425  16.455  0.00  0.00    +0.000 OA
ATOM     24  N   UNL     1       6.371   4.759  15.849  0.00  0.00    +0.000 N 
ATOM     25  H   UNL     1       5.522   4.305  16.181  0.00  0.00    +0.000 HD
BRANCH  24  26
ATOM     26  C   UNL     1       6.703   4.617  14.482  0.00  0.00    +0.000 A 
ATOM     27  C   UNL     1       7.671   5.406  13.857  0.00  0.00    +0.000 A 
ATOM     28  C   UNL     1       7.944   5.263  12.499  0.00  0.00    +0.000 A 
ATOM     29  C   UNL     1       7.255   4.323  11.739  0.00  0.00    +0.000 A 
ATOM     30  C   UNL     1       6.295   3.503  12.342  0.00  0.00    +0.000 A 
ATOM     31  C   UNL     1       6.036   3.647  13.723  0.00  0.00    +0.000 A 
BRANCH  30  32
ATOM     32  C   UNL     1       5.508   2.485  11.578  0.00  0.00    +0.000 C 
ATOM     33  C   UNL     1       6.120   1.165  11.170  0.00  0.00    +0.000 C 
ATOM     34  O   UNL     1       4.344   2.740  11.266  0.00  0.00    +0.000 OA
ENDBRANCH  30  32
ENDBRANCH  24  26
ENDBRANCH   8  22
TORSDOF 5
ENDMDL
MODEL 2
REMARK VINA RESULT:     -10.6      1.153      1.235
REMARK  Name = 
REMARK  8 active torsions:
REMARK  status: ('A' for Active; 'I' for Inactive)
REMARK    1  A    between atoms: C_1  and  C_2
REMARK    2  A    between atoms: N_4  and  C_5
REMARK    3  A    between atoms: C_9  and  C_10
REMARK    4  A    between atoms: C_17  and  C_18
REMARK    5  A    between atoms: C_17  and  C_19
REMARK    6  A    between atoms: N_21  and  C_22
REMARK    7  A    between atoms: C_26  and  C_27
REMARK    8  A    between atoms: C_27  and  C_28
REMARK                            x       y       z     vdW  Elec       q    Type
REMARK                         _______ _______ _______ _____ _____    ______ ____
ROOT
ATOM      1  C   UNL     1       2.607   5.966  19.809  0.00  0.00    +0.000 A 
ATOM      2  C   UNL     1       1.882   5.140  20.689  0.00  0.00    +0.000 A 
ATOM      3  C   UNL     1       2.303   3.827  20.938  0.00  0.00    +0.000 A 
ATOM      4  N   UNL     1       3.389   3.264  20.379  0.00  0.00    +0.000 NA
ATOM      5  C   UNL     1       4.068   4.066  19.560  0.00  0.00    +0.000 A 
ATOM      6  C   UNL     1       3.752   5.380  19.257  0.00  0.00    +0.000 A 
ATOM      7  C   UNL     1       4.773   5.904  18.323  0.00  0.00    +0.000 C 
ATOM      8  C   UNL     1       5.661   4.661  18.099  0.00  0.00    +0.000 C 
ATOM      9  C   UNL     1       7.115   4.945  18.499  0.00  0.00    +0.000 C 
ATOM     10  O   UNL     1       5.185   3.573  18.915  0.00  0.00    +0.000 OA
ENDROOT
BRANCH   1  15
ATOM     11  C   UNL     1       0.805   9.349  20.026  0.00  0.00    +0.000 A 
ATOM     12  C   UNL     1       1.143   9.905  18.795  0.00  0.00    +0.000 A 
ATOM     13  C   UNL     1       1.978   9.220  17.922  0.00  0.00    +0.000 A 
ATOM     14  C   UNL     1       2.481   7.967  18.272  0.00  0.00    +0.000 A 
ATOM     15  C   UNL     1       2.143   7.342  19.483  0.00  0.00    +0.000 A 
ATOM     16  C   UNL     1       1.316   8.080  20.365  0.00  0.00    +0.000 A 
BRANCH  11  20
ATOM     17  C   UNL     1      -0.947  10.776  23.052  0.00  0.00    +0.000 C 
ATOM     18  C   UNL     1       0.168  10.068  22.328  0.00  0.00    +0.000 C 
ATOM     19  O   UNL     1       1.120   9.612  22.954  0.00  0.00    +0.000 OA
ATOM     20  N   UNL     1      -0.026  10.015  20.956  0.00  0.00    +0.000 N 
ATOM     21  H   UNL     1      -0.776  10.577  20.574  0.00  0.00    +0.000 HD
ENDBRANCH  11  20
ENDBRANCH   1  15
BRANCH   8  22
ATOM     22  C   UNL     1       5.659   4.287  16.604  0.00  0.00    +0.000 C 
ATOM     23  O   UNL     1       4.728   3.637  16.129  0.00  0.00    +0.000 OA
ATOM     24  N   UNL     1       6.724   4.807  15.882  0.00  0.00    +0.000 N 
ATOM     25  H   UNL     1       7.507   5.155  16.431  0.00  0.00    +0.000 HD
BRANCH  24  26
ATOM     26  C   UNL     1       6.900   4.693  14.484  0.00  0.00    +0.000 A 
ATOM     27  C   UNL     1       7.830   5.460  13.778  0.00  0.00    +0.000 A 
ATOM     28  C   UNL     1       7.949   5.348  12.395  0.00  0.00    +0.000 A 
ATOM     29  C   UNL     1       7.140   4.461  11.690  0.00  0.00    +0.000 A 
ATOM     30  C   UNL     1       6.215   3.665  12.372  0.00  0.00    +0.000 A 
ATOM     31  C   UNL     1       6.112   3.777  13.776  0.00  0.00    +0.000 A 
BRANCH  30  32
ATOM     32  C   UNL     1       5.305   2.705  11.671  0.00  0.00    +0.000 C 
ATOM     33  C   UNL     1       3.921   3.120  11.226  0.00  0.00    +0.000 C 
ATOM     34  O   UNL     1       5.690   1.554  11.469  0.00  0.00    +0.000 OA
ENDBRANCH  30  32
ENDBRANCH  24  26
ENDBRANCH   8  22
TORSDOF 5
ENDMDL
MODEL 3
REMARK VINA RESULT:     -10.5      0.975      1.061
REMARK  Name = 
REMARK  8 active torsions:
REMARK  status: ('A' for Active; 'I' for Inactive)
REMARK    1  A    between atoms: C_1  and  C_2
REMARK    2  A    between atoms: N_4  and  C_5
REMARK    3  A    between atoms: C_9  and  C_10
REMARK    4  A    between atoms: C_17  and  C_18
REMARK    5  A    between atoms: C_17  and  C_19
REMARK    6  A    between atoms: N_21  and  C_22
REMARK    7  A    between atoms: C_26  and  C_27
REMARK    8  A    between atoms: C_27  and  C_28
REMARK                            x       y       z     vdW  Elec       q    Type
REMARK                         _______ _______ _______ _____ _____    ______ ____
ROOT
ATOM      1  C   UNL     1       2.738   5.561  19.105  0.00  0.00    +0.000 A 
ATOM      2  C   UNL     1       1.789   4.553  19.361  0.00  0.00    +0.000 A 
ATOM      3  C   UNL     1       2.187   3.211  19.444  0.00  0.00    +0.000 A 
ATOM      4  N   UNL     1       3.454   2.789  19.291  0.00  0.00    +0.000 NA
ATOM      5  C   UNL     1       4.337   3.760  19.063  0.00  0.00    +0.000 A 
ATOM      6  C   UNL     1       4.057   5.113  18.978  0.00  0.00    +0.000 A 
ATOM      7  C   UNL     1       5.324   5.839  18.731  0.00  0.00    +0.000 C 
ATOM      8  C   UNL     1       6.334   4.677  18.621  0.00  0.00    +0.000 C 
ATOM      9  C   UNL     1       7.452   4.820  19.664  0.00  0.00    +0.000 C 
ATOM     10  O   UNL     1       5.662   3.426  18.866  0.00  0.00    +0.000 OA
ENDROOT
BRANCH   1  15
ATOM     11  C   UNL     1       1.335   9.052  19.873  0.00  0.00    +0.000 A 
ATOM     12  C   UNL     1       1.416   9.649  18.618  0.00  0.00    +0.000 A 
ATOM     13  C   UNL     1       1.956   8.952  17.544  0.00  0.00    +0.000 A 
ATOM     14  C   UNL     1       2.420   7.648  17.718  0.00  0.00    +0.000 A 
ATOM     15  C   UNL     1       2.328   6.984  18.951  0.00  0.00    +0.000 A 
ATOM     16  C   UNL     1       1.802   7.731  20.033  0.00  0.00    +0.000 A 
BRANCH  11  20
ATOM     17  C   UNL     1      -0.595  10.253  22.889  0.00  0.00    +0.000 C 
ATOM     18  C   UNL     1      -0.194   9.256  21.833  0.00  0.00    +0.000 C 
ATOM     19  O   UNL     1      -0.743   8.160  21.777  0.00  0.00    +0.000 OA
ATOM     20  N   UNL     1       0.811   9.725  21.000  0.00  0.00    +0.000 N 
ATOM     21  H   UNL     1       1.273  10.583  21.274  0.00  0.00    +0.000 HD
ENDBRANCH  11  20
ENDBRANCH   1  15
BRANCH   8  22
ATOM     22  C   UNL     1       6.998   4.698  17.230  0.00  0.00    +0.000 C 
ATOM     23  O   UNL     1       8.222   4.643  17.127  0.00  0.00    +0.000 OA
ATOM     24  N   UNL     1       6.103   4.705  16.169  0.00  0.00    +0.000 N 
ATOM     25  H   UNL     1       5.141   4.943  16.399  0.00  0.00    +0.000 HD
BRANCH  24  26
ATOM     26  C   UNL     1       6.453   4.626  14.801  0.00  0.00    +0.000 A 
ATOM     27  C   UNL     1       7.482   5.386  14.243  0.00  0.00    +0.000 A 
ATOM     28  C   UNL     1       7.774   5.310  12.883  0.00  0.00    +0.000 A 
ATOM     29  C   UNL     1       7.040   4.466  12.054  0.00  0.00    +0.000 A 
ATOM     30  C   UNL     1       6.017   3.677  12.589  0.00  0.00    +0.000 A 
ATOM     31  C   UNL     1       5.739   3.752  13.971  0.00  0.00    +0.000 A 
BRANCH  30  32
ATOM     32  C   UNL     1       5.180   2.763  11.749  0.00  0.00    +0.000 C 
ATOM     33  C   UNL     1       3.835   3.199  11.216  0.00  0.00    +0.000 C 
ATOM     34  O   UNL     1       5.594   1.630  11.502  0.00  0.00    +0.000 OA
ENDBRANCH  30  32
ENDBRANCH  24  26
ENDBRANCH   8  22
TORSDOF 5
ENDMDL
MODEL 4
REMARK VINA RESULT:      -9.4      1.375      2.151
REMARK  Name = 
REMARK  8 active torsions:
REMARK  status: ('A' for Active; 'I' for Inactive)
REMARK    1  A    between atoms: C_1  and  C_2
REMARK    2  A    between atoms: N_4  and  C_5
REMARK    3  A    between atoms: C_9  and  C_10
REMARK    4  A    between atoms: C_17  and  C_18
REMARK    5  A    between atoms: C_17  and  C_19
REMARK    6  A    between atoms: N_21  and  C_22
REMARK    7  A    between atoms: C_26  and  C_27
REMARK    8  A    between atoms: C_27  and  C_28
REMARK                            x       y       z     vdW  Elec       q    Type
REMARK                         _______ _______ _______ _____ _____    ______ ____
ROOT
ATOM      1  C   UNL     1       2.683   5.424  19.982  0.00  0.00    +0.000 A 
ATOM      2  C   UNL     1       2.099   4.211  20.396  0.00  0.00    +0.000 A 
ATOM      3  C   UNL     1       2.769   2.997  20.192  0.00  0.00    +0.000 A 
ATOM      4  N   UNL     1       3.973   2.888  19.605  0.00  0.00    +0.000 NA
ATOM      5  C   UNL     1       4.513   4.048  19.233  0.00  0.00    +0.000 A 
ATOM      6  C   UNL     1       3.949   5.302  19.400  0.00  0.00    +0.000 A 
ATOM      7  C   UNL     1       4.887   6.313  18.862  0.00  0.00    +0.000 C 
ATOM      8  C   UNL     1       6.021   5.424  18.307  0.00  0.00    +0.000 C 
ATOM      9  C   UNL     1       7.364   5.775  18.962  0.00  0.00    +0.000 C 
ATOM     10  O   UNL     1       5.739   4.042  18.596  0.00  0.00    +0.000 OA
ENDROOT
BRANCH   1  15
ATOM     11  C   UNL     1       1.577   9.061  19.448  0.00  0.00    +0.000 A 
ATOM     12  C   UNL     1       0.695   9.226  20.512  0.00  0.00    +0.000 A 
ATOM     13  C   UNL     1       0.424   8.166  21.369  0.00  0.00    +0.000 A 
ATOM     14  C   UNL     1       1.037   6.930  21.168  0.00  0.00    +0.000 A 
ATOM     15  C   UNL     1       1.963   6.718  20.133  0.00  0.00    +0.000 A 
ATOM     16  C   UNL     1       2.194   7.808  19.260  0.00  0.00    +0.000 A 
BRANCH  11  20
ATOM     17  C   UNL     1       2.098  12.317  17.606  0.00  0.00    +0.000 C 
ATOM     18  C   UNL     1       1.820  11.461  18.814  0.00  0.00    +0.000 C 
ATOM     19  O   UNL     1       1.583  11.983  19.899  0.00  0.00    +0.000 OA
ATOM     20  N   UNL     1       1.871  10.103  18.539  0.00  0.00    +0.000 N 
ATOM     21  H   UNL     1       2.239   9.829  17.636  0.00  0.00    +0.000 HD
ENDBRANCH  11  20
ENDBRANCH   1  15
BRANCH   8  22
ATOM     22  C   UNL     1       6.171   5.664  16.791  0.00  0.00    +0.000 C 
ATOM     23  O   UNL     1       6.130   6.808  16.339  0.00  0.00    +0.000 OA
ATOM     24  N   UNL     1       6.425   4.518  16.052  0.00  0.00    +0.000 N 
ATOM     25  H   UNL     1       6.242   3.635  16.523  0.00  0.00    +0.000 HD
BRANCH  24  26
ATOM     26  C   UNL     1       6.698   4.480  14.665  0.00  0.00    +0.000 A 
ATOM     27  C   UNL     1       7.692   5.262  14.074  0.00  0.00    +0.000 A 
ATOM     28  C   UNL     1       7.908   5.226  12.697  0.00  0.00    +0.000 A 
ATOM     29  C   UNL     1       7.133   4.402  11.887  0.00  0.00    +0.000 A 
ATOM     30  C   UNL     1       6.144   3.592  12.454  0.00  0.00    +0.000 A 
ATOM     31  C   UNL     1       5.943   3.626  13.851  0.00  0.00    +0.000 A 
BRANCH  30  32
ATOM     32  C   UNL     1       5.266   2.698  11.636  0.00  0.00    +0.000 C 
ATOM     33  C   UNL     1       3.920   3.166  11.134  0.00  0.00    +0.000 C 
ATOM     34  O   UNL     1       5.646   1.554  11.382  0.00  0.00    +0.000 OA
ENDBRANCH  30  32
ENDBRANCH  24  26
ENDBRANCH   8  22
TORSDOF 5
ENDMDL
MODEL 5
REMARK VINA RESULT:      -9.2      1.317      1.583
REMARK  Name = 
REMARK  8 active torsions:
REMARK  status: ('A' for Active; 'I' for Inactive)
REMARK    1  A    between atoms: C_1  and  C_2
REMARK    2  A    between atoms: N_4  and  C_5
REMARK    3  A    between atoms: C_9  and  C_10
REMARK    4  A    between atoms: C_17  and  C_18
REMARK    5  A    between atoms: C_17  and  C_19
REMARK    6  A    between atoms: N_21  and  C_22
REMARK    7  A    between atoms: C_26  and  C_27
REMARK    8  A    between atoms: C_27  and  C_28
REMARK                            x       y       z     vdW  Elec       q    Type
REMARK                         _______ _______ _______ _____ _____    ______ ____
ROOT
ATOM      1  C   UNL     1       2.743   6.182  19.118  0.00  0.00    +0.000 A 
ATOM      2  C   UNL     1       2.100   5.155  19.836  0.00  0.00    +0.000 A 
ATOM      3  C   UNL     1       2.603   3.847  19.804  0.00  0.00    +0.000 A 
ATOM      4  N   UNL     1       3.694   3.475  19.113  0.00  0.00    +0.000 NA
ATOM      5  C   UNL     1       4.294   4.463  18.451  0.00  0.00    +0.000 A 
ATOM      6  C   UNL     1       3.894   5.789  18.427  0.00  0.00    +0.000 A 
ATOM      7  C   UNL     1       4.846   6.550  17.587  0.00  0.00    +0.000 C 
ATOM      8  C   UNL     1       5.791   5.434  17.093  0.00  0.00    +0.000 C 
ATOM      9  C   UNL     1       7.243   5.723  17.500  0.00  0.00    +0.000 C 
ATOM     10  O   UNL     1       5.410   4.178  17.689  0.00  0.00    +0.000 OA
ENDROOT
BRANCH   1  15
ATOM     11  C   UNL     1       1.047   9.451  20.202  0.00  0.00    +0.000 A 
ATOM     12  C   UNL     1       1.009  10.140  18.992  0.00  0.00    +0.000 A 
ATOM     13  C   UNL     1       1.561   9.578  17.848  0.00  0.00    +0.000 A 
ATOM     14  C   UNL     1       2.157   8.319  17.904  0.00  0.00    +0.000 A 
ATOM     15  C   UNL     1       2.190   7.564  19.088  0.00  0.00    +0.000 A 
ATOM     16  C   UNL     1       1.646   8.176  20.243  0.00  0.00    +0.000 A 
BRANCH  11  20
ATOM     17  C   UNL     1      -0.862  10.253  23.360  0.00  0.00    +0.000 C 
ATOM     18  C   UNL     1      -0.430   9.381  22.211  0.00  0.00    +0.000 C 
ATOM     19  O   UNL     1      -0.905   8.258  22.074  0.00  0.00    +0.000 OA
ATOM     20  N   UNL     1       0.514   9.988  21.397  0.00  0.00    +0.000 N 
ATOM     21  H   UNL     1       0.927  10.849  21.732  0.00  0.00    +0.000 HD
ENDBRANCH  11  20
ENDBRANCH   1  15
BRANCH   8  22
ATOM     22  C   UNL     1       5.749   5.364  15.554  0.00  0.00    +0.000 C 
ATOM     23  O   UNL     1       5.722   6.398  14.888  0.00  0.00    +0.000 OA
ATOM     24  N   UNL     1       5.822   4.078  15.036  0.00  0.00    +0.000 N 
ATOM     25  H   UNL     1       5.647   3.322  15.695  0.00  0.00    +0.000 HD
BRANCH  24  26
ATOM     26  C   UNL     1       5.901   3.750  13.663  0.00  0.00    +0.000 A 
ATOM     27  C   UNL     1       7.117   3.572  13.001  0.00  0.00    +0.000 A 
ATOM     28  C   UNL     1       7.156   3.286  11.638  0.00  0.00    +0.000 A 
ATOM     29  C   UNL     1       5.975   3.170  10.912  0.00  0.00    +0.000 A 
ATOM     30  C   UNL     1       4.741   3.322  11.552  0.00  0.00    +0.000 A 
ATOM     31  C   UNL     1       4.713   3.598  12.936  0.00  0.00    +0.000 A 
BRANCH  30  32
ATOM     32  C   UNL     1       3.437   3.226  10.824  0.00  0.00    +0.000 C 
ATOM     33  C   UNL     1       3.084   4.191   9.716  0.00  0.00    +0.000 C 
ATOM     34  O   UNL     1       2.634   2.350  11.148  0.00  0.00    +0.000 OA
ENDBRANCH  30  32
ENDBRANCH  24  26
ENDBRANCH   8  22
TORSDOF 5
ENDMDL
MODEL 6
REMARK VINA RESULT:      -9.2      1.875      9.088
REMARK  Name = 
REMARK  8 active torsions:
REMARK  status: ('A' for Active; 'I' for Inactive)
REMARK    1  A    between atoms: C_1  and  C_2
REMARK    2  A    between atoms: N_4  and  C_5
REMARK    3  A    between atoms: C_9  and  C_10
REMARK    4  A    between atoms: C_17  and  C_18
REMARK    5  A    between atoms: C_17  and  C_19
REMARK    6  A    between atoms: N_21  and  C_22
REMARK    7  A    between atoms: C_26  and  C_27
REMARK    8  A    between atoms: C_27  and  C_28
REMARK                            x       y       z     vdW  Elec       q    Type
REMARK                         _______ _______ _______ _____ _____    ______ ____
ROOT
ATOM      1  C   UNL     1       6.675   4.469  16.232  0.00  0.00    +0.000 A 
ATOM      2  C   UNL     1       7.864   4.632  16.969  0.00  0.00    +0.000 A 
ATOM      3  C   UNL     1       7.826   4.693  18.369  0.00  0.00    +0.000 A 
ATOM      4  N   UNL     1       6.700   4.608  19.098  0.00  0.00    +0.000 NA
ATOM      5  C   UNL     1       5.589   4.442  18.382  0.00  0.00    +0.000 A 
ATOM      6  C   UNL     1       5.513   4.352  17.002  0.00  0.00    +0.000 A 
ATOM      7  C   UNL     1       4.096   4.155  16.623  0.00  0.00    +0.000 C 
ATOM      8  C   UNL     1       3.392   4.220  17.995  0.00  0.00    +0.000 C 
ATOM      9  C   UNL     1       2.607   2.930  18.272  0.00  0.00    +0.000 C 
ATOM     10  O   UNL     1       4.375   4.369  19.037  0.00  0.00    +0.000 OA
ENDROOT
BRANCH   1  15
ATOM     11  C   UNL     1       5.818   3.626  12.586  0.00  0.00    +0.000 A 
ATOM     12  C   UNL     1       6.800   4.346  11.912  0.00  0.00    +0.000 A 
ATOM     13  C   UNL     1       7.703   5.131  12.619  0.00  0.00    +0.000 A 
ATOM     14  C   UNL     1       7.631   5.200  14.010  0.00  0.00    +0.000 A 
ATOM     15  C   UNL     1       6.685   4.465  14.743  0.00  0.00    +0.000 A 
ATOM     16  C   UNL     1       5.760   3.699  13.992  0.00  0.00    +0.000 A 
BRANCH  11  20
ATOM     17  C   UNL     1       2.960   2.197  10.572  0.00  0.00    +0.000 C 
ATOM     18  C   UNL     1       3.875   3.290  11.058  0.00  0.00    +0.000 C 
ATOM     19  O   UNL     1       3.701   4.448  10.693  0.00  0.00    +0.000 OA
ATOM     20  N   UNL     1       4.866   2.828  11.911  0.00  0.00    +0.000 N 
ATOM     21  H   UNL     1       4.977   1.825  11.987  0.00  0.00    +0.000 HD
ENDBRANCH  11  20
ENDBRANCH   1  15
BRANCH   8  22
ATOM     22  C   UNL     1       2.381   5.385  18.002  0.00  0.00    +0.000 C 
ATOM     23  O   UNL     1       1.241   5.217  17.572  0.00  0.00    +0.000 OA
ATOM     24  N   UNL     1       2.854   6.550  18.590  0.00  0.00    +0.000 N 
ATOM     25  H   UNL     1       3.861   6.604  18.724  0.00  0.00    +0.000 HD
BRANCH  24  26
ATOM     26  C   UNL     1       2.096   7.723  18.809  0.00  0.00    +0.000 A 
ATOM     27  C   UNL     1       1.668   8.547  17.767  0.00  0.00    +0.000 A 
ATOM     28  C   UNL     1       0.954   9.716  18.024  0.00  0.00    +0.000 A 
ATOM     29  C   UNL     1       0.653  10.080  19.333  0.00  0.00    +0.000 A 
ATOM     30  C   UNL     1       1.051   9.264  20.397  0.00  0.00    +0.000 A 
ATOM     31  C   UNL     1       1.761   8.075  20.124  0.00  0.00    +0.000 A 
BRANCH  30  32
ATOM     32  C   UNL     1       0.773   9.608  21.827  0.00  0.00    +0.000 C 
ATOM     33  C   UNL     1      -0.492  10.331  22.228  0.00  0.00    +0.000 C 
ATOM     34  O   UNL     1       1.602   9.307  22.686  0.00  0.00    +0.000 OA
ENDBRANCH  30  32
ENDBRANCH  24  26
ENDBRANCH   8  22
TORSDOF 5
ENDMDL
MODEL 7
REMARK VINA RESULT:      -9.1      1.820      2.431
REMARK  Name = 
REMARK  8 active torsions:
REMARK  status: ('A' for Active; 'I' for Inactive)
REMARK    1  A    between atoms: C_1  and  C_2
REMARK    2  A    between atoms: N_4  and  C_5
REMARK    3  A    between atoms: C_9  and  C_10
REMARK    4  A    between atoms: C_17  and  C_18
REMARK    5  A    between atoms: C_17  and  C_19
REMARK    6  A    between atoms: N_21  and  C_22
REMARK    7  A    between atoms: C_26  and  C_27
REMARK    8  A    between atoms: C_27  and  C_28
REMARK                            x       y       z     vdW  Elec       q    Type
REMARK                         _______ _______ _______ _____ _____    ______ ____
ROOT
ATOM      1  C   UNL     1       2.074   6.090  20.053  0.00  0.00    +0.000 A 
ATOM      2  C   UNL     1       1.314   5.017  20.556  0.00  0.00    +0.000 A 
ATOM      3  C   UNL     1       1.763   3.698  20.403  0.00  0.00    +0.000 A 
ATOM      4  N   UNL     1       2.907   3.357  19.785  0.00  0.00    +0.000 NA
ATOM      5  C   UNL     1       3.617   4.387  19.328  0.00  0.00    +0.000 A 
ATOM      6  C   UNL     1       3.278   5.725  19.440  0.00  0.00    +0.000 A 
ATOM      7  C   UNL     1       4.348   6.534  18.813  0.00  0.00    +0.000 C 
ATOM      8  C   UNL     1       5.294   5.438  18.275  0.00  0.00    +0.000 C 
ATOM      9  C   UNL     1       6.703   5.592  18.866  0.00  0.00    +0.000 C 
ATOM     10  O   UNL     1       4.797   4.140  18.655  0.00  0.00    +0.000 OA
ENDROOT
BRANCH   1  15
ATOM     11  C   UNL     1       0.545   9.487  19.126  0.00  0.00    +0.000 A 
ATOM     12  C   UNL     1       0.788  10.210  20.290  0.00  0.00    +0.000 A 
ATOM     13  C   UNL     1       1.398   9.601  21.379  0.00  0.00    +0.000 A 
ATOM     14  C   UNL     1       1.772   8.259  21.312  0.00  0.00    +0.000 A 
ATOM     15  C   UNL     1       1.586   7.493  20.150  0.00  0.00    +0.000 A 
ATOM     16  C   UNL     1       0.935   8.134  19.069  0.00  0.00    +0.000 A 
BRANCH  11  20
ATOM     17  C   UNL     1      -1.814  10.739  16.455  0.00  0.00    +0.000 C 
ATOM     18  C   UNL     1      -1.456  10.171  17.804  0.00  0.00    +0.000 C 
ATOM     19  O   UNL     1      -2.339   9.866  18.599  0.00  0.00    +0.000 OA
ATOM     20  N   UNL     1      -0.088  10.057  17.997  0.00  0.00    +0.000 N 
ATOM     21  H   UNL     1       0.513  10.502  17.315  0.00  0.00    +0.000 HD
ENDBRANCH  11  20
ENDBRANCH   1  15
BRANCH   8  22
ATOM     22  C   UNL     1       5.420   5.569  16.745  0.00  0.00    +0.000 C 
ATOM     23  O   UNL     1       4.925   6.534  16.163  0.00  0.00    +0.000 OA
ATOM     24  N   UNL     1       6.179   4.575  16.145  0.00  0.00    +0.000 N 
ATOM     25  H   UNL     1       6.360   3.749  16.712  0.00  0.00    +0.000 HD
BRANCH  24  26
ATOM     26  C   UNL     1       6.526   4.521  14.775  0.00  0.00    +0.000 A 
ATOM     27  C   UNL     1       7.559   5.287  14.231  0.00  0.00    +0.000 A 
ATOM     28  C   UNL     1       7.848   5.236  12.869  0.00  0.00    +0.000 A 
ATOM     29  C   UNL     1       7.108   4.413  12.025  0.00  0.00    +0.000 A 
ATOM     30  C   UNL     1       6.082   3.618  12.546  0.00  0.00    +0.000 A 
ATOM     31  C   UNL     1       5.806   3.668  13.929  0.00  0.00    +0.000 A 
BRANCH  30  32
ATOM     32  C   UNL     1       5.239   2.726  11.689  0.00  0.00    +0.000 C 
ATOM     33  C   UNL     1       3.895   3.179  11.168  0.00  0.00    +0.000 C 
ATOM     34  O   UNL     1       5.648   1.596  11.418  0.00  0.00    +0.000 OA
ENDBRANCH  30  32
ENDBRANCH  24  26
ENDBRANCH   8  22
TORSDOF 5
ENDMDL
MODEL 8
REMARK VINA RESULT:      -9.1      1.509      2.085
REMARK  Name = 
REMARK  8 active torsions:
REMARK  status: ('A' for Active; 'I' for Inactive)
REMARK    1  A    between atoms: C_1  and  C_2
REMARK    2  A    between atoms: N_4  and  C_5
REMARK    3  A    between atoms: C_9  and  C_10
REMARK    4  A    between atoms: C_17  and  C_18
REMARK    5  A    between atoms: C_17  and  C_19
REMARK    6  A    between atoms: N_21  and  C_22
REMARK    7  A    between atoms: C_26  and  C_27
REMARK    8  A    between atoms: C_27  and  C_28
REMARK                            x       y       z     vdW  Elec       q    Type
REMARK                         _______ _______ _______ _____ _____    ______ ____
ROOT
ATOM      1  C   UNL     1       2.670   5.752  19.663  0.00  0.00    +0.000 A 
ATOM      2  C   UNL     1       1.775   4.772  20.134  0.00  0.00    +0.000 A 
ATOM      3  C   UNL     1       2.216   3.460  20.358  0.00  0.00    +0.000 A 
ATOM      4  N   UNL     1       3.476   3.041  20.148  0.00  0.00    +0.000 NA
ATOM      5  C   UNL     1       4.309   3.987  19.715  0.00  0.00    +0.000 A 
ATOM      6  C   UNL     1       3.985   5.312  19.477  0.00  0.00    +0.000 A 
ATOM      7  C   UNL     1       5.204   6.018  19.023  0.00  0.00    +0.000 C 
ATOM      8  C   UNL     1       6.233   4.868  18.977  0.00  0.00    +0.000 C 
ATOM      9  C   UNL     1       7.433   5.168  19.886  0.00  0.00    +0.000 C 
ATOM     10  O   UNL     1       5.620   3.651  19.444  0.00  0.00    +0.000 OA
ENDROOT
BRANCH   1  15
ATOM     11  C   UNL     1       0.900   9.147  19.950  0.00  0.00    +0.000 A 
ATOM     12  C   UNL     1       1.213   9.711  18.717  0.00  0.00    +0.000 A 
ATOM     13  C   UNL     1       2.022   9.027  17.818  0.00  0.00    +0.000 A 
ATOM     14  C   UNL     1       2.523   7.767  18.146  0.00  0.00    +0.000 A 
ATOM     15  C   UNL     1       2.208   7.135  19.359  0.00  0.00    +0.000 A 
ATOM     16  C   UNL     1       1.408   7.871  20.266  0.00  0.00    +0.000 A 
BRANCH  11  20
ATOM     17  C   UNL     1      -0.723  10.623  23.024  0.00  0.00    +0.000 C 
ATOM     18  C   UNL     1       0.379   9.942  22.256  0.00  0.00    +0.000 C 
ATOM     19  O   UNL     1       1.396   9.571  22.834  0.00  0.00    +0.000 OA
ATOM     20  N   UNL     1       0.096   9.811  20.905  0.00  0.00    +0.000 N 
ATOM     21  H   UNL     1      -0.709  10.312  20.552  0.00  0.00    +0.000 HD
ENDBRANCH  11  20
ENDBRANCH   1  15
BRANCH   8  22
ATOM     22  C   UNL     1       6.771   4.714  17.541  0.00  0.00    +0.000 C 
ATOM     23  O   UNL     1       7.973   4.536  17.346  0.00  0.00    +0.000 OA
ATOM     24  N   UNL     1       5.792   4.716  16.558  0.00  0.00    +0.000 N 
ATOM     25  H   UNL     1       4.877   5.061  16.842  0.00  0.00    +0.000 HD
BRANCH  24  26
ATOM     26  C   UNL     1       6.012   4.493  15.180  0.00  0.00    +0.000 A 
ATOM     27  C   UNL     1       5.315   3.525  14.454  0.00  0.00    +0.000 A 
ATOM     28  C   UNL     1       5.586   3.308  13.104  0.00  0.00    +0.000 A 
ATOM     29  C   UNL     1       6.559   4.061  12.454  0.00  0.00    +0.000 A 
ATOM     30  C   UNL     1       7.258   5.052  13.150  0.00  0.00    +0.000 A 
ATOM     31  C   UNL     1       6.967   5.273  14.514  0.00  0.00    +0.000 A 
BRANCH  30  32
ATOM     32  C   UNL     1       8.328   5.883  12.513  0.00  0.00    +0.000 C 
ATOM     33  C   UNL     1       8.156   6.454  11.125  0.00  0.00    +0.000 C 
ATOM     34  O   UNL     1       9.372   6.091  13.132  0.00  0.00    +0.000 OA
ENDBRANCH  30  32
ENDBRANCH  24  26
ENDBRANCH   8  22
TORSDOF 5
ENDMDL
MODEL 9
REMARK VINA RESULT:      -8.8      4.474     10.104
REMARK  Name = 
REMARK  8 active torsions:
REMARK  status: ('A' for Active; 'I' for Inactive)
REMARK    1  A    between atoms: C_1  and  C_2
REMARK    2  A    between atoms: N_4  and  C_5
REMARK    3  A    between atoms: C_9  and  C_10
REMARK    4  A    between atoms: C_17  and  C_18
REMARK    5  A    between atoms: C_17  and  C_19
REMARK    6  A    between atoms: N_21  and  C_22
REMARK    7  A    between atoms: C_26  and  C_27
REMARK    8  A    between atoms: C_27  and  C_28
REMARK                            x       y       z     vdW  Elec       q    Type
REMARK                         _______ _______ _______ _____ _____    ______ ____
ROOT
ATOM      1  C   UNL     1       1.091   8.787  20.633  0.00  0.00    +0.000 A 
ATOM      2  C   UNL     1       1.303   8.672  22.020  0.00  0.00    +0.000 A 
ATOM      3  C   UNL     1       0.668   9.550  22.909  0.00  0.00    +0.000 A 
ATOM      4  N   UNL     1      -0.161  10.538  22.531  0.00  0.00    +0.000 NA
ATOM      5  C   UNL     1      -0.358  10.622  21.216  0.00  0.00    +0.000 A 
ATOM      6  C   UNL     1       0.203   9.800  20.253  0.00  0.00    +0.000 A 
ATOM      7  C   UNL     1      -0.291  10.229  18.925  0.00  0.00    +0.000 C 
ATOM      8  C   UNL     1      -1.153  11.456  19.293  0.00  0.00    +0.000 C 
ATOM      9  C   UNL     1      -2.602  11.270  18.823  0.00  0.00    +0.000 C 
ATOM     10  O   UNL     1      -1.173  11.622  20.724  0.00  0.00    +0.000 OA
ENDROOT
BRANCH   1  15
ATOM     11  C   UNL     1       2.646   5.680  19.001  0.00  0.00    +0.000 A 
ATOM     12  C   UNL     1       3.282   6.251  17.903  0.00  0.00    +0.000 A 
ATOM     13  C   UNL     1       3.177   7.615  17.663  0.00  0.00    +0.000 A 
ATOM     14  C   UNL     1       2.433   8.422  18.524  0.00  0.00    +0.000 A 
ATOM     15  C   UNL     1       1.803   7.906  19.668  0.00  0.00    +0.000 A 
ATOM     16  C   UNL     1       1.903   6.507  19.867  0.00  0.00    +0.000 A 
BRANCH  11  20
ATOM     17  C   UNL     1       2.185   1.939  19.248  0.00  0.00    +0.000 C 
ATOM     18  C   UNL     1       1.953   3.307  18.663  0.00  0.00    +0.000 C 
ATOM     19  O   UNL     1       1.163   3.457  17.736  0.00  0.00    +0.000 OA
ATOM     20  N   UNL     1       2.708   4.294  19.278  0.00  0.00    +0.000 N 
ATOM     21  H   UNL     1       3.433   3.990  19.915  0.00  0.00    +0.000 HD
ENDBRANCH  11  20
ENDBRANCH   1  15
BRANCH   8  22
ATOM     22  C   UNL     1      -0.597  12.708  18.587  0.00  0.00    +0.000 C 
ATOM     23  O   UNL     1      -0.862  12.922  17.405  0.00  0.00    +0.000 OA
ATOM     24  N   UNL     1       0.127  13.557  19.412  0.00  0.00    +0.000 N 
ATOM     25  H   UNL     1       0.426  13.165  20.302  0.00  0.00    +0.000 HD
BRANCH  24  26
ATOM     26  C   UNL     1       0.657  14.813  19.035  0.00  0.00    +0.000 A 
ATOM     27  C   UNL     1      -0.150  15.924  18.783  0.00  0.00    +0.000 A 
ATOM     28  C   UNL     1       0.405  17.136  18.377  0.00  0.00    +0.000 A 
ATOM     29  C   UNL     1       1.782  17.259  18.218  0.00  0.00    +0.000 A 
ATOM     30  C   UNL     1       2.617  16.169  18.484  0.00  0.00    +0.000 A 
ATOM     31  C   UNL     1       2.045  14.950  18.908  0.00  0.00    +0.000 A 
BRANCH  30  32
ATOM     32  C   UNL     1       4.103  16.231  18.316  0.00  0.00    +0.000 C 
ATOM     33  C   UNL     1       4.892  15.026  17.857  0.00  0.00    +0.000 C 
ATOM     34  O   UNL     1       4.691  17.283  18.571  0.00  0.00    +0.000 OA
ENDBRANCH  30  32
ENDBRANCH  24  26
ENDBRANCH   8  22
TORSDOF 5
ENDMDL
