MODEL 1
REMARK VINA RESULT:      -7.4      0.000      0.000
REMARK  Name = 
REMARK  8 active torsions:
REMARK  status: ('A' for Active; 'I' for Inactive)
REMARK    1  A    between atoms: C_1  and  N_2
REMARK    2  A    between atoms: N_5  and  C_6
REMARK    3  A    between atoms: C_6  and  C_7
REMARK    4  A    between atoms: C_8  and  C_9
REMARK    5  A    between atoms: C_9  and  C_10
REMARK    6  A    between atoms: C_10  and  O_11
REMARK    7  A    between atoms: C_10  and  C_12
REMARK    8  A    between atoms: C_10  and  C_18
REMARK                            x       y       z     vdW  Elec       q    Type
REMARK                         _______ _______ _______ _____ _____    ______ ____
ROOT
ATOM      1  C   UNL     1       3.811   6.011  17.852  0.00  0.00    +0.000 C 
ENDROOT
BRANCH   1   2
ATOM      2  C   UNL     1       2.746   5.198  18.603  0.00  0.00    +0.000 A 
ATOM      3  C   UNL     1       2.687   5.159  20.010  0.00  0.00    +0.000 A 
ATOM      4  C   UNL     1       1.818   4.289  20.674  0.00  0.00    +0.000 A 
ATOM      5  C   UNL     1       0.967   3.460  19.953  0.00  0.00    +0.000 A 
ATOM      6  C   UNL     1       0.958   3.527  18.562  0.00  0.00    +0.000 A 
ATOM      7  C   UNL     1       1.830   4.393  17.899  0.00  0.00    +0.000 A 
ENDBRANCH   1   2
BRANCH   1   8
ATOM      8  C   UNL     1       4.441   5.301  16.621  0.00  0.00    +0.000 C 
ATOM      9  C   UNL     1       5.305   6.155  15.692  0.00  0.00    +0.000 C 
ATOM     10  C   UNL     1       5.923   5.127  14.749  0.00  0.00    +0.000 C 
ATOM     11  C   UNL     1       6.066   3.846  15.572  0.00  0.00    +0.000 C 
ATOM     12  C   UNL     1       5.353   4.107  16.900  0.00  0.00    +0.000 C 
ENDBRANCH   1   8
BRANCH   1  13
ATOM     13  O   UNL     1       4.918   6.242  18.759  0.00  0.00    +0.000 OA
ATOM     14  H   UNL     1       4.787   7.135  19.123  0.00  0.00    +0.000 HD
ENDBRANCH   1  13
BRANCH   1  15
ATOM     15  C   UNL     1       3.315   7.425  17.414  0.00  0.00    +0.000 C 
BRANCH  15  17
ATOM     16  C   UNL     1       1.494   8.581  19.236  0.00  0.00    +0.000 C 
ATOM     17  C   UNL     1       2.335   8.047  18.395  0.00  0.00    +0.000 C 
BRANCH  16  18
ATOM     18  C   UNL     1       0.554   9.214  20.175  0.00  0.00    +0.000 C 
BRANCH  18  23
ATOM     19  C   UNL     1      -2.101  11.727  23.351  0.00  0.00    +0.000 C 
ATOM     20  N   UNL     1      -0.750  11.331  22.974  0.00  0.00    +0.000 NA
ATOM     21  C   UNL     1      -0.383  11.845  21.644  0.00  0.00    +0.000 C 
ATOM     22  C   UNL     1       1.025  11.370  21.194  0.00  0.00    +0.000 C 
ATOM     23  N   UNL     1       1.252   9.908  21.265  0.00  0.00    +0.000 NA
ATOM     24  C   UNL     1       0.834   9.444  22.607  0.00  0.00    +0.000 C 
ATOM     25  C   UNL     1      -0.594   9.867  23.016  0.00  0.00    +0.000 C 
ENDBRANCH  18  23
ENDBRANCH  16  18
ENDBRANCH  15  17
ENDBRANCH   1  15
TORSDOF 7
ENDMDL
MODEL 2
REMARK VINA RESULT:      -7.3      0.545      1.120
REMARK  Name = 
REMARK  8 active torsions:
REMARK  status: ('A' for Active; 'I' for Inactive)
REMARK    1  A    between atoms: C_1  and  N_2
REMARK    2  A    between atoms: N_5  and  C_6
REMARK    3  A    between atoms: C_6  and  C_7
REMARK    4  A    between atoms: C_8  and  C_9
REMARK    5  A    between atoms: C_9  and  C_10
REMARK    6  A    between atoms: C_10  and  O_11
REMARK    7  A    between atoms: C_10  and  C_12
REMARK    8  A    between atoms: C_10  and  C_18
REMARK                            x       y       z     vdW  Elec       q    Type
REMARK                         _______ _______ _______ _____ _____    ______ ____
ROOT
ATOM      1  C   UNL     1       3.943   5.666  18.188  0.00  0.00    +0.000 C 
ENDROOT
BRANCH   1   2
ATOM      2  C   UNL     1       2.899   4.721  18.801  0.00  0.00    +0.000 A 
ATOM      3  C   UNL     1       1.943   4.049  18.016  0.00  0.00    +0.000 A 
ATOM      4  C   UNL     1       0.903   3.324  18.603  0.00  0.00    +0.000 A 
ATOM      5  C   UNL     1       0.809   3.227  19.986  0.00  0.00    +0.000 A 
ATOM      6  C   UNL     1       1.779   3.826  20.785  0.00  0.00    +0.000 A 
ATOM      7  C   UNL     1       2.816   4.555  20.197  0.00  0.00    +0.000 A 
ENDBRANCH   1   2
BRANCH   1   8
ATOM      8  C   UNL     1       4.683   5.114  16.937  0.00  0.00    +0.000 C 
ATOM      9  C   UNL     1       5.121   6.131  15.882  0.00  0.00    +0.000 C 
ATOM     10  C   UNL     1       5.984   5.301  14.935  0.00  0.00    +0.000 C 
ATOM     11  C   UNL     1       6.627   4.219  15.804  0.00  0.00    +0.000 C 
ATOM     12  C   UNL     1       5.973   4.331  17.183  0.00  0.00    +0.000 C 
ENDBRANCH   1   8
BRANCH   1  13
ATOM     13  O   UNL     1       4.984   5.882  19.173  0.00  0.00    +0.000 OA
ATOM     14  H   UNL     1       5.468   6.676  18.884  0.00  0.00    +0.000 HD
ENDBRANCH   1  13
BRANCH   1  15
ATOM     15  C   UNL     1       3.374   7.079  17.848  0.00  0.00    +0.000 C 
BRANCH  15  17
ATOM     16  C   UNL     1       1.565   8.047  19.788  0.00  0.00    +0.000 C 
ATOM     17  C   UNL     1       2.400   7.600  18.892  0.00  0.00    +0.000 C 
BRANCH  16  18
ATOM     18  C   UNL     1       0.622   8.522  20.813  0.00  0.00    +0.000 C 
BRANCH  18  23
ATOM     19  C   UNL     1      -2.249  11.918  22.729  0.00  0.00    +0.000 C 
ATOM     20  N   UNL     1      -0.881  11.421  22.643  0.00  0.00    +0.000 NA
ATOM     21  C   UNL     1      -0.365  11.484  21.266  0.00  0.00    +0.000 C 
ATOM     22  C   UNL     1       1.063  10.889  21.141  0.00  0.00    +0.000 C 
ATOM     23  N   UNL     1       1.231   9.526  21.695  0.00  0.00    +0.000 NA
ATOM     24  C   UNL     1       0.665   9.514  23.063  0.00  0.00    +0.000 C 
ATOM     25  C   UNL     1      -0.781  10.047  23.163  0.00  0.00    +0.000 C 
ENDBRANCH  18  23
ENDBRANCH  16  18
ENDBRANCH  15  17
ENDBRANCH   1  15
TORSDOF 7
ENDMDL
MODEL 3
REMARK VINA RESULT:      -7.3      3.459      6.470
REMARK  Name = 
REMARK  8 active torsions:
REMARK  status: ('A' for Active; 'I' for Inactive)
REMARK    1  A    between atoms: C_1  and  N_2
REMARK    2  A    between atoms: N_5  and  C_6
REMARK    3  A    between atoms: C_6  and  C_7
REMARK    4  A    between atoms: C_8  and  C_9
REMARK    5  A    between atoms: C_9  and  C_10
REMARK    6  A    between atoms: C_10  and  O_11
REMARK    7  A    between atoms: C_10  and  C_12
REMARK    8  A    between atoms: C_10  and  C_18
REMARK                            x       y       z     vdW  Elec       q    Type
REMARK                         _______ _______ _______ _____ _____    ______ ____
ROOT
ATOM      1  C   UNL     1       6.049   4.729  15.952  0.00  0.00    +0.000 C 
ENDROOT
BRANCH   1   2
ATOM      2  C   UNL     1       6.369   4.600  14.455  0.00  0.00    +0.000 A 
ATOM      3  C   UNL     1       5.662   3.721  13.611  0.00  0.00    +0.000 A 
ATOM      4  C   UNL     1       6.071   3.497  12.294  0.00  0.00    +0.000 A 
ATOM      5  C   UNL     1       7.175   4.165  11.778  0.00  0.00    +0.000 A 
ATOM      6  C   UNL     1       7.851   5.090  12.570  0.00  0.00    +0.000 A 
ATOM      7  C   UNL     1       7.445   5.310  13.888  0.00  0.00    +0.000 A 
ENDBRANCH   1   2
BRANCH   1   8
ATOM      8  C   UNL     1       7.047   5.598  16.770  0.00  0.00    +0.000 C 
ATOM      9  C   UNL     1       6.677   7.066  16.984  0.00  0.00    +0.000 C 
ATOM     10  C   UNL     1       7.728   7.547  17.982  0.00  0.00    +0.000 C 
ATOM     11  C   UNL     1       8.073   6.327  18.837  0.00  0.00    +0.000 C 
ATOM     12  C   UNL     1       7.364   5.135  18.192  0.00  0.00    +0.000 C 
ENDBRANCH   1   8
BRANCH   1  13
ATOM     13  O   UNL     1       6.131   3.408  16.542  0.00  0.00    +0.000 OA
ATOM     14  H   UNL     1       6.016   3.534  17.501  0.00  0.00    +0.000 HD
ENDBRANCH   1  13
BRANCH   1  15
ATOM     15  C   UNL     1       4.600   5.235  16.234  0.00  0.00    +0.000 C 
BRANCH  15  17
ATOM     16  C   UNL     1       2.996   3.330  17.565  0.00  0.00    +0.000 C 
ATOM     17  C   UNL     1       3.736   4.210  16.950  0.00  0.00    +0.000 C 
BRANCH  16  18
ATOM     18  C   UNL     1       2.158   2.321  18.231  0.00  0.00    +0.000 C 
BRANCH  18  23
ATOM     19  C   UNL     1       1.703   6.439  20.738  0.00  0.00    +0.000 C 
ATOM     20  N   UNL     1       2.018   5.018  20.823  0.00  0.00    +0.000 NA
ATOM     21  C   UNL     1       3.218   4.679  20.040  0.00  0.00    +0.000 C 
ATOM     22  C   UNL     1       3.525   3.157  20.057  0.00  0.00    +0.000 C 
ATOM     23  N   UNL     1       2.394   2.279  19.679  0.00  0.00    +0.000 NA
ATOM     24  C   UNL     1       1.212   2.688  20.471  0.00  0.00    +0.000 C 
ATOM     25  C   UNL     1       0.877   4.193  20.392  0.00  0.00    +0.000 C 
ENDBRANCH  18  23
ENDBRANCH  16  18
ENDBRANCH  15  17
ENDBRANCH   1  15
TORSDOF 7
ENDMDL
MODEL 4
REMARK VINA RESULT:      -7.3      3.929      6.800
REMARK  Name = 
REMARK  8 active torsions:
REMARK  status: ('A' for Active; 'I' for Inactive)
REMARK    1  A    between atoms: C_1  and  N_2
REMARK    2  A    between atoms: N_5  and  C_6
REMARK    3  A    between atoms: C_6  and  C_7
REMARK    4  A    between atoms: C_8  and  C_9
REMARK    5  A    between atoms: C_9  and  C_10
REMARK    6  A    between atoms: C_10  and  O_11
REMARK    7  A    between atoms: C_10  and  C_12
REMARK    8  A    between atoms: C_10  and  C_18
REMARK                            x       y       z     vdW  Elec       q    Type
REMARK                         _______ _______ _______ _____ _____    ______ ____
ROOT
ATOM      1  C   UNL     1       6.068   5.082  16.068  0.00  0.00    +0.000 C 
ENDROOT
BRANCH   1   2
ATOM      2  C   UNL     1       6.541   4.731  14.649  0.00  0.00    +0.000 A 
ATOM      3  C   UNL     1       7.593   5.422  14.018  0.00  0.00    +0.000 A 
ATOM      4  C   UNL     1       7.901   5.200  12.673  0.00  0.00    +0.000 A 
ATOM      5  C   UNL     1       7.189   4.262  11.935  0.00  0.00    +0.000 A 
ATOM      6  C   UNL     1       6.188   3.517  12.554  0.00  0.00    +0.000 A 
ATOM      7  C   UNL     1       5.877   3.744  13.896  0.00  0.00    +0.000 A 
ENDBRANCH   1   2
BRANCH   1   8
ATOM      8  C   UNL     1       7.165   5.654  17.011  0.00  0.00    +0.000 C 
ATOM      9  C   UNL     1       7.116   7.154  17.305  0.00  0.00    +0.000 C 
ATOM     10  C   UNL     1       8.164   7.327  18.402  0.00  0.00    +0.000 C 
ATOM     11  C   UNL     1       8.159   6.015  19.188  0.00  0.00    +0.000 C 
ATOM     12  C   UNL     1       7.256   5.054  18.413  0.00  0.00    +0.000 C 
ENDBRANCH   1   8
BRANCH   1  13
ATOM     13  O   UNL     1       5.626   3.859  16.707  0.00  0.00    +0.000 OA
ATOM     14  H   UNL     1       6.298   3.649  17.380  0.00  0.00    +0.000 HD
ENDBRANCH   1  13
BRANCH   1  15
ATOM     15  C   UNL     1       4.840   6.045  16.090  0.00  0.00    +0.000 C 
BRANCH  15  17
ATOM     16  C   UNL     1       3.279   5.805  18.431  0.00  0.00    +0.000 C 
ATOM     17  C   UNL     1       3.999   5.916  17.350  0.00  0.00    +0.000 C 
BRANCH  16  18
ATOM     18  C   UNL     1       2.481   5.652  19.658  0.00  0.00    +0.000 C 
BRANCH  18  23
ATOM     19  C   UNL     1       3.743   1.065  18.750  0.00  0.00    +0.000 C 
ATOM     20  N   UNL     1       2.624   1.979  18.944  0.00  0.00    +0.000 NA
ATOM     21  C   UNL     1       2.591   3.027  17.910  0.00  0.00    +0.000 C 
ATOM     22  C   UNL     1       1.450   4.054  18.145  0.00  0.00    +0.000 C 
ATOM     23  N   UNL     1       1.412   4.658  19.495  0.00  0.00    +0.000 NA
ATOM     24  C   UNL     1       1.483   3.564  20.490  0.00  0.00    +0.000 C 
ATOM     25  C   UNL     1       2.661   2.587  20.285  0.00  0.00    +0.000 C 
ENDBRANCH  18  23
ENDBRANCH  16  18
ENDBRANCH  15  17
ENDBRANCH   1  15
TORSDOF 7
ENDMDL
MODEL 5
REMARK VINA RESULT:      -7.2      1.561      2.395
REMARK  Name = 
REMARK  8 active torsions:
REMARK  status: ('A' for Active; 'I' for Inactive)
REMARK    1  A    between atoms: C_1  and  N_2
REMARK    2  A    between atoms: N_5  and  C_6
REMARK    3  A    between atoms: C_6  and  C_7
REMARK    4  A    between atoms: C_8  and  C_9
REMARK    5  A    between atoms: C_9  and  C_10
REMARK    6  A    between atoms: C_10  and  O_11
REMARK    7  A    between atoms: C_10  and  C_12
REMARK    8  A    between atoms: C_10  and  C_18
REMARK                            x       y       z     vdW  Elec       q    Type
REMARK                         _______ _______ _______ _____ _____    ______ ____
ROOT
ATOM      1  C   UNL     1       3.979   5.188  18.660  0.00  0.00    +0.000 C 
ENDROOT
BRANCH   1   2
ATOM      2  C   UNL     1       2.846   4.247  19.095  0.00  0.00    +0.000 A 
ATOM      3  C   UNL     1       2.104   3.489  18.168  0.00  0.00    +0.000 A 
ATOM      4  C   UNL     1       0.975   2.766  18.563  0.00  0.00    +0.000 A 
ATOM      5  C   UNL     1       0.577   2.757  19.895  0.00  0.00    +0.000 A 
ATOM      6  C   UNL     1       1.331   3.444  20.842  0.00  0.00    +0.000 A 
ATOM      7  C   UNL     1       2.457   4.171  20.446  0.00  0.00    +0.000 A 
ENDBRANCH   1   2
BRANCH   1   8
ATOM      8  C   UNL     1       5.076   4.538  17.770  0.00  0.00    +0.000 C 
ATOM      9  C   UNL     1       4.839   4.540  16.259  0.00  0.00    +0.000 C 
ATOM     10  C   UNL     1       6.169   4.043  15.698  0.00  0.00    +0.000 C 
ATOM     11  C   UNL     1       7.237   4.526  16.679  0.00  0.00    +0.000 C 
ATOM     12  C   UNL     1       6.487   5.117  17.875  0.00  0.00    +0.000 C 
ENDBRANCH   1   8
BRANCH   1  13
ATOM     13  O   UNL     1       4.676   5.629  19.851  0.00  0.00    +0.000 OA
ATOM     14  H   UNL     1       5.079   4.832  20.238  0.00  0.00    +0.000 HD
ENDBRANCH   1  13
BRANCH   1  15
ATOM     15  C   UNL     1       3.470   6.485  17.956  0.00  0.00    +0.000 C 
BRANCH  15  17
ATOM     16  C   UNL     1       1.897   8.120  19.638  0.00  0.00    +0.000 C 
ATOM     17  C   UNL     1       2.624   7.366  18.861  0.00  0.00    +0.000 C 
BRANCH  16  18
ATOM     18  C   UNL     1       1.060   8.982  20.487  0.00  0.00    +0.000 C 
BRANCH  18  23
ATOM     19  C   UNL     1       1.530  13.798  20.286  0.00  0.00    +0.000 C 
ATOM     20  N   UNL     1       0.732  12.657  19.853  0.00  0.00    +0.000 NA
ATOM     21  C   UNL     1       0.125  11.952  20.995  0.00  0.00    +0.000 C 
ATOM     22  C   UNL     1      -0.666  10.690  20.558  0.00  0.00    +0.000 C 
ATOM     23  N   UNL     1       0.080   9.741  19.701  0.00  0.00    +0.000 NA
ATOM     24  C   UNL     1       0.694  10.508  18.594  0.00  0.00    +0.000 C 
ATOM     25  C   UNL     1       1.534  11.723  19.045  0.00  0.00    +0.000 C 
ENDBRANCH  18  23
ENDBRANCH  16  18
ENDBRANCH  15  17
ENDBRANCH   1  15
TORSDOF 7
ENDMDL
MODEL 6
REMARK VINA RESULT:      -7.2      1.474      1.679
REMARK  Name = 
REMARK  8 active torsions:
REMARK  status: ('A' for Active; 'I' for Inactive)
REMARK    1  A    between atoms: C_1  and  N_2
REMARK    2  A    between atoms: N_5  and  C_6
REMARK    3  A    between atoms: C_6  and  C_7
REMARK    4  A    between atoms: C_8  and  C_9
REMARK    5  A    between atoms: C_9  and  C_10
REMARK    6  A    between atoms: C_10  and  O_11
REMARK    7  A    between atoms: C_10  and  C_12
REMARK    8  A    between atoms: C_10  and  C_18
REMARK                            x       y       z     vdW  Elec       q    Type
REMARK                         _______ _______ _______ _____ _____    ______ ____
ROOT
ATOM      1  C   UNL     1       3.888   5.657  18.402  0.00  0.00    +0.000 C 
ENDROOT
BRANCH   1   2
ATOM      2  C   UNL     1       2.718   4.788  18.885  0.00  0.00    +0.000 A 
ATOM      3  C   UNL     1       2.292   4.784  20.227  0.00  0.00    +0.000 A 
ATOM      4  C   UNL     1       1.337   3.870  20.682  0.00  0.00    +0.000 A 
ATOM      5  C   UNL     1       0.762   2.960  19.803  0.00  0.00    +0.000 A 
ATOM      6  C   UNL     1       1.116   2.987  18.457  0.00  0.00    +0.000 A 
ATOM      7  C   UNL     1       2.075   3.897  18.004  0.00  0.00    +0.000 A 
ENDBRANCH   1   2
BRANCH   1   8
ATOM      8  C   UNL     1       4.896   4.945  17.455  0.00  0.00    +0.000 C 
ATOM      9  C   UNL     1       5.116   5.571  16.077  0.00  0.00    +0.000 C 
ATOM     10  C   UNL     1       6.291   4.772  15.517  0.00  0.00    +0.000 C 
ATOM     11  C   UNL     1       7.132   4.372  16.729  0.00  0.00    +0.000 C 
ATOM     12  C   UNL     1       6.327   4.778  17.965  0.00  0.00    +0.000 C 
ENDBRANCH   1   8
BRANCH   1  13
ATOM     13  O   UNL     1       4.669   6.039  19.561  0.00  0.00    +0.000 OA
ATOM     14  H   UNL     1       4.340   6.916  19.830  0.00  0.00    +0.000 HD
ENDBRANCH   1  13
BRANCH   1  15
ATOM     15  C   UNL     1       3.432   6.992  17.733  0.00  0.00    +0.000 C 
BRANCH  15  17
ATOM     16  C   UNL     1       1.672   8.501  19.345  0.00  0.00    +0.000 C 
ATOM     17  C   UNL     1       2.484   7.803  18.600  0.00  0.00    +0.000 C 
BRANCH  16  18
ATOM     18  C   UNL     1       0.760   9.266  20.209  0.00  0.00    +0.000 C 
BRANCH  18  23
ATOM     19  C   UNL     1      -3.000  12.267  19.655  0.00  0.00    +0.000 C 
ATOM     20  N   UNL     1      -1.552  12.182  19.796  0.00  0.00    +0.000 NA
ATOM     21  C   UNL     1      -0.938  11.441  18.681  0.00  0.00    +0.000 C 
ATOM     22  C   UNL     1       0.595  11.275  18.853  0.00  0.00    +0.000 C 
ATOM     23  N   UNL     1       1.028  10.708  20.150  0.00  0.00    +0.000 NA
ATOM     24  C   UNL     1       0.356  11.466  21.230  0.00  0.00    +0.000 C 
ATOM     25  C   UNL     1      -1.178  11.568  21.082  0.00  0.00    +0.000 C 
ENDBRANCH  18  23
ENDBRANCH  16  18
ENDBRANCH  15  17
ENDBRANCH   1  15
TORSDOF 7
ENDMDL
MODEL 7
REMARK VINA RESULT:      -7.2      1.295      1.979
REMARK  Name = 
REMARK  8 active torsions:
REMARK  status: ('A' for Active; 'I' for Inactive)
REMARK    1  A    between atoms: C_1  and  N_2
REMARK    2  A    between atoms: N_5  and  C_6
REMARK    3  A    between atoms: C_6  and  C_7
REMARK    4  A    between atoms: C_8  and  C_9
REMARK    5  A    between atoms: C_9  and  C_10
REMARK    6  A    between atoms: C_10  and  O_11
REMARK    7  A    between atoms: C_10  and  C_12
REMARK    8  A    between atoms: C_10  and  C_18
REMARK                            x       y       z     vdW  Elec       q    Type
REMARK                         _______ _______ _______ _____ _____    ______ ____
ROOT
ATOM      1  C   UNL     1       3.829   5.404  18.515  0.00  0.00    +0.000 C 
ENDROOT
BRANCH   1   2
ATOM      2  C   UNL     1       2.744   4.422  18.981  0.00  0.00    +0.000 A 
ATOM      3  C   UNL     1       2.204   3.442  18.127  0.00  0.00    +0.000 A 
ATOM      4  C   UNL     1       1.107   2.668  18.514  0.00  0.00    +0.000 A 
ATOM      5  C   UNL     1       0.542   2.831  19.774  0.00  0.00    +0.000 A 
ATOM      6  C   UNL     1       1.099   3.747  20.662  0.00  0.00    +0.000 A 
ATOM      7  C   UNL     1       2.192   4.524  20.272  0.00  0.00    +0.000 A 
ENDBRANCH   1   2
BRANCH   1   8
ATOM      8  C   UNL     1       5.110   4.747  17.927  0.00  0.00    +0.000 C 
ATOM      9  C   UNL     1       5.335   4.887  16.421  0.00  0.00    +0.000 C 
ATOM     10  C   UNL     1       6.747   4.339  16.228  0.00  0.00    +0.000 C 
ATOM     11  C   UNL     1       7.495   4.660  17.522  0.00  0.00    +0.000 C 
ATOM     12  C   UNL     1       6.451   5.208  18.497  0.00  0.00    +0.000 C 
ENDBRANCH   1   8
BRANCH   1  13
ATOM     13  O   UNL     1       4.288   6.146  19.673  0.00  0.00    +0.000 OA
ATOM     14  H   UNL     1       3.630   6.849  19.820  0.00  0.00    +0.000 HD
ENDBRANCH   1  13
BRANCH   1  15
ATOM     15  C   UNL     1       3.306   6.471  17.503  0.00  0.00    +0.000 C 
BRANCH  15  17
ATOM     16  C   UNL     1       1.968   8.625  18.746  0.00  0.00    +0.000 C 
ATOM     17  C   UNL     1       2.586   7.630  18.172  0.00  0.00    +0.000 C 
BRANCH  16  18
ATOM     18  C   UNL     1       1.300   9.764  19.393  0.00  0.00    +0.000 C 
BRANCH  18  23
ATOM     19  C   UNL     1      -0.919  12.668  22.570  0.00  0.00    +0.000 C 
ATOM     20  N   UNL     1      -1.057  11.473  21.748  0.00  0.00    +0.000 NA
ATOM     21  C   UNL     1      -0.099  10.427  22.143  0.00  0.00    +0.000 C 
ATOM     22  C   UNL     1      -0.179   9.175  21.229  0.00  0.00    +0.000 C 
ATOM     23  N   UNL     1      -0.081   9.444  19.777  0.00  0.00    +0.000 NA
ATOM     24  C   UNL     1      -1.039  10.524  19.445  0.00  0.00    +0.000 C 
ATOM     25  C   UNL     1      -0.904  11.791  20.318  0.00  0.00    +0.000 C 
ENDBRANCH  18  23
ENDBRANCH  16  18
ENDBRANCH  15  17
ENDBRANCH   1  15
TORSDOF 7
ENDMDL
MODEL 8
REMARK VINA RESULT:      -7.2      1.492      2.069
REMARK  Name = 
REMARK  8 active torsions:
REMARK  status: ('A' for Active; 'I' for Inactive)
REMARK    1  A    between atoms: C_1  and  N_2
REMARK    2  A    between atoms: N_5  and  C_6
REMARK    3  A    between atoms: C_6  and  C_7
REMARK    4  A    between atoms: C_8  and  C_9
REMARK    5  A    between atoms: C_9  and  C_10
REMARK    6  A    between atoms: C_10  and  O_11
REMARK    7  A    between atoms: C_10  and  C_12
REMARK    8  A    between atoms: C_10  and  C_18
REMARK                            x       y       z     vdW  Elec       q    Type
REMARK                         _______ _______ _______ _____ _____    ______ ____
ROOT
ATOM      1  C   UNL     1       3.864   5.498  18.653  0.00  0.00    +0.000 C 
ENDROOT
BRANCH   1   2
ATOM      2  C   UNL     1       2.689   4.594  19.052  0.00  0.00    +0.000 A 
ATOM      3  C   UNL     1       2.259   4.469  20.387  0.00  0.00    +0.000 A 
ATOM      4  C   UNL     1       1.299   3.522  20.754  0.00  0.00    +0.000 A 
ATOM      5  C   UNL     1       0.722   2.699  19.793  0.00  0.00    +0.000 A 
ATOM      6  C   UNL     1       1.080   2.848  18.456  0.00  0.00    +0.000 A 
ATOM      7  C   UNL     1       2.044   3.791  18.092  0.00  0.00    +0.000 A 
ENDBRANCH   1   2
BRANCH   1   8
ATOM      8  C   UNL     1       4.963   4.816  17.790  0.00  0.00    +0.000 C 
ATOM      9  C   UNL     1       5.024   5.200  16.311  0.00  0.00    +0.000 C 
ATOM     10  C   UNL     1       6.313   4.537  15.832  0.00  0.00    +0.000 C 
ATOM     11  C   UNL     1       7.247   4.531  17.043  0.00  0.00    +0.000 C 
ATOM     12  C   UNL     1       6.413   5.008  18.232  0.00  0.00    +0.000 C 
ENDBRANCH   1   8
BRANCH   1  13
ATOM     13  O   UNL     1       4.543   5.909  19.866  0.00  0.00    +0.000 OA
ATOM     14  H   UNL     1       4.453   5.167  20.490  0.00  0.00    +0.000 HD
ENDBRANCH   1  13
BRANCH   1  15
ATOM     15  C   UNL     1       3.419   6.815  17.945  0.00  0.00    +0.000 C 
BRANCH  15  17
ATOM     16  C   UNL     1       1.715   8.413  19.532  0.00  0.00    +0.000 C 
ATOM     17  C   UNL     1       2.502   7.675  18.799  0.00  0.00    +0.000 C 
BRANCH  16  18
ATOM     18  C   UNL     1       0.820   9.263  20.332  0.00  0.00    +0.000 C 
BRANCH  18  23
ATOM     19  C   UNL     1       1.313  14.006  21.177  0.00  0.00    +0.000 C 
ATOM     20  N   UNL     1       0.647  13.003  20.355  0.00  0.00    +0.000 NA
ATOM     21  C   UNL     1      -0.218  12.125  21.161  0.00  0.00    +0.000 C 
ATOM     22  C   UNL     1      -0.876  11.004  20.314  0.00  0.00    +0.000 C 
ATOM     23  N   UNL     1       0.058  10.199  19.495  0.00  0.00    +0.000 NA
ATOM     24  C   UNL     1       0.922  11.131  18.735  0.00  0.00    +0.000 C 
ATOM     25  C   UNL     1       1.624  12.202  19.599  0.00  0.00    +0.000 C 
ENDBRANCH  18  23
ENDBRANCH  16  18
ENDBRANCH  15  17
ENDBRANCH   1  15
TORSDOF 7
ENDMDL
MODEL 9
REMARK VINA RESULT:      -7.2      1.413      1.947
REMARK  Name = 
REMARK  8 active torsions:
REMARK  status: ('A' for Active; 'I' for Inactive)
REMARK    1  A    between atoms: C_1  and  N_2
REMARK    2  A    between atoms: N_5  and  C_6
REMARK    3  A    between atoms: C_6  and  C_7
REMARK    4  A    between atoms: C_8  and  C_9
REMARK    5  A    between atoms: C_9  and  C_10
REMARK    6  A    between atoms: C_10  and  O_11
REMARK    7  A    between atoms: C_10  and  C_12
REMARK    8  A    between atoms: C_10  and  C_18
REMARK                            x       y       z     vdW  Elec       q    Type
REMARK                         _______ _______ _______ _____ _____    ______ ____
ROOT
ATOM      1  C   UNL     1       3.937   5.400  18.561  0.00  0.00    +0.000 C 
ENDROOT
BRANCH   1   2
ATOM      2  C   UNL     1       2.820   4.456  19.029  0.00  0.00    +0.000 A 
ATOM      3  C   UNL     1       2.081   3.664  18.129  0.00  0.00    +0.000 A 
ATOM      4  C   UNL     1       0.965   2.937  18.551  0.00  0.00    +0.000 A 
ATOM      5  C   UNL     1       0.577   2.958  19.886  0.00  0.00    +0.000 A 
ATOM      6  C   UNL     1       1.329   3.680  20.809  0.00  0.00    +0.000 A 
ATOM      7  C   UNL     1       2.442   4.411  20.385  0.00  0.00    +0.000 A 
ENDBRANCH   1   2
BRANCH   1   8
ATOM      8  C   UNL     1       5.098   4.719  17.781  0.00  0.00    +0.000 C 
ATOM      9  C   UNL     1       5.104   4.881  16.261  0.00  0.00    +0.000 C 
ATOM     10  C   UNL     1       6.455   4.297  15.855  0.00  0.00    +0.000 C 
ATOM     11  C   UNL     1       7.394   4.574  17.030  0.00  0.00    +0.000 C 
ATOM     12  C   UNL     1       6.521   5.132  18.155  0.00  0.00    +0.000 C 
ENDBRANCH   1   8
BRANCH   1  13
ATOM     13  O   UNL     1       4.561   5.972  19.737  0.00  0.00    +0.000 OA
ATOM     14  H   UNL     1       3.842   6.127  20.375  0.00  0.00    +0.000 HD
ENDBRANCH   1  13
BRANCH   1  15
ATOM     15  C   UNL     1       3.415   6.609  17.722  0.00  0.00    +0.000 C 
BRANCH  15  17
ATOM     16  C   UNL     1       1.789   8.375  19.209  0.00  0.00    +0.000 C 
ATOM     17  C   UNL     1       2.540   7.560  18.522  0.00  0.00    +0.000 C 
BRANCH  16  18
ATOM     18  C   UNL     1       0.915   9.277  19.975  0.00  0.00    +0.000 C 
BRANCH  18  23
ATOM     19  C   UNL     1      -2.623  12.434  20.957  0.00  0.00    +0.000 C 
ATOM     20  N   UNL     1      -1.295  12.272  20.380  0.00  0.00    +0.000 NA
ATOM     21  C   UNL     1      -1.315  11.374  19.212  0.00  0.00    +0.000 C 
ATOM     22  C   UNL     1       0.103  11.130  18.629  0.00  0.00    +0.000 C 
ATOM     23  N   UNL     1       1.121  10.684  19.608  0.00  0.00    +0.000 NA
ATOM     24  C   UNL     1       1.071  11.599  20.771  0.00  0.00    +0.000 C 
ATOM     25  C   UNL     1      -0.334  11.782  21.383  0.00  0.00    +0.000 C 
ENDBRANCH  18  23
ENDBRANCH  16  18
ENDBRANCH  15  17
ENDBRANCH   1  15
TORSDOF 7
ENDMDL
