MODEL 1
REMARK VINA RESULT:      -7.0      0.000      0.000
REMARK  Name = 
REMARK  10 active torsions:
REMARK  status: ('A' for Active; 'I' for Inactive)
REMARK    1  A    between atoms: C_1  and  O_2
REMARK    2  A    between atoms: O_2  and  C_3
REMARK    3  A    between atoms: C_6  and  N_7
REMARK    4  A    between atoms: N_7  and  C_8
REMARK    5  A    between atoms: N_7  and  S_17
REMARK    6  A    between atoms: C_8  and  C_9
REMARK    7  A    between atoms: N_11  and  C_12
REMARK    8  A    between atoms: S_17  and  C_20
REMARK    9  A    between atoms: C_23  and  N_24
REMARK   10  A    between atoms: C_25  and  C_26
REMARK                            x       y       z     vdW  Elec       q    Type
REMARK                         _______ _______ _______ _____ _____    ______ ____
ROOT
ATOM      1  N   UNL     1      -0.191  11.634  19.267  0.00  0.00    +0.000 N 
ENDROOT
BRANCH   1   5
ATOM      2  C   UNL     1      -4.283  11.089  18.199  0.00  0.00    +0.000 A 
ATOM      3  C   UNL     1      -3.308  10.238  17.673  0.00  0.00    +0.000 A 
ATOM      4  C   UNL     1      -1.962  10.378  18.031  0.00  0.00    +0.000 A 
ATOM      5  C   UNL     1      -1.580  11.379  18.928  0.00  0.00    +0.000 A 
ATOM      6  C   UNL     1      -2.549  12.252  19.429  0.00  0.00    +0.000 A 
ATOM      7  C   UNL     1      -3.897  12.104  19.074  0.00  0.00    +0.000 A 
BRANCH   2   9
ATOM      8  C   UNL     1      -6.539  10.568  18.723  0.00  0.00    +0.000 C 
ATOM      9  O   UNL     1      -5.553  10.868  17.742  0.00  0.00    +0.000 OA
ENDBRANCH   2   9
ENDBRANCH   1   5
BRANCH   1  10
ATOM     10  S   UNL     1       0.314  10.685  20.630  0.00  0.00    +0.000 S 
ATOM     11  O   UNL     1       1.326  11.421  21.364  0.00  0.00    +0.000 OA
ATOM     12  O   UNL     1      -0.859  10.174  21.310  0.00  0.00    +0.000 OA
BRANCH  10  13
ATOM     13  C   UNL     1       1.095   9.276  19.870  0.00  0.00    +0.000 A 
ATOM     14  C   UNL     1       1.501   9.326  18.539  0.00  0.00    +0.000 A 
ATOM     15  C   UNL     1       2.196   8.243  17.988  0.00  0.00    +0.000 A 
ATOM     16  C   UNL     1       2.518   7.119  18.758  0.00  0.00    +0.000 A 
ATOM     17  C   UNL     1       2.113   7.088  20.100  0.00  0.00    +0.000 A 
ATOM     18  C   UNL     1       1.410   8.163  20.658  0.00  0.00    +0.000 A 
BRANCH  16  19
ATOM     19  N   UNL     1       3.260   6.019  18.266  0.00  0.00    +0.000 N 
ATOM     20  C   UNL     1       2.752   4.846  17.734  0.00  0.00    +0.000 C 
ATOM     21  C   UNL     1       3.815   3.886  17.258  0.00  0.00    +0.000 C 
ATOM     22  O   UNL     1       1.569   4.532  17.647  0.00  0.00    +0.000 OA
ATOM     23  H   UNL     1       4.268   6.116  18.282  0.00  0.00    +0.000 HD
ENDBRANCH  16  19
ENDBRANCH  10  13
ENDBRANCH   1  10
BRANCH   1  24
ATOM     24  C   UNL     1       0.171  13.085  19.375  0.00  0.00    +0.000 C 
BRANCH  24  25
ATOM     25  C   UNL     1       1.543  13.456  18.850  0.00  0.00    +0.000 C 
ATOM     26  O   UNL     1       2.106  12.764  18.004  0.00  0.00    +0.000 OA
ATOM     27  N   UNL     1       2.163  14.521  19.470  0.00  0.00    +0.000 N 
ATOM     28  H   UNL     1       1.582  15.162  19.998  0.00  0.00    +0.000 HD
BRANCH  27  29
ATOM     29  C   UNL     1       3.539  14.859  19.162  0.00  0.00    +0.000 C 
ATOM     30  C   UNL     1       3.717  16.247  18.557  0.00  0.00    +0.000 C 
ATOM     31  C   UNL     1       5.219  16.488  18.683  0.00  0.00    +0.000 C 
ATOM     32  C   UNL     1       5.665  15.706  19.919  0.00  0.00    +0.000 C 
ATOM     33  C   UNL     1       4.443  14.915  20.388  0.00  0.00    +0.000 C 
ENDBRANCH  27  29
ENDBRANCH  24  25
ENDBRANCH   1  24
TORSDOF 8
ENDMDL
MODEL 2
REMARK VINA RESULT:      -6.9      0.706      1.412
REMARK  Name = 
REMARK  10 active torsions:
REMARK  status: ('A' for Active; 'I' for Inactive)
REMARK    1  A    between atoms: C_1  and  O_2
REMARK    2  A    between atoms: O_2  and  C_3
REMARK    3  A    between atoms: C_6  and  N_7
REMARK    4  A    between atoms: N_7  and  C_8
REMARK    5  A    between atoms: N_7  and  S_17
REMARK    6  A    between atoms: C_8  and  C_9
REMARK    7  A    between atoms: N_11  and  C_12
REMARK    8  A    between atoms: S_17  and  C_20
REMARK    9  A    between atoms: C_23  and  N_24
REMARK   10  A    between atoms: C_25  and  C_26
REMARK                            x       y       z     vdW  Elec       q    Type
REMARK                         _______ _______ _______ _____ _____    ______ ____
ROOT
ATOM      1  N   UNL     1       0.228  11.328  19.380  0.00  0.00    +0.000 N 
ENDROOT
BRANCH   1   5
ATOM      2  C   UNL     1      -3.706  10.909  17.791  0.00  0.00    +0.000 A 
ATOM      3  C   UNL     1      -3.448  11.881  18.761  0.00  0.00    +0.000 A 
ATOM      4  C   UNL     1      -2.158  12.056  19.278  0.00  0.00    +0.000 A 
ATOM      5  C   UNL     1      -1.109  11.256  18.819  0.00  0.00    +0.000 A 
ATOM      6  C   UNL     1      -1.372  10.262  17.873  0.00  0.00    +0.000 A 
ATOM      7  C   UNL     1      -2.663  10.092  17.354  0.00  0.00    +0.000 A 
BRANCH   2   9
ATOM      8  C   UNL     1      -5.715  12.042  17.227  0.00  0.00    +0.000 C 
ATOM      9  O   UNL     1      -5.012  10.817  17.397  0.00  0.00    +0.000 OA
ENDBRANCH   2   9
ENDBRANCH   1   5
BRANCH   1  10
ATOM     10  S   UNL     1       0.405  10.259  20.737  0.00  0.00    +0.000 S 
ATOM     11  O   UNL     1       1.239  10.902  21.735  0.00  0.00    +0.000 OA
ATOM     12  O   UNL     1      -0.896   9.734  21.097  0.00  0.00    +0.000 OA
BRANCH  10  13
ATOM     13  C   UNL     1       1.316   8.889  20.052  0.00  0.00    +0.000 A 
ATOM     14  C   UNL     1       1.488   7.719  20.785  0.00  0.00    +0.000 A 
ATOM     15  C   UNL     1       2.124   6.621  20.194  0.00  0.00    +0.000 A 
ATOM     16  C   UNL     1       2.566   6.666  18.867  0.00  0.00    +0.000 A 
ATOM     17  C   UNL     1       2.376   7.848  18.137  0.00  0.00    +0.000 A 
ATOM     18  C   UNL     1       1.747   8.954  18.722  0.00  0.00    +0.000 A 
BRANCH  16  19
ATOM     19  N   UNL     1       3.172   5.571  18.205  0.00  0.00    +0.000 N 
ATOM     20  C   UNL     1       2.527   4.493  17.623  0.00  0.00    +0.000 C 
ATOM     21  C   UNL     1       3.462   3.514  16.957  0.00  0.00    +0.000 C 
ATOM     22  O   UNL     1       1.320   4.271  17.626  0.00  0.00    +0.000 OA
ATOM     23  H   UNL     1       4.181   5.597  18.129  0.00  0.00    +0.000 HD
ENDBRANCH  16  19
ENDBRANCH  10  13
ENDBRANCH   1  10
BRANCH   1  24
ATOM     24  C   UNL     1       0.725  12.719  19.640  0.00  0.00    +0.000 C 
BRANCH  24  25
ATOM     25  C   UNL     1       2.091  13.041  19.068  0.00  0.00    +0.000 C 
ATOM     26  O   UNL     1       2.647  12.274  18.285  0.00  0.00    +0.000 OA
ATOM     27  N   UNL     1       2.714  14.161  19.578  0.00  0.00    +0.000 N 
ATOM     28  H   UNL     1       2.137  14.848  20.050  0.00  0.00    +0.000 HD
BRANCH  27  29
ATOM     29  C   UNL     1       4.085  14.471  19.225  0.00  0.00    +0.000 C 
ATOM     30  C   UNL     1       4.230  15.657  18.278  0.00  0.00    +0.000 C 
ATOM     31  C   UNL     1       5.716  15.995  18.371  0.00  0.00    +0.000 C 
ATOM     32  C   UNL     1       6.148  15.589  19.781  0.00  0.00    +0.000 C 
ATOM     33  C   UNL     1       4.942  14.892  20.413  0.00  0.00    +0.000 C 
ENDBRANCH  27  29
ENDBRANCH  24  25
ENDBRANCH   1  24
TORSDOF 8
ENDMDL
MODEL 3
REMARK VINA RESULT:      -6.9      1.592      1.958
REMARK  Name = 
REMARK  10 active torsions:
REMARK  status: ('A' for Active; 'I' for Inactive)
REMARK    1  A    between atoms: C_1  and  O_2
REMARK    2  A    between atoms: O_2  and  C_3
REMARK    3  A    between atoms: C_6  and  N_7
REMARK    4  A    between atoms: N_7  and  C_8
REMARK    5  A    between atoms: N_7  and  S_17
REMARK    6  A    between atoms: C_8  and  C_9
REMARK    7  A    between atoms: N_11  and  C_12
REMARK    8  A    between atoms: S_17  and  C_20
REMARK    9  A    between atoms: C_23  and  N_24
REMARK   10  A    between atoms: C_25  and  C_26
REMARK                            x       y       z     vdW  Elec       q    Type
REMARK                         _______ _______ _______ _____ _____    ______ ____
ROOT
ATOM      1  N   UNL     1       0.565  10.824  19.937  0.00  0.00    +0.000 N 
ENDROOT
BRANCH   1   5
ATOM      2  C   UNL     1      -3.282  11.388  18.189  0.00  0.00    +0.000 A 
ATOM      3  C   UNL     1      -2.358  10.539  17.576  0.00  0.00    +0.000 A 
ATOM      4  C   UNL     1      -1.099  10.315  18.145  0.00  0.00    +0.000 A 
ATOM      5  C   UNL     1      -0.755  10.943  19.346  0.00  0.00    +0.000 A 
ATOM      6  C   UNL     1      -1.666  11.818  19.942  0.00  0.00    +0.000 A 
ATOM      7  C   UNL     1      -2.929  12.036  19.373  0.00  0.00    +0.000 A 
BRANCH   2   9
ATOM      8  C   UNL     1      -5.624  11.002  18.123  0.00  0.00    +0.000 C 
ATOM      9  O   UNL     1      -4.460  11.548  17.513  0.00  0.00    +0.000 OA
ENDBRANCH   2   9
ENDBRANCH   1   5
BRANCH   1  10
ATOM     10  S   UNL     1       0.642   9.499  21.057  0.00  0.00    +0.000 S 
ATOM     11  O   UNL     1       1.515   9.864  22.156  0.00  0.00    +0.000 OA
ATOM     12  O   UNL     1      -0.701   9.021  21.314  0.00  0.00    +0.000 OA
BRANCH  10  13
ATOM     13  C   UNL     1       1.446   8.221  20.110  0.00  0.00    +0.000 A 
ATOM     14  C   UNL     1       1.982   8.502  18.857  0.00  0.00    +0.000 A 
ATOM     15  C   UNL     1       2.692   7.510  18.171  0.00  0.00    +0.000 A 
ATOM     16  C   UNL     1       2.898   6.245  18.734  0.00  0.00    +0.000 A 
ATOM     17  C   UNL     1       2.363   5.980  20.002  0.00  0.00    +0.000 A 
ATOM     18  C   UNL     1       1.645   6.964  20.693  0.00  0.00    +0.000 A 
BRANCH  16  19
ATOM     19  N   UNL     1       3.648   5.221  18.106  0.00  0.00    +0.000 N 
ATOM     20  C   UNL     1       3.149   4.123  17.428  0.00  0.00    +0.000 C 
ATOM     21  C   UNL     1       4.218   3.239  16.835  0.00  0.00    +0.000 C 
ATOM     22  O   UNL     1       1.968   3.814  17.300  0.00  0.00    +0.000 OA
ATOM     23  H   UNL     1       4.655   5.323  18.136  0.00  0.00    +0.000 HD
ENDBRANCH  16  19
ENDBRANCH  10  13
ENDBRANCH   1  10
BRANCH   1  24
ATOM     24  C   UNL     1       1.127  12.104  20.479  0.00  0.00    +0.000 C 
BRANCH  24  25
ATOM     25  C   UNL     1       1.367  13.196  19.457  0.00  0.00    +0.000 C 
ATOM     26  O   UNL     1       2.261  13.094  18.619  0.00  0.00    +0.000 OA
ATOM     27  N   UNL     1       0.622  14.347  19.610  0.00  0.00    +0.000 N 
ATOM     28  H   UNL     1      -0.221  14.292  20.172  0.00  0.00    +0.000 HD
BRANCH  27  29
ATOM     29  C   UNL     1       0.885  15.514  18.793  0.00  0.00    +0.000 C 
ATOM     30  C   UNL     1      -0.363  16.311  18.427  0.00  0.00    +0.000 C 
ATOM     31  C   UNL     1       0.207  17.632  17.918  0.00  0.00    +0.000 C 
ATOM     32  C   UNL     1       1.524  17.836  18.670  0.00  0.00    +0.000 C 
ATOM     33  C   UNL     1       1.753  16.560  19.482  0.00  0.00    +0.000 C 
ENDBRANCH  27  29
ENDBRANCH  24  25
ENDBRANCH   1  24
TORSDOF 8
ENDMDL
MODEL 4
REMARK VINA RESULT:      -6.8      1.418      1.489
REMARK  Name = 
REMARK  10 active torsions:
REMARK  status: ('A' for Active; 'I' for Inactive)
REMARK    1  A    between atoms: C_1  and  O_2
REMARK    2  A    between atoms: O_2  and  C_3
REMARK    3  A    between atoms: C_6  and  N_7
REMARK    4  A    between atoms: N_7  and  C_8
REMARK    5  A    between atoms: N_7  and  S_17
REMARK    6  A    between atoms: C_8  and  C_9
REMARK    7  A    between atoms: N_11  and  C_12
REMARK    8  A    between atoms: S_17  and  C_20
REMARK    9  A    between atoms: C_23  and  N_24
REMARK   10  A    between atoms: C_25  and  C_26
REMARK                            x       y       z     vdW  Elec       q    Type
REMARK                         _______ _______ _______ _____ _____    ______ ____
ROOT
ATOM      1  N   UNL     1       0.589  10.945  20.089  0.00  0.00    +0.000 N 
ENDROOT
BRANCH   1   5
ATOM      2  C   UNL     1      -3.376  11.649  18.687  0.00  0.00    +0.000 A 
ATOM      3  C   UNL     1      -2.575  10.695  18.056  0.00  0.00    +0.000 A 
ATOM      4  C   UNL     1      -1.280  10.426  18.515  0.00  0.00    +0.000 A 
ATOM      5  C   UNL     1      -0.776  11.113  19.622  0.00  0.00    +0.000 A 
ATOM      6  C   UNL     1      -1.564  12.092  20.234  0.00  0.00    +0.000 A 
ATOM      7  C   UNL     1      -2.862  12.355  19.775  0.00  0.00    +0.000 A 
BRANCH   2   9
ATOM      8  C   UNL     1      -4.701  11.617  16.717  0.00  0.00    +0.000 C 
ATOM      9  O   UNL     1      -4.605  11.842  18.119  0.00  0.00    +0.000 OA
ENDBRANCH   2   9
ENDBRANCH   1   5
BRANCH   1  10
ATOM     10  S   UNL     1       0.747   9.538  21.094  0.00  0.00    +0.000 S 
ATOM     11  O   UNL     1       1.688   9.825  22.159  0.00  0.00    +0.000 OA
ATOM     12  O   UNL     1      -0.573   9.025  21.399  0.00  0.00    +0.000 OA
BRANCH  10  13
ATOM     13  C   UNL     1       1.496   8.348  19.999  0.00  0.00    +0.000 A 
ATOM     14  C   UNL     1       1.907   8.723  18.723  0.00  0.00    +0.000 A 
ATOM     15  C   UNL     1       2.577   7.798  17.913  0.00  0.00    +0.000 A 
ATOM     16  C   UNL     1       2.869   6.509  18.374  0.00  0.00    +0.000 A 
ATOM     17  C   UNL     1       2.460   6.149  19.665  0.00  0.00    +0.000 A 
ATOM     18  C   UNL     1       1.781   7.065  20.479  0.00  0.00    +0.000 A 
BRANCH  16  19
ATOM     19  N   UNL     1       3.586   5.551  17.617  0.00  0.00    +0.000 N 
ATOM     20  C   UNL     1       4.950   5.317  17.652  0.00  0.00    +0.000 C 
ATOM     21  C   UNL     1       5.395   4.191  16.751  0.00  0.00    +0.000 C 
ATOM     22  O   UNL     1       5.784   5.935  18.305  0.00  0.00    +0.000 OA
ATOM     23  H   UNL     1       3.035   4.960  17.007  0.00  0.00    +0.000 HD
ENDBRANCH  16  19
ENDBRANCH  10  13
ENDBRANCH   1  10
BRANCH   1  24
ATOM     24  C   UNL     1       1.205  12.179  20.679  0.00  0.00    +0.000 C 
BRANCH  24  25
ATOM     25  C   UNL     1       2.137  12.945  19.762  0.00  0.00    +0.000 C 
ATOM     26  O   UNL     1       2.341  12.569  18.609  0.00  0.00    +0.000 OA
ATOM     27  N   UNL     1       2.829  13.992  20.335  0.00  0.00    +0.000 N 
ATOM     28  H   UNL     1       2.471  14.374  21.204  0.00  0.00    +0.000 HD
BRANCH  27  29
ATOM     29  C   UNL     1       3.864  14.687  19.598  0.00  0.00    +0.000 C 
ATOM     30  C   UNL     1       3.439  16.052  19.067  0.00  0.00    +0.000 C 
ATOM     31  C   UNL     1       4.766  16.703  18.685  0.00  0.00    +0.000 C 
ATOM     32  C   UNL     1       5.809  16.111  19.635  0.00  0.00    +0.000 C 
ATOM     33  C   UNL     1       5.089  15.028  20.438  0.00  0.00    +0.000 C 
ENDBRANCH  27  29
ENDBRANCH  24  25
ENDBRANCH   1  24
TORSDOF 8
ENDMDL
MODEL 5
REMARK VINA RESULT:      -6.7      1.267      1.795
REMARK  Name = 
REMARK  10 active torsions:
REMARK  status: ('A' for Active; 'I' for Inactive)
REMARK    1  A    between atoms: C_1  and  O_2
REMARK    2  A    between atoms: O_2  and  C_3
REMARK    3  A    between atoms: C_6  and  N_7
REMARK    4  A    between atoms: N_7  and  C_8
REMARK    5  A    between atoms: N_7  and  S_17
REMARK    6  A    between atoms: C_8  and  C_9
REMARK    7  A    between atoms: N_11  and  C_12
REMARK    8  A    between atoms: S_17  and  C_20
REMARK    9  A    between atoms: C_23  and  N_24
REMARK   10  A    between atoms: C_25  and  C_26
REMARK                            x       y       z     vdW  Elec       q    Type
REMARK                         _______ _______ _______ _____ _____    ______ ____
ROOT
ATOM      1  N   UNL     1       0.593  10.983  19.717  0.00  0.00    +0.000 N 
ENDROOT
BRANCH   1   5
ATOM      2  C   UNL     1      -3.245  11.016  17.862  0.00  0.00    +0.000 A 
ATOM      3  C   UNL     1      -2.990  11.860  18.944  0.00  0.00    +0.000 A 
ATOM      4  C   UNL     1      -1.729  11.888  19.552  0.00  0.00    +0.000 A 
ATOM      5  C   UNL     1      -0.705  11.066  19.073  0.00  0.00    +0.000 A 
ATOM      6  C   UNL     1      -0.970  10.197  18.012  0.00  0.00    +0.000 A 
ATOM      7  C   UNL     1      -2.231  10.176  17.401  0.00  0.00    +0.000 A 
BRANCH   2   9
ATOM      8  C   UNL     1      -5.362  12.091  17.892  0.00  0.00    +0.000 C 
ATOM      9  O   UNL     1      -4.525  11.059  17.383  0.00  0.00    +0.000 OA
ENDBRANCH   2   9
ENDBRANCH   1   5
BRANCH   1  10
ATOM     10  S   UNL     1       0.653   9.677  20.859  0.00  0.00    +0.000 S 
ATOM     11  O   UNL     1       1.450  10.087  22.000  0.00  0.00    +0.000 OA
ATOM     12  O   UNL     1      -0.685   9.155  21.049  0.00  0.00    +0.000 OA
BRANCH  10  13
ATOM     13  C   UNL     1       1.552   8.416  19.978  0.00  0.00    +0.000 A 
ATOM     14  C   UNL     1       1.727   7.153  20.537  0.00  0.00    +0.000 A 
ATOM     15  C   UNL     1       2.355   6.148  19.791  0.00  0.00    +0.000 A 
ATOM     16  C   UNL     1       2.784   6.380  18.479  0.00  0.00    +0.000 A 
ATOM     17  C   UNL     1       2.590   7.653  17.925  0.00  0.00    +0.000 A 
ATOM     18  C   UNL     1       1.971   8.667  18.667  0.00  0.00    +0.000 A 
BRANCH  16  19
ATOM     19  N   UNL     1       3.379   5.388  17.663  0.00  0.00    +0.000 N 
ATOM     20  C   UNL     1       4.720   5.274  17.339  0.00  0.00    +0.000 C 
ATOM     21  C   UNL     1       5.037   4.074  16.481  0.00  0.00    +0.000 C 
ATOM     22  O   UNL     1       5.620   6.044  17.658  0.00  0.00    +0.000 OA
ATOM     23  H   UNL     1       2.758   4.674  17.303  0.00  0.00    +0.000 HD
ENDBRANCH  16  19
ENDBRANCH  10  13
ENDBRANCH   1  10
BRANCH   1  24
ATOM     24  C   UNL     1       1.108  12.283  20.261  0.00  0.00    +0.000 C 
BRANCH  24  25
ATOM     25  C   UNL     1       2.137  12.988  19.401  0.00  0.00    +0.000 C 
ATOM     26  O   UNL     1       2.639  12.429  18.428  0.00  0.00    +0.000 OA
ATOM     27  N   UNL     1       2.565  14.219  19.852  0.00  0.00    +0.000 N 
ATOM     28  H   UNL     1       1.979  14.705  20.523  0.00  0.00    +0.000 HD
BRANCH  27  29
ATOM     29  C   UNL     1       3.662  14.907  19.201  0.00  0.00    +0.000 C 
ATOM     30  C   UNL     1       3.432  16.402  19.010  0.00  0.00    +0.000 C 
ATOM     31  C   UNL     1       4.825  16.925  18.672  0.00  0.00    +0.000 C 
ATOM     32  C   UNL     1       5.805  15.994  19.388  0.00  0.00    +0.000 C 
ATOM     33  C   UNL     1       4.962  14.872  19.996  0.00  0.00    +0.000 C 
ENDBRANCH  27  29
ENDBRANCH  24  25
ENDBRANCH   1  24
TORSDOF 8
ENDMDL
MODEL 6
REMARK VINA RESULT:      -6.7      3.777      7.333
REMARK  Name = 
REMARK  10 active torsions:
REMARK  status: ('A' for Active; 'I' for Inactive)
REMARK    1  A    between atoms: C_1  and  O_2
REMARK    2  A    between atoms: O_2  and  C_3
REMARK    3  A    between atoms: C_6  and  N_7
REMARK    4  A    between atoms: N_7  and  C_8
REMARK    5  A    between atoms: N_7  and  S_17
REMARK    6  A    between atoms: C_8  and  C_9
REMARK    7  A    between atoms: N_11  and  C_12
REMARK    8  A    between atoms: S_17  and  C_20
REMARK    9  A    between atoms: C_23  and  N_24
REMARK   10  A    between atoms: C_25  and  C_26
REMARK                            x       y       z     vdW  Elec       q    Type
REMARK                         _______ _______ _______ _____ _____    ______ ____
ROOT
ATOM      1  N   UNL     1       3.624   6.956  17.859  0.00  0.00    +0.000 N 
ENDROOT
BRANCH   1   5
ATOM      2  C   UNL     1       1.366   3.898  19.788  0.00  0.00    +0.000 A 
ATOM      3  C   UNL     1       1.929   4.928  20.545  0.00  0.00    +0.000 A 
ATOM      4  C   UNL     1       2.650   5.959  19.931  0.00  0.00    +0.000 A 
ATOM      5  C   UNL     1       2.811   5.967  18.543  0.00  0.00    +0.000 A 
ATOM      6  C   UNL     1       2.277   4.919  17.789  0.00  0.00    +0.000 A 
ATOM      7  C   UNL     1       1.550   3.892  18.405  0.00  0.00    +0.000 A 
BRANCH   2   9
ATOM      8  C   UNL     1       1.331   2.531  21.729  0.00  0.00    +0.000 C 
ATOM      9  O   UNL     1       0.717   2.935  20.511  0.00  0.00    +0.000 OA
ENDBRANCH   2   9
ENDBRANCH   1   5
BRANCH   1  10
ATOM     10  S   UNL     1       5.306   6.528  17.890  0.00  0.00    +0.000 S 
ATOM     11  O   UNL     1       6.100   7.725  17.693  0.00  0.00    +0.000 OA
ATOM     12  O   UNL     1       5.551   5.663  19.027  0.00  0.00    +0.000 OA
BRANCH  10  13
ATOM     13  C   UNL     1       5.484   5.500  16.445  0.00  0.00    +0.000 A 
ATOM     14  C   UNL     1       5.553   6.071  15.177  0.00  0.00    +0.000 A 
ATOM     15  C   UNL     1       5.786   5.255  14.064  0.00  0.00    +0.000 A 
ATOM     16  C   UNL     1       5.983   3.876  14.203  0.00  0.00    +0.000 A 
ATOM     17  C   UNL     1       5.923   3.317  15.487  0.00  0.00    +0.000 A 
ATOM     18  C   UNL     1       5.681   4.124  16.606  0.00  0.00    +0.000 A 
BRANCH  16  19
ATOM     19  N   UNL     1       6.270   3.012  13.119  0.00  0.00    +0.000 N 
ATOM     20  C   UNL     1       5.493   2.807  11.992  0.00  0.00    +0.000 C 
ATOM     21  C   UNL     1       6.106   1.851  10.999  0.00  0.00    +0.000 C 
ATOM     22  O   UNL     1       4.391   3.297  11.761  0.00  0.00    +0.000 OA
ATOM     23  H   UNL     1       7.151   2.515  13.165  0.00  0.00    +0.000 HD
ENDBRANCH  16  19
ENDBRANCH  10  13
ENDBRANCH   1  10
BRANCH   1  24
ATOM     24  C   UNL     1       3.357   8.376  18.263  0.00  0.00    +0.000 C 
BRANCH  24  25
ATOM     25  C   UNL     1       1.952   8.877  17.996  0.00  0.00    +0.000 C 
ATOM     26  O   UNL     1       1.275   8.406  17.085  0.00  0.00    +0.000 OA
ATOM     27  N   UNL     1       1.544   9.966  18.738  0.00  0.00    +0.000 N 
ATOM     28  H   UNL     1       2.050  10.170  19.593  0.00  0.00    +0.000 HD
BRANCH  27  29
ATOM     29  C   UNL     1       0.288  10.628  18.452  0.00  0.00    +0.000 C 
ATOM     30  C   UNL     1      -0.870  10.171  19.331  0.00  0.00    +0.000 C 
ATOM     31  C   UNL     1      -1.928  11.246  19.098  0.00  0.00    +0.000 C 
ATOM     32  C   UNL     1      -1.156  12.530  18.788  0.00  0.00    +0.000 C 
ATOM     33  C   UNL     1       0.318  12.132  18.703  0.00  0.00    +0.000 C 
ENDBRANCH  27  29
ENDBRANCH  24  25
ENDBRANCH   1  24
TORSDOF 8
ENDMDL
MODEL 7
REMARK VINA RESULT:      -6.7      3.105      6.911
REMARK  Name = 
REMARK  10 active torsions:
REMARK  status: ('A' for Active; 'I' for Inactive)
REMARK    1  A    between atoms: C_1  and  O_2
REMARK    2  A    between atoms: O_2  and  C_3
REMARK    3  A    between atoms: C_6  and  N_7
REMARK    4  A    between atoms: N_7  and  C_8
REMARK    5  A    between atoms: N_7  and  S_17
REMARK    6  A    between atoms: C_8  and  C_9
REMARK    7  A    between atoms: N_11  and  C_12
REMARK    8  A    between atoms: S_17  and  C_20
REMARK    9  A    between atoms: C_23  and  N_24
REMARK   10  A    between atoms: C_25  and  C_26
REMARK                            x       y       z     vdW  Elec       q    Type
REMARK                         _______ _______ _______ _____ _____    ______ ____
ROOT
ATOM      1  N   UNL     1      -0.646  11.696  21.689  0.00  0.00    +0.000 N 
ENDROOT
BRANCH   1   5
ATOM      2  C   UNL     1      -2.684  14.341  24.339  0.00  0.00    +0.000 A 
ATOM      3  C   UNL     1      -3.259  13.113  24.006  0.00  0.00    +0.000 A 
ATOM      4  C   UNL     1      -2.596  12.215  23.160  0.00  0.00    +0.000 A 
ATOM      5  C   UNL     1      -1.341  12.543  22.642  0.00  0.00    +0.000 A 
ATOM      6  C   UNL     1      -0.780  13.785  22.948  0.00  0.00    +0.000 A 
ATOM      7  C   UNL     1      -1.444  14.680  23.800  0.00  0.00    +0.000 A 
BRANCH   2   9
ATOM      8  C   UNL     1      -4.097  16.241  24.518  0.00  0.00    +0.000 C 
ATOM      9  O   UNL     1      -3.450  15.140  25.144  0.00  0.00    +0.000 OA
ENDBRANCH   2   9
ENDBRANCH   1   5
BRANCH   1  10
ATOM     10  S   UNL     1      -1.167  12.008  20.063  0.00  0.00    +0.000 S 
ATOM     11  O   UNL     1      -1.440  10.744  19.407  0.00  0.00    +0.000 OA
ATOM     12  O   UNL     1      -2.167  13.057  20.082  0.00  0.00    +0.000 OA
BRANCH  10  13
ATOM     13  C   UNL     1       0.281  12.723  19.310  0.00  0.00    +0.000 A 
ATOM     14  C   UNL     1       0.474  14.102  19.319  0.00  0.00    +0.000 A 
ATOM     15  C   UNL     1       1.662  14.636  18.805  0.00  0.00    +0.000 A 
ATOM     16  C   UNL     1       2.675  13.808  18.308  0.00  0.00    +0.000 A 
ATOM     17  C   UNL     1       2.471  12.422  18.316  0.00  0.00    +0.000 A 
ATOM     18  C   UNL     1       1.283  11.878  18.820  0.00  0.00    +0.000 A 
BRANCH  16  19
ATOM     19  N   UNL     1       3.914  14.292  17.823  0.00  0.00    +0.000 N 
ATOM     20  C   UNL     1       4.977  14.758  18.577  0.00  0.00    +0.000 C 
ATOM     21  C   UNL     1       6.174  15.161  17.753  0.00  0.00    +0.000 C 
ATOM     22  O   UNL     1       5.011  14.884  19.797  0.00  0.00    +0.000 OA
ATOM     23  H   UNL     1       4.040  14.268  16.818  0.00  0.00    +0.000 HD
ENDBRANCH  16  19
ENDBRANCH  10  13
ENDBRANCH   1  10
BRANCH   1  24
ATOM     24  C   UNL     1      -0.624  10.239  22.045  0.00  0.00    +0.000 C 
BRANCH  24  25
ATOM     25  C   UNL     1       0.654   9.501  21.699  0.00  0.00    +0.000 C 
ATOM     26  O   UNL     1       1.673   9.652  22.369  0.00  0.00    +0.000 OA
ATOM     27  N   UNL     1       0.635   8.772  20.528  0.00  0.00    +0.000 N 
ATOM     28  H   UNL     1      -0.269   8.523  20.142  0.00  0.00    +0.000 HD
BRANCH  27  29
ATOM     29  C   UNL     1       1.846   8.163  20.016  0.00  0.00    +0.000 C 
ATOM     30  C   UNL     1       1.920   6.655  20.226  0.00  0.00    +0.000 C 
ATOM     31  C   UNL     1       3.056   6.231  19.298  0.00  0.00    +0.000 C 
ATOM     32  C   UNL     1       3.045   7.233  18.142  0.00  0.00    +0.000 C 
ATOM     33  C   UNL     1       2.005   8.293  18.505  0.00  0.00    +0.000 C 
ENDBRANCH  27  29
ENDBRANCH  24  25
ENDBRANCH   1  24
TORSDOF 8
ENDMDL
MODEL 8
REMARK VINA RESULT:      -6.7      1.637      2.156
REMARK  Name = 
REMARK  10 active torsions:
REMARK  status: ('A' for Active; 'I' for Inactive)
REMARK    1  A    between atoms: C_1  and  O_2
REMARK    2  A    between atoms: O_2  and  C_3
REMARK    3  A    between atoms: C_6  and  N_7
REMARK    4  A    between atoms: N_7  and  C_8
REMARK    5  A    between atoms: N_7  and  S_17
REMARK    6  A    between atoms: C_8  and  C_9
REMARK    7  A    between atoms: N_11  and  C_12
REMARK    8  A    between atoms: S_17  and  C_20
REMARK    9  A    between atoms: C_23  and  N_24
REMARK   10  A    between atoms: C_25  and  C_26
REMARK                            x       y       z     vdW  Elec       q    Type
REMARK                         _______ _______ _______ _____ _____    ______ ____
ROOT
ATOM      1  N   UNL     1       0.091  11.225  20.089  0.00  0.00    +0.000 N 
ENDROOT
BRANCH   1   5
ATOM      2  C   UNL     1      -3.638  11.019  18.032  0.00  0.00    +0.000 A 
ATOM      3  C   UNL     1      -3.484  11.901  19.105  0.00  0.00    +0.000 A 
ATOM      4  C   UNL     1      -2.260  12.007  19.778  0.00  0.00    +0.000 A 
ATOM      5  C   UNL     1      -1.173  11.228  19.375  0.00  0.00    +0.000 A 
ATOM      6  C   UNL     1      -1.336  10.321  18.324  0.00  0.00    +0.000 A 
ATOM      7  C   UNL     1      -2.560  10.221  17.648  0.00  0.00    +0.000 A 
BRANCH   2   9
ATOM      8  C   UNL     1      -5.978  10.844  18.392  0.00  0.00    +0.000 C 
ATOM      9  O   UNL     1      -4.891  10.986  17.485  0.00  0.00    +0.000 OA
ENDBRANCH   2   9
ENDBRANCH   1   5
BRANCH   1  10
ATOM     10  S   UNL     1       0.305   9.761  20.996  0.00  0.00    +0.000 S 
ATOM     11  O   UNL     1       1.026  10.066  22.218  0.00  0.00    +0.000 OA
ATOM     12  O   UNL     1      -0.955   9.048  21.047  0.00  0.00    +0.000 OA
BRANCH  10  13
ATOM     13  C   UNL     1       1.374   8.794  19.949  0.00  0.00    +0.000 A 
ATOM     14  C   UNL     1       1.822   7.542  20.360  0.00  0.00    +0.000 A 
ATOM     15  C   UNL     1       2.584   6.759  19.484  0.00  0.00    +0.000 A 
ATOM     16  C   UNL     1       2.880   7.198  18.189  0.00  0.00    +0.000 A 
ATOM     17  C   UNL     1       2.412   8.456  17.784  0.00  0.00    +0.000 A 
ATOM     18  C   UNL     1       1.657   9.250  18.656  0.00  0.00    +0.000 A 
BRANCH  16  19
ATOM     19  N   UNL     1       3.604   6.427  17.247  0.00  0.00    +0.000 N 
ATOM     20  C   UNL     1       4.953   6.526  16.955  0.00  0.00    +0.000 C 
ATOM     21  C   UNL     1       5.426   5.526  15.929  0.00  0.00    +0.000 C 
ATOM     22  O   UNL     1       5.748   7.336  17.422  0.00  0.00    +0.000 OA
ATOM     23  H   UNL     1       3.079   5.713  16.757  0.00  0.00    +0.000 HD
ENDBRANCH  16  19
ENDBRANCH  10  13
ENDBRANCH   1  10
BRANCH   1  24
ATOM     24  C   UNL     1       0.366  12.470  20.881  0.00  0.00    +0.000 C 
BRANCH  24  25
ATOM     25  C   UNL     1       1.646  13.199  20.526  0.00  0.00    +0.000 C 
ATOM     26  O   UNL     1       2.629  13.148  21.263  0.00  0.00    +0.000 OA
ATOM     27  N   UNL     1       1.592  14.016  19.416  0.00  0.00    +0.000 N 
ATOM     28  H   UNL     1       0.844  13.858  18.750  0.00  0.00    +0.000 HD
BRANCH  27  29
ATOM     29  C   UNL     1       2.703  14.884  19.081  0.00  0.00    +0.000 C 
ATOM     30  C   UNL     1       3.750  14.234  18.183  0.00  0.00    +0.000 C 
ATOM     31  C   UNL     1       4.570  15.424  17.691  0.00  0.00    +0.000 C 
ATOM     32  C   UNL     1       3.605  16.611  17.661  0.00  0.00    +0.000 C 
ATOM     33  C   UNL     1       2.297  16.113  18.276  0.00  0.00    +0.000 C 
ENDBRANCH  27  29
ENDBRANCH  24  25
ENDBRANCH   1  24
TORSDOF 8
ENDMDL
MODEL 9
REMARK VINA RESULT:      -6.7      2.972      5.801
REMARK  Name = 
REMARK  10 active torsions:
REMARK  status: ('A' for Active; 'I' for Inactive)
REMARK    1  A    between atoms: C_1  and  O_2
REMARK    2  A    between atoms: O_2  and  C_3
REMARK    3  A    between atoms: C_6  and  N_7
REMARK    4  A    between atoms: N_7  and  C_8
REMARK    5  A    between atoms: N_7  and  S_17
REMARK    6  A    between atoms: C_8  and  C_9
REMARK    7  A    between atoms: N_11  and  C_12
REMARK    8  A    between atoms: S_17  and  C_20
REMARK    9  A    between atoms: C_23  and  N_24
REMARK   10  A    between atoms: C_25  and  C_26
REMARK                            x       y       z     vdW  Elec       q    Type
REMARK                         _______ _______ _______ _____ _____    ______ ____
ROOT
ATOM      1  N   UNL     1      -0.639  11.150  19.729  0.00  0.00    +0.000 N 
ENDROOT
BRANCH   1   5
ATOM      2  C   UNL     1      -1.972  13.540  22.997  0.00  0.00    +0.000 A 
ATOM      3  C   UNL     1      -1.586  14.151  21.802  0.00  0.00    +0.000 A 
ATOM      4  C   UNL     1      -1.172  13.386  20.705  0.00  0.00    +0.000 A 
ATOM      5  C   UNL     1      -1.144  11.992  20.797  0.00  0.00    +0.000 A 
ATOM      6  C   UNL     1      -1.498  11.382  22.004  0.00  0.00    +0.000 A 
ATOM      7  C   UNL     1      -1.918  12.150  23.099  0.00  0.00    +0.000 A 
BRANCH   2   9
ATOM      8  C   UNL     1      -3.625  14.247  24.548  0.00  0.00    +0.000 C 
ATOM      9  O   UNL     1      -2.320  14.401  24.002  0.00  0.00    +0.000 OA
ENDBRANCH   2   9
ENDBRANCH   1   5
BRANCH   1  10
ATOM     10  S   UNL     1       1.095  11.195  19.651  0.00  0.00    +0.000 S 
ATOM     11  O   UNL     1       1.493  12.028  18.533  0.00  0.00    +0.000 OA
ATOM     12  O   UNL     1       1.620  11.446  20.978  0.00  0.00    +0.000 OA
BRANCH  10  13
ATOM     13  C   UNL     1       1.522   9.508  19.265  0.00  0.00    +0.000 A 
ATOM     14  C   UNL     1       1.968   9.167  17.991  0.00  0.00    +0.000 A 
ATOM     15  C   UNL     1       2.388   7.856  17.734  0.00  0.00    +0.000 A 
ATOM     16  C   UNL     1       2.395   6.886  18.743  0.00  0.00    +0.000 A 
ATOM     17  C   UNL     1       1.954   7.247  20.024  0.00  0.00    +0.000 A 
ATOM     18  C   UNL     1       1.525   8.554  20.289  0.00  0.00    +0.000 A 
BRANCH  16  19
ATOM     19  N   UNL     1       2.854   5.560  18.552  0.00  0.00    +0.000 N 
ATOM     20  C   UNL     1       2.201   4.545  17.875  0.00  0.00    +0.000 C 
ATOM     21  C   UNL     1       2.983   3.256  17.813  0.00  0.00    +0.000 C 
ATOM     22  O   UNL     1       1.084   4.601  17.368  0.00  0.00    +0.000 OA
ATOM     23  H   UNL     1       3.769   5.345  18.929  0.00  0.00    +0.000 HD
ENDBRANCH  16  19
ENDBRANCH  10  13
ENDBRANCH   1  10
BRANCH   1  24
ATOM     24  C   UNL     1      -1.307  11.353  18.401  0.00  0.00    +0.000 C 
BRANCH  24  25
ATOM     25  C   UNL     1      -2.766  10.950  18.336  0.00  0.00    +0.000 C 
ATOM     26  O   UNL     1      -3.098   9.838  17.930  0.00  0.00    +0.000 OA
ATOM     27  N   UNL     1      -3.683  11.939  18.627  0.00  0.00    +0.000 N 
ATOM     28  H   UNL     1      -3.356  12.748  19.144  0.00  0.00    +0.000 HD
BRANCH  27  29
ATOM     29  C   UNL     1      -5.102  11.712  18.438  0.00  0.00    +0.000 C 
ATOM     30  C   UNL     1      -5.961  12.120  19.629  0.00  0.00    +0.000 C 
ATOM     31  C   UNL     1      -7.372  12.138  19.048  0.00  0.00    +0.000 C 
ATOM     32  C   UNL     1      -7.210  12.496  17.570  0.00  0.00    +0.000 C 
ATOM     33  C   UNL     1      -5.705  12.529  17.301  0.00  0.00    +0.000 C 
ENDBRANCH  27  29
ENDBRANCH  24  25
ENDBRANCH   1  24
TORSDOF 8
ENDMDL
