MODEL 1
REMARK VINA RESULT:      -7.0      0.000      0.000
REMARK  Name = 
REMARK  9 active torsions:
REMARK  status: ('A' for Active; 'I' for Inactive)
REMARK    1  A    between atoms: C_1  and  O_2
REMARK    2  A    between atoms: O_2  and  C_3
REMARK    3  A    between atoms: C_5  and  O_6
REMARK    4  A    between atoms: O_6  and  C_7
REMARK    5  A    between atoms: C_8  and  O_9
REMARK    6  A    between atoms: O_9  and  C_10
REMARK    7  A    between atoms: C_12  and  C_13
REMARK    8  A    between atoms: C_14  and  C_15
REMARK    9  A    between atoms: C_15  and  C_17
REMARK                            x       y       z     vdW  Elec       q    Type
REMARK                         _______ _______ _______ _____ _____    ______ ____
ROOT
ATOM      1  C   UNL     1       3.910   6.029  17.623  0.00  0.00    +0.000 A 
ATOM      2  C   UNL     1       4.271   4.721  17.954  0.00  0.00    +0.000 A 
ATOM      3  C   UNL     1       3.741   4.077  19.077  0.00  0.00    +0.000 A 
ATOM      4  C   UNL     1       2.836   4.751  19.907  0.00  0.00    +0.000 A 
ATOM      5  C   UNL     1       2.450   6.058  19.562  0.00  0.00    +0.000 A 
ATOM      6  C   UNL     1       2.971   6.710  18.422  0.00  0.00    +0.000 A 
ENDROOT
BRANCH   1   8
ATOM      7  C   UNL     1       5.468   6.033  15.825  0.00  0.00    +0.000 C 
ATOM      8  O   UNL     1       4.425   6.689  16.536  0.00  0.00    +0.000 OA
ENDBRANCH   1   8
BRANCH   3   9
ATOM      9  O   UNL     1       4.267   2.824  19.269  0.00  0.00    +0.000 OA
ATOM     10  C   UNL     1       3.617   1.751  18.600  0.00  0.00    +0.000 C 
ENDBRANCH   3   9
BRANCH   4  11
ATOM     11  O   UNL     1       2.415   4.098  21.034  0.00  0.00    +0.000 OA
ATOM     12  C   UNL     1       1.231   3.319  20.967  0.00  0.00    +0.000 C 
ENDBRANCH   4  11
BRANCH   6  13
ATOM     13  C   UNL     1       2.602   8.129  18.219  0.00  0.00    +0.000 C 
ATOM     14  C   UNL     1       1.585   8.759  18.825  0.00  0.00    +0.000 C 
BRANCH  14  15
ATOM     15  C   UNL     1       1.226  10.152  18.429  0.00  0.00    +0.000 C 
ATOM     16  O   UNL     1       2.071  10.985  18.127  0.00  0.00    +0.000 OA
BRANCH  15  17
ATOM     17  C   UNL     1      -0.221  10.492  18.353  0.00  0.00    +0.000 A 
ATOM     18  C   UNL     1      -0.761  11.561  19.077  0.00  0.00    +0.000 A 
ATOM     19  C   UNL     1      -2.122  11.864  18.968  0.00  0.00    +0.000 A 
ATOM     20  C   UNL     1      -2.938  11.101  18.133  0.00  0.00    +0.000 A 
ATOM     21 BR   UNL     1      -4.779  11.511  17.998  0.00  0.00    +0.000 Br
ATOM     22  C   UNL     1      -2.408  10.044  17.397  0.00  0.00    +0.000 A 
ATOM     23  C   UNL     1      -1.044   9.743  17.502  0.00  0.00    +0.000 A 
ENDBRANCH  15  17
ENDBRANCH  14  15
ENDBRANCH   6  13
TORSDOF 6
ENDMDL
MODEL 2
REMARK VINA RESULT:      -7.0      2.723      4.661
REMARK  Name = 
REMARK  9 active torsions:
REMARK  status: ('A' for Active; 'I' for Inactive)
REMARK    1  A    between atoms: C_1  and  O_2
REMARK    2  A    between atoms: O_2  and  C_3
REMARK    3  A    between atoms: C_5  and  O_6
REMARK    4  A    between atoms: O_6  and  C_7
REMARK    5  A    between atoms: C_8  and  O_9
REMARK    6  A    between atoms: O_9  and  C_10
REMARK    7  A    between atoms: C_12  and  C_13
REMARK    8  A    between atoms: C_14  and  C_15
REMARK    9  A    between atoms: C_15  and  C_17
REMARK                            x       y       z     vdW  Elec       q    Type
REMARK                         _______ _______ _______ _____ _____    ______ ____
ROOT
ATOM      1  C   UNL     1       4.446   4.302  16.964  0.00  0.00    +0.000 A 
ATOM      2  C   UNL     1       5.424   4.163  15.976  0.00  0.00    +0.000 A 
ATOM      3  C   UNL     1       6.522   5.027  15.906  0.00  0.00    +0.000 A 
ATOM      4  C   UNL     1       6.650   6.070  16.832  0.00  0.00    +0.000 A 
ATOM      5  C   UNL     1       5.682   6.198  17.842  0.00  0.00    +0.000 A 
ATOM      6  C   UNL     1       4.577   5.320  17.928  0.00  0.00    +0.000 A 
ENDROOT
BRANCH   1   8
ATOM      7  C   UNL     1       3.527   2.254  17.749  0.00  0.00    +0.000 C 
ATOM      8  O   UNL     1       3.351   3.478  17.047  0.00  0.00    +0.000 OA
ENDBRANCH   1   8
BRANCH   3   9
ATOM      9  O   UNL     1       7.334   4.767  14.831  0.00  0.00    +0.000 OA
ATOM     10  C   UNL     1       6.691   4.372  13.627  0.00  0.00    +0.000 C 
ENDBRANCH   3   9
BRANCH   4  11
ATOM     11  O   UNL     1       7.701   6.931  16.662  0.00  0.00    +0.000 OA
ATOM     12  C   UNL     1       7.834   8.026  17.554  0.00  0.00    +0.000 C 
ENDBRANCH   4  11
BRANCH   6  13
ATOM     13  C   UNL     1       3.546   5.619  18.947  0.00  0.00    +0.000 C 
ATOM     14  C   UNL     1       2.776   6.717  18.971  0.00  0.00    +0.000 C 
BRANCH  14  15
ATOM     15  C   UNL     1       1.873   6.971  20.130  0.00  0.00    +0.000 C 
ATOM     16  O   UNL     1       1.577   6.096  20.935  0.00  0.00    +0.000 OA
BRANCH  15  17
ATOM     17  C   UNL     1       1.376   8.361  20.321  0.00  0.00    +0.000 A 
ATOM     18  C   UNL     1       1.347   9.280  19.265  0.00  0.00    +0.000 A 
ATOM     19  C   UNL     1       0.858  10.573  19.475  0.00  0.00    +0.000 A 
ATOM     20  C   UNL     1       0.396  10.944  20.738  0.00  0.00    +0.000 A 
ATOM     21 BR   UNL     1      -0.257  12.696  21.017  0.00  0.00    +0.000 Br
ATOM     22  C   UNL     1       0.407  10.032  21.792  0.00  0.00    +0.000 A 
ATOM     23  C   UNL     1       0.892   8.736  21.580  0.00  0.00    +0.000 A 
ENDBRANCH  15  17
ENDBRANCH  14  15
ENDBRANCH   6  13
TORSDOF 6
ENDMDL
MODEL 3
REMARK VINA RESULT:      -6.9      2.560      4.366
REMARK  Name = 
REMARK  9 active torsions:
REMARK  status: ('A' for Active; 'I' for Inactive)
REMARK    1  A    between atoms: C_1  and  O_2
REMARK    2  A    between atoms: O_2  and  C_3
REMARK    3  A    between atoms: C_5  and  O_6
REMARK    4  A    between atoms: O_6  and  C_7
REMARK    5  A    between atoms: C_8  and  O_9
REMARK    6  A    between atoms: O_9  and  C_10
REMARK    7  A    between atoms: C_12  and  C_13
REMARK    8  A    between atoms: C_14  and  C_15
REMARK    9  A    between atoms: C_15  and  C_17
REMARK                            x       y       z     vdW  Elec       q    Type
REMARK                         _______ _______ _______ _____ _____    ______ ____
ROOT
ATOM      1  C   UNL     1       4.119   4.265  17.076  0.00  0.00    +0.000 A 
ATOM      2  C   UNL     1       5.079   3.998  16.097  0.00  0.00    +0.000 A 
ATOM      3  C   UNL     1       6.219   4.797  15.953  0.00  0.00    +0.000 A 
ATOM      4  C   UNL     1       6.408   5.903  16.793  0.00  0.00    +0.000 A 
ATOM      5  C   UNL     1       5.456   6.158  17.795  0.00  0.00    +0.000 A 
ATOM      6  C   UNL     1       4.310   5.348  17.955  0.00  0.00    +0.000 A 
ENDROOT
BRANCH   1   8
ATOM      7  C   UNL     1       3.151   2.225  17.825  0.00  0.00    +0.000 C 
ATOM      8  O   UNL     1       2.985   3.506  17.230  0.00  0.00    +0.000 OA
ENDBRANCH   1   8
BRANCH   3   9
ATOM      9  O   UNL     1       7.007   4.413  14.898  0.00  0.00    +0.000 OA
ATOM     10  C   UNL     1       6.334   4.007  13.714  0.00  0.00    +0.000 C 
ENDBRANCH   3   9
BRANCH   4  11
ATOM     11  O   UNL     1       7.499   6.693  16.550  0.00  0.00    +0.000 OA
ATOM     12  C   UNL     1       7.788   7.750  17.451  0.00  0.00    +0.000 C 
ENDBRANCH   4  11
BRANCH   6  13
ATOM     13  C   UNL     1       3.304   5.777  18.953  0.00  0.00    +0.000 C 
ATOM     14  C   UNL     1       2.631   6.938  18.924  0.00  0.00    +0.000 C 
BRANCH  14  15
ATOM     15  C   UNL     1       1.749   7.318  20.064  0.00  0.00    +0.000 C 
ATOM     16  O   UNL     1       1.494   6.547  20.981  0.00  0.00    +0.000 OA
BRANCH  15  17
ATOM     17  C   UNL     1       1.224   8.711  20.090  0.00  0.00    +0.000 A 
ATOM     18  C   UNL     1       0.708   9.277  21.262  0.00  0.00    +0.000 A 
ATOM     19  C   UNL     1       0.239  10.594  21.255  0.00  0.00    +0.000 A 
ATOM     20  C   UNL     1       0.289  11.343  20.079  0.00  0.00    +0.000 A 
ATOM     21 BR   UNL     1      -0.355  13.121  20.075  0.00  0.00    +0.000 Br
ATOM     22  C   UNL     1       0.814  10.794  18.911  0.00  0.00    +0.000 A 
ATOM     23  C   UNL     1       1.289   9.476  18.919  0.00  0.00    +0.000 A 
ENDBRANCH  15  17
ENDBRANCH  14  15
ENDBRANCH   6  13
TORSDOF 6
ENDMDL
MODEL 4
REMARK VINA RESULT:      -6.9      0.464      1.111
REMARK  Name = 
REMARK  9 active torsions:
REMARK  status: ('A' for Active; 'I' for Inactive)
REMARK    1  A    between atoms: C_1  and  O_2
REMARK    2  A    between atoms: O_2  and  C_3
REMARK    3  A    between atoms: C_5  and  O_6
REMARK    4  A    between atoms: O_6  and  C_7
REMARK    5  A    between atoms: C_8  and  O_9
REMARK    6  A    between atoms: O_9  and  C_10
REMARK    7  A    between atoms: C_12  and  C_13
REMARK    8  A    between atoms: C_14  and  C_15
REMARK    9  A    between atoms: C_15  and  C_17
REMARK                            x       y       z     vdW  Elec       q    Type
REMARK                         _______ _______ _______ _____ _____    ______ ____
ROOT
ATOM      1  C   UNL     1       3.959   6.066  17.593  0.00  0.00    +0.000 A 
ATOM      2  C   UNL     1       4.280   4.740  17.891  0.00  0.00    +0.000 A 
ATOM      3  C   UNL     1       3.492   3.973  18.757  0.00  0.00    +0.000 A 
ATOM      4  C   UNL     1       2.361   4.540  19.358  0.00  0.00    +0.000 A 
ATOM      5  C   UNL     1       2.021   5.866  19.040  0.00  0.00    +0.000 A 
ATOM      6  C   UNL     1       2.804   6.642  18.156  0.00  0.00    +0.000 A 
ENDROOT
BRANCH   1   8
ATOM      7  C   UNL     1       5.301   6.198  15.633  0.00  0.00    +0.000 C 
ATOM      8  O   UNL     1       4.722   6.846  16.759  0.00  0.00    +0.000 OA
ENDBRANCH   1   8
BRANCH   3   9
ATOM      9  O   UNL     1       4.006   2.720  18.972  0.00  0.00    +0.000 OA
ATOM     10  C   UNL     1       3.455   1.664  18.196  0.00  0.00    +0.000 C 
ENDBRANCH   3   9
BRANCH   4  11
ATOM     11  O   UNL     1       1.677   3.766  20.258  0.00  0.00    +0.000 OA
ATOM     12  C   UNL     1       2.180   3.656  21.580  0.00  0.00    +0.000 C 
ENDBRANCH   4  11
BRANCH   6  13
ATOM     13  C   UNL     1       2.436   8.066  17.989  0.00  0.00    +0.000 C 
ATOM     14  C   UNL     1       1.699   8.782  18.853  0.00  0.00    +0.000 C 
BRANCH  14  15
ATOM     15  C   UNL     1       1.276  10.168  18.503  0.00  0.00    +0.000 C 
ATOM     16  O   UNL     1       2.082  11.067  18.297  0.00  0.00    +0.000 OA
BRANCH  15  17
ATOM     17  C   UNL     1      -0.183  10.422  18.349  0.00  0.00    +0.000 A 
ATOM     18  C   UNL     1      -0.970   9.659  17.478  0.00  0.00    +0.000 A 
ATOM     19  C   UNL     1      -2.341   9.912  17.371  0.00  0.00    +0.000 A 
ATOM     20  C   UNL     1      -2.922  10.924  18.136  0.00  0.00    +0.000 A 
ATOM     21 BR   UNL     1      -4.776  11.267  17.980  0.00  0.00    +0.000 Br
ATOM     22  C   UNL     1      -2.150  11.679  19.016  0.00  0.00    +0.000 A 
ATOM     23  C   UNL     1      -0.778  11.422  19.127  0.00  0.00    +0.000 A 
ENDBRANCH  15  17
ENDBRANCH  14  15
ENDBRANCH   6  13
TORSDOF 6
ENDMDL
MODEL 5
REMARK VINA RESULT:      -6.8      2.263      2.502
REMARK  Name = 
REMARK  9 active torsions:
REMARK  status: ('A' for Active; 'I' for Inactive)
REMARK    1  A    between atoms: C_1  and  O_2
REMARK    2  A    between atoms: O_2  and  C_3
REMARK    3  A    between atoms: C_5  and  O_6
REMARK    4  A    between atoms: O_6  and  C_7
REMARK    5  A    between atoms: C_8  and  O_9
REMARK    6  A    between atoms: O_9  and  C_10
REMARK    7  A    between atoms: C_12  and  C_13
REMARK    8  A    between atoms: C_14  and  C_15
REMARK    9  A    between atoms: C_15  and  C_17
REMARK                            x       y       z     vdW  Elec       q    Type
REMARK                         _______ _______ _______ _____ _____    ______ ____
ROOT
ATOM      1  C   UNL     1       4.394   5.450  17.800  0.00  0.00    +0.000 A 
ATOM      2  C   UNL     1       4.494   4.066  17.637  0.00  0.00    +0.000 A 
ATOM      3  C   UNL     1       3.361   3.245  17.642  0.00  0.00    +0.000 A 
ATOM      4  C   UNL     1       2.092   3.807  17.828  0.00  0.00    +0.000 A 
ATOM      5  C   UNL     1       1.985   5.201  17.967  0.00  0.00    +0.000 A 
ATOM      6  C   UNL     1       3.123   6.039  17.949  0.00  0.00    +0.000 A 
ENDROOT
BRANCH   1   8
ATOM      7  C   UNL     1       6.326   6.248  16.664  0.00  0.00    +0.000 C 
ATOM      8  O   UNL     1       5.489   6.277  17.814  0.00  0.00    +0.000 OA
ENDBRANCH   1   8
BRANCH   3   9
ATOM      9  O   UNL     1       3.671   1.913  17.532  0.00  0.00    +0.000 OA
ATOM     10  C   UNL     1       3.970   1.226  18.740  0.00  0.00    +0.000 C 
ENDBRANCH   3   9
BRANCH   4  11
ATOM     11  O   UNL     1       1.031   2.944  17.905  0.00  0.00    +0.000 OA
ATOM     12  C   UNL     1       0.577   2.537  19.186  0.00  0.00    +0.000 C 
ENDBRANCH   4  11
BRANCH   6  13
ATOM     13  C   UNL     1       2.918   7.477  18.234  0.00  0.00    +0.000 C 
ATOM     14  C   UNL     1       1.768   8.145  18.053  0.00  0.00    +0.000 C 
BRANCH  14  15
ATOM     15  C   UNL     1       1.727   9.624  18.241  0.00  0.00    +0.000 C 
ATOM     16  O   UNL     1       2.301  10.397  17.484  0.00  0.00    +0.000 OA
BRANCH  15  17
ATOM     17  C   UNL     1       0.903  10.150  19.363  0.00  0.00    +0.000 A 
ATOM     18  C   UNL     1       0.613   9.368  20.488  0.00  0.00    +0.000 A 
ATOM     19  C   UNL     1      -0.149   9.900  21.533  0.00  0.00    +0.000 A 
ATOM     20  C   UNL     1      -0.617  11.211  21.453  0.00  0.00    +0.000 A 
ATOM     21 BR   UNL     1      -1.655  11.921  22.866  0.00  0.00    +0.000 Br
ATOM     22  C   UNL     1      -0.322  12.003  20.345  0.00  0.00    +0.000 A 
ATOM     23  C   UNL     1       0.446  11.472  19.301  0.00  0.00    +0.000 A 
ENDBRANCH  15  17
ENDBRANCH  14  15
ENDBRANCH   6  13
TORSDOF 6
ENDMDL
MODEL 6
REMARK VINA RESULT:      -6.8      1.981      2.379
REMARK  Name = 
REMARK  9 active torsions:
REMARK  status: ('A' for Active; 'I' for Inactive)
REMARK    1  A    between atoms: C_1  and  O_2
REMARK    2  A    between atoms: O_2  and  C_3
REMARK    3  A    between atoms: C_5  and  O_6
REMARK    4  A    between atoms: O_6  and  C_7
REMARK    5  A    between atoms: C_8  and  O_9
REMARK    6  A    between atoms: O_9  and  C_10
REMARK    7  A    between atoms: C_12  and  C_13
REMARK    8  A    between atoms: C_14  and  C_15
REMARK    9  A    between atoms: C_15  and  C_17
REMARK                            x       y       z     vdW  Elec       q    Type
REMARK                         _______ _______ _______ _____ _____    ______ ____
ROOT
ATOM      1  C   UNL     1       3.978   5.041  17.820  0.00  0.00    +0.000 A 
ATOM      2  C   UNL     1       4.337   3.736  18.164  0.00  0.00    +0.000 A 
ATOM      3  C   UNL     1       3.466   2.898  18.869  0.00  0.00    +0.000 A 
ATOM      4  C   UNL     1       2.205   3.371  19.258  0.00  0.00    +0.000 A 
ATOM      5  C   UNL     1       1.831   4.674  18.891  0.00  0.00    +0.000 A 
ATOM      6  C   UNL     1       2.701   5.521  18.168  0.00  0.00    +0.000 A 
ENDROOT
BRANCH   1   8
ATOM      7  C   UNL     1       5.462   5.361  15.989  0.00  0.00    +0.000 C 
ATOM      8  O   UNL     1       4.819   5.888  17.142  0.00  0.00    +0.000 OA
ENDBRANCH   1   8
BRANCH   3   9
ATOM      9  O   UNL     1       4.023   1.681  19.167  0.00  0.00    +0.000 OA
ATOM     10  C   UNL     1       4.829   1.618  20.336  0.00  0.00    +0.000 C 
ENDBRANCH   3   9
BRANCH   4  11
ATOM     11  O   UNL     1       1.430   2.533  20.015  0.00  0.00    +0.000 OA
ATOM     12  C   UNL     1       1.380   2.736  21.419  0.00  0.00    +0.000 C 
ENDBRANCH   4  11
BRANCH   6  13
ATOM     13  C   UNL     1       2.264   6.918  17.945  0.00  0.00    +0.000 C 
ATOM     14  C   UNL     1       2.227   7.877  18.883  0.00  0.00    +0.000 C 
BRANCH  14  15
ATOM     15  C   UNL     1       1.632   9.207  18.568  0.00  0.00    +0.000 C 
ATOM     16  O   UNL     1       1.763   9.741  17.473  0.00  0.00    +0.000 OA
BRANCH  15  17
ATOM     17  C   UNL     1       0.807   9.857  19.623  0.00  0.00    +0.000 A 
ATOM     18  C   UNL     1       0.669   9.292  20.896  0.00  0.00    +0.000 A 
ATOM     19  C   UNL     1      -0.099   9.938  21.869  0.00  0.00    +0.000 A 
ATOM     20  C   UNL     1      -0.724  11.149  21.570  0.00  0.00    +0.000 A 
ATOM     21 BR   UNL     1      -1.768  12.013  22.888  0.00  0.00    +0.000 Br
ATOM     22  C   UNL     1      -0.580  11.727  20.310  0.00  0.00    +0.000 A 
ATOM     23  C   UNL     1       0.193  11.083  19.337  0.00  0.00    +0.000 A 
ENDBRANCH  15  17
ENDBRANCH  14  15
ENDBRANCH   6  13
TORSDOF 6
ENDMDL
MODEL 7
REMARK VINA RESULT:      -6.8      0.930      2.918
REMARK  Name = 
REMARK  9 active torsions:
REMARK  status: ('A' for Active; 'I' for Inactive)
REMARK    1  A    between atoms: C_1  and  O_2
REMARK    2  A    between atoms: O_2  and  C_3
REMARK    3  A    between atoms: C_5  and  O_6
REMARK    4  A    between atoms: O_6  and  C_7
REMARK    5  A    between atoms: C_8  and  O_9
REMARK    6  A    between atoms: O_9  and  C_10
REMARK    7  A    between atoms: C_12  and  C_13
REMARK    8  A    between atoms: C_14  and  C_15
REMARK    9  A    between atoms: C_15  and  C_17
REMARK                            x       y       z     vdW  Elec       q    Type
REMARK                         _______ _______ _______ _____ _____    ______ ____
ROOT
ATOM      1  C   UNL     1       2.574   5.716  19.194  0.00  0.00    +0.000 A 
ATOM      2  C   UNL     1       3.194   4.542  18.760  0.00  0.00    +0.000 A 
ATOM      3  C   UNL     1       4.095   4.542  17.689  0.00  0.00    +0.000 A 
ATOM      4  C   UNL     1       4.382   5.739  17.019  0.00  0.00    +0.000 A 
ATOM      5  C   UNL     1       3.781   6.926  17.470  0.00  0.00    +0.000 A 
ATOM      6  C   UNL     1       2.880   6.935  18.559  0.00  0.00    +0.000 A 
ENDROOT
BRANCH   1   8
ATOM      7  C   UNL     1       1.145   4.489  20.647  0.00  0.00    +0.000 C 
ATOM      8  O   UNL     1       1.676   5.742  20.231  0.00  0.00    +0.000 OA
ENDBRANCH   1   8
BRANCH   3   9
ATOM      9  O   UNL     1       4.546   3.286  17.374  0.00  0.00    +0.000 OA
ATOM     10  C   UNL     1       3.740   2.194  17.797  0.00  0.00    +0.000 C 
ENDBRANCH   3   9
BRANCH   4  11
ATOM     11  O   UNL     1       5.208   5.662  15.929  0.00  0.00    +0.000 OA
ATOM     12  C   UNL     1       6.611   5.732  16.133  0.00  0.00    +0.000 C 
ENDBRANCH   4  11
BRANCH   6  13
ATOM     13  C   UNL     1       2.200   8.212  18.872  0.00  0.00    +0.000 C 
ATOM     14  C   UNL     1       1.464   8.930  18.009  0.00  0.00    +0.000 C 
BRANCH  14  15
ATOM     15  C   UNL     1       0.950  10.272  18.403  0.00  0.00    +0.000 C 
ATOM     16  O   UNL     1       1.691  11.177  18.767  0.00  0.00    +0.000 OA
BRANCH  15  17
ATOM     17  C   UNL     1      -0.515  10.508  18.283  0.00  0.00    +0.000 A 
ATOM     18  C   UNL     1      -1.161  11.497  19.034  0.00  0.00    +0.000 A 
ATOM     19  C   UNL     1      -2.536  11.704  18.883  0.00  0.00    +0.000 A 
ATOM     20  C   UNL     1      -3.261  10.924  17.982  0.00  0.00    +0.000 A 
ATOM     21 BR   UNL     1      -5.121  11.203  17.790  0.00  0.00    +0.000 Br
ATOM     22  C   UNL     1      -2.624   9.947  17.219  0.00  0.00    +0.000 A 
ATOM     23  C   UNL     1      -1.247   9.744  17.366  0.00  0.00    +0.000 A 
ENDBRANCH  15  17
ENDBRANCH  14  15
ENDBRANCH   6  13
TORSDOF 6
ENDMDL
MODEL 8
REMARK VINA RESULT:      -6.8      2.585      3.245
REMARK  Name = 
REMARK  9 active torsions:
REMARK  status: ('A' for Active; 'I' for Inactive)
REMARK    1  A    between atoms: C_1  and  O_2
REMARK    2  A    between atoms: O_2  and  C_3
REMARK    3  A    between atoms: C_5  and  O_6
REMARK    4  A    between atoms: O_6  and  C_7
REMARK    5  A    between atoms: C_8  and  O_9
REMARK    6  A    between atoms: O_9  and  C_10
REMARK    7  A    between atoms: C_12  and  C_13
REMARK    8  A    between atoms: C_14  and  C_15
REMARK    9  A    between atoms: C_15  and  C_17
REMARK                            x       y       z     vdW  Elec       q    Type
REMARK                         _______ _______ _______ _____ _____    ______ ____
ROOT
ATOM      1  C   UNL     1       2.406   7.172  18.872  0.00  0.00    +0.000 A 
ATOM      2  C   UNL     1       2.728   6.117  18.015  0.00  0.00    +0.000 A 
ATOM      3  C   UNL     1       2.606   4.783  18.418  0.00  0.00    +0.000 A 
ATOM      4  C   UNL     1       2.166   4.482  19.714  0.00  0.00    +0.000 A 
ATOM      5  C   UNL     1       1.817   5.541  20.570  0.00  0.00    +0.000 A 
ATOM      6  C   UNL     1       1.924   6.890  20.165  0.00  0.00    +0.000 A 
ENDROOT
BRANCH   1   8
ATOM      7  C   UNL     1       1.446   9.055  17.779  0.00  0.00    +0.000 C 
ATOM      8  O   UNL     1       2.530   8.489  18.507  0.00  0.00    +0.000 OA
ENDBRANCH   1   8
BRANCH   3   9
ATOM      9  O   UNL     1       3.030   3.897  17.461  0.00  0.00    +0.000 OA
ATOM     10  C   UNL     1       4.275   4.180  16.837  0.00  0.00    +0.000 C 
ENDBRANCH   3   9
BRANCH   4  11
ATOM     11  O   UNL     1       2.145   3.162  20.077  0.00  0.00    +0.000 OA
ATOM     12  C   UNL     1       1.376   2.779  21.206  0.00  0.00    +0.000 C 
ENDBRANCH   4  11
BRANCH   6  13
ATOM     13  C   UNL     1       1.658   7.932  21.182  0.00  0.00    +0.000 C 
ATOM     14  C   UNL     1       0.456   8.469  21.445  0.00  0.00    +0.000 C 
BRANCH  14  15
ATOM     15  C   UNL     1       0.341   9.613  22.393  0.00  0.00    +0.000 C 
ATOM     16  O   UNL     1       1.069   9.730  23.372  0.00  0.00    +0.000 OA
BRANCH  15  17
ATOM     17  C   UNL     1      -0.665  10.665  22.080  0.00  0.00    +0.000 A 
ATOM     18  C   UNL     1      -1.481  11.217  23.075  0.00  0.00    +0.000 A 
ATOM     19  C   UNL     1      -2.404  12.216  22.749  0.00  0.00    +0.000 A 
ATOM     20  C   UNL     1      -2.507  12.663  21.432  0.00  0.00    +0.000 A 
ATOM     21 BR   UNL     1      -3.763  14.007  20.997  0.00  0.00    +0.000 Br
ATOM     22  C   UNL     1      -1.689  12.130  20.437  0.00  0.00    +0.000 A 
ATOM     23  C   UNL     1      -0.762  11.133  20.764  0.00  0.00    +0.000 A 
ENDBRANCH  15  17
ENDBRANCH  14  15
ENDBRANCH   6  13
TORSDOF 6
ENDMDL
MODEL 9
REMARK VINA RESULT:      -6.7      1.661      3.286
REMARK  Name = 
REMARK  9 active torsions:
REMARK  status: ('A' for Active; 'I' for Inactive)
REMARK    1  A    between atoms: C_1  and  O_2
REMARK    2  A    between atoms: O_2  and  C_3
REMARK    3  A    between atoms: C_5  and  O_6
REMARK    4  A    between atoms: O_6  and  C_7
REMARK    5  A    between atoms: C_8  and  O_9
REMARK    6  A    between atoms: O_9  and  C_10
REMARK    7  A    between atoms: C_12  and  C_13
REMARK    8  A    between atoms: C_14  and  C_15
REMARK    9  A    between atoms: C_15  and  C_17
REMARK                            x       y       z     vdW  Elec       q    Type
REMARK                         _______ _______ _______ _____ _____    ______ ____
ROOT
ATOM      1  C   UNL     1       2.819   5.465  17.870  0.00  0.00    +0.000 A 
ATOM      2  C   UNL     1       3.715   4.673  17.148  0.00  0.00    +0.000 A 
ATOM      3  C   UNL     1       4.957   5.165  16.733  0.00  0.00    +0.000 A 
ATOM      4  C   UNL     1       5.320   6.485  17.029  0.00  0.00    +0.000 A 
ATOM      5  C   UNL     1       4.432   7.276  17.778  0.00  0.00    +0.000 A 
ATOM      6  C   UNL     1       3.182   6.782  18.212  0.00  0.00    +0.000 A 
ENDROOT
BRANCH   1   8
ATOM      7  C   UNL     1       1.579   3.996  19.271  0.00  0.00    +0.000 C 
ATOM      8  O   UNL     1       1.589   5.013  18.277  0.00  0.00    +0.000 OA
ENDBRANCH   1   8
BRANCH   3   9
ATOM      9  O   UNL     1       5.664   4.259  15.984  0.00  0.00    +0.000 OA
ATOM     10  C   UNL     1       5.587   4.401  14.572  0.00  0.00    +0.000 C 
ENDBRANCH   3   9
BRANCH   4  11
ATOM     11  O   UNL     1       6.512   6.933  16.527  0.00  0.00    +0.000 OA
ATOM     12  C   UNL     1       7.405   7.611  17.397  0.00  0.00    +0.000 C 
ENDBRANCH   4  11
BRANCH   6  13
ATOM     13  C   UNL     1       2.266   7.735  18.879  0.00  0.00    +0.000 C 
ATOM     14  C   UNL     1       1.654   8.769  18.282  0.00  0.00    +0.000 C 
BRANCH  14  15
ATOM     15  C   UNL     1       0.867   9.742  19.093  0.00  0.00    +0.000 C 
ATOM     16  O   UNL     1       1.299  10.229  20.131  0.00  0.00    +0.000 OA
BRANCH  15  17
ATOM     17  C   UNL     1      -0.460  10.160  18.566  0.00  0.00    +0.000 A 
ATOM     18  C   UNL     1      -1.220  11.151  19.199  0.00  0.00    +0.000 A 
ATOM     19  C   UNL     1      -2.456  11.532  18.667  0.00  0.00    +0.000 A 
ATOM     20  C   UNL     1      -2.928  10.925  17.503  0.00  0.00    +0.000 A 
ATOM     21 BR   UNL     1      -4.603  11.439  16.793  0.00  0.00    +0.000 Br
ATOM     22  C   UNL     1      -2.172   9.948  16.857  0.00  0.00    +0.000 A 
ATOM     23  C   UNL     1      -0.932   9.570  17.387  0.00  0.00    +0.000 A 
ENDBRANCH  15  17
ENDBRANCH  14  15
ENDBRANCH   6  13
TORSDOF 6
ENDMDL
