MODEL 1
REMARK VINA RESULT:      -8.5      0.000      0.000
REMARK  Name = 
REMARK  12 active torsions:
REMARK  status: ('A' for Active; 'I' for Inactive)
REMARK    1  A    between atoms: C_1  and  C_2
REMARK    2  A    between atoms: C_2  and  O_3
REMARK    3  A    between atoms: O_3  and  C_4
REMARK    4  A    between atoms: C_8  and  C_9
REMARK    5  A    between atoms: C_16  and  C_17
REMARK    6  A    between atoms: N_19  and  C_20
REMARK    7  A    between atoms: C_23  and  C_24
REMARK    8  A    between atoms: C_28  and  C_29
REMARK    9  A    between atoms: N_31  and  C_32
REMARK   10  A    between atoms: C_32  and  C_33
REMARK   11  A    between atoms: C_32  and  C_34
REMARK   12  A    between atoms: C_32  and  C_35
REMARK                            x       y       z     vdW  Elec       q    Type
REMARK                         _______ _______ _______ _____ _____    ______ ____
ROOT
ATOM      1  C   UNL     1       1.281  10.342  18.789  0.00  0.00    +0.000 A 
ATOM      2  N   UNL     1       2.087   9.852  17.821  0.00  0.00    +0.000 NA
ATOM      3  C   UNL     1       2.547   8.605  18.075  0.00  0.00    +0.000 A 
ATOM      4  O   UNL     1       3.326   7.924  17.206  0.00  0.00    +0.000 OA
ATOM      5  C   UNL     1       3.595   6.696  17.759  0.00  0.00    +0.000 A 
ATOM      6  C   UNL     1       3.020   6.599  19.020  0.00  0.00    +0.000 A 
ATOM      7  C   UNL     1       2.318   7.830  19.200  0.00  0.00    +0.000 A 
ATOM      8  C   UNL     1       1.527   8.402  20.193  0.00  0.00    +0.000 A 
ATOM      9  C   UNL     1       0.955   9.677  19.992  0.00  0.00    +0.000 A 
ENDROOT
BRANCH   5  10
ATOM     10  C   UNL     1       4.340   5.795  16.895  0.00  0.00    +0.000 A 
ATOM     11  C   UNL     1       5.214   6.303  15.923  0.00  0.00    +0.000 A 
ATOM     12  C   UNL     1       5.862   5.443  15.037  0.00  0.00    +0.000 A 
ATOM     13  C   UNL     1       5.646   4.074  15.122  0.00  0.00    +0.000 A 
ATOM     14  F   UNL     1       6.240   3.253  14.244  0.00  0.00    +0.000 F 
ATOM     15  C   UNL     1       4.809   3.544  16.094  0.00  0.00    +0.000 A 
ATOM     16  C   UNL     1       4.156   4.406  16.971  0.00  0.00    +0.000 A 
ENDBRANCH   5  10
BRANCH   9  17
ATOM     17  C   UNL     1       0.027  10.170  21.023  0.00  0.00    +0.000 A 
ATOM     18  C   UNL     1       0.162   9.739  22.364  0.00  0.00    +0.000 A 
ATOM     19  C   UNL     1      -0.659  10.211  23.377  0.00  0.00    +0.000 A 
ATOM     20  C   UNL     1      -1.652  11.128  23.065  0.00  0.00    +0.000 A 
ATOM     21  C   UNL     1      -1.822  11.565  21.743  0.00  0.00    +0.000 A 
ATOM     22  C   UNL     1      -0.981  11.095  20.737  0.00  0.00    +0.000 A 
BRANCH  21  23
ATOM     23  C   UNL     1      -2.860  12.585  21.482  0.00  0.00    +0.000 C 
ATOM     24  O   UNL     1      -2.604  13.458  20.658  0.00  0.00    +0.000 OA
ATOM     25  N   UNL     1      -4.042  12.511  22.199  0.00  0.00    +0.000 N 
ATOM     26  H   UNL     1      -4.151  11.794  22.908  0.00  0.00    +0.000 HD
BRANCH  25  27
ATOM     27  C   UNL     1      -5.110  13.516  22.058  0.00  0.00    +0.000 C 
ATOM     28  C   UNL     1      -4.577  14.912  22.434  0.00  0.00    +0.000 C 
ATOM     29  C   UNL     1      -5.617  13.536  20.602  0.00  0.00    +0.000 C 
ATOM     30  C   UNL     1      -6.304  13.171  22.965  0.00  0.00    +0.000 C 
ENDBRANCH  25  27
ENDBRANCH  21  23
ENDBRANCH   9  17
BRANCH   6  31
ATOM     31  C   UNL     1       3.203   5.453  19.907  0.00  0.00    +0.000 C 
ATOM     32  O   UNL     1       4.316   5.003  20.157  0.00  0.00    +0.000 OA
ATOM     33  N   UNL     1       2.061   4.882  20.426  0.00  0.00    +0.000 N 
ATOM     34  C   UNL     1       2.125   3.725  21.294  0.00  0.00    +0.000 C 
ATOM     35  H   UNL     1       1.152   5.237  20.177  0.00  0.00    +0.000 HD
ENDBRANCH   6  31
BRANCH   1  36
ATOM     36  O   UNL     1       0.759  11.617  18.577  0.00  0.00    +0.000 OA
BRANCH  36  38
ATOM     37  C   UNL     1       1.876  13.345  19.855  0.00  0.00    +0.000 C 
ATOM     38  C   UNL     1       1.765  12.635  18.513  0.00  0.00    +0.000 C 
ENDBRANCH  36  38
ENDBRANCH   1  36
TORSDOF 7
ENDMDL
MODEL 2
REMARK VINA RESULT:      -8.4      0.279      1.128
REMARK  Name = 
REMARK  12 active torsions:
REMARK  status: ('A' for Active; 'I' for Inactive)
REMARK    1  A    between atoms: C_1  and  C_2
REMARK    2  A    between atoms: C_2  and  O_3
REMARK    3  A    between atoms: O_3  and  C_4
REMARK    4  A    between atoms: C_8  and  C_9
REMARK    5  A    between atoms: C_16  and  C_17
REMARK    6  A    between atoms: N_19  and  C_20
REMARK    7  A    between atoms: C_23  and  C_24
REMARK    8  A    between atoms: C_28  and  C_29
REMARK    9  A    between atoms: N_31  and  C_32
REMARK   10  A    between atoms: C_32  and  C_33
REMARK   11  A    between atoms: C_32  and  C_34
REMARK   12  A    between atoms: C_32  and  C_35
REMARK                            x       y       z     vdW  Elec       q    Type
REMARK                         _______ _______ _______ _____ _____    ______ ____
ROOT
ATOM      1  C   UNL     1       1.200  10.377  18.749  0.00  0.00    +0.000 A 
ATOM      2  N   UNL     1       1.985   9.889  17.763  0.00  0.00    +0.000 NA
ATOM      3  C   UNL     1       2.466   8.649  18.012  0.00  0.00    +0.000 A 
ATOM      4  O   UNL     1       3.229   7.971  17.126  0.00  0.00    +0.000 OA
ATOM      5  C   UNL     1       3.527   6.751  17.680  0.00  0.00    +0.000 A 
ATOM      6  C   UNL     1       2.988   6.655  18.957  0.00  0.00    +0.000 A 
ATOM      7  C   UNL     1       2.277   7.880  19.148  0.00  0.00    +0.000 A 
ATOM      8  C   UNL     1       1.507   8.449  20.158  0.00  0.00    +0.000 A 
ATOM      9  C   UNL     1       0.915   9.716  19.965  0.00  0.00    +0.000 A 
ENDROOT
BRANCH   5  10
ATOM     10  C   UNL     1       4.258   5.852  16.802  0.00  0.00    +0.000 A 
ATOM     11  C   UNL     1       4.119   4.462  16.933  0.00  0.00    +0.000 A 
ATOM     12  C   UNL     1       4.885   3.599  16.150  0.00  0.00    +0.000 A 
ATOM     13  C   UNL     1       5.786   4.117  15.230  0.00  0.00    +0.000 A 
ATOM     14  F   UNL     1       6.548   3.285  14.506  0.00  0.00    +0.000 F 
ATOM     15  C   UNL     1       5.920   5.489  15.061  0.00  0.00    +0.000 A 
ATOM     16  C   UNL     1       5.161   6.349  15.851  0.00  0.00    +0.000 A 
ENDBRANCH   5  10
BRANCH   9  17
ATOM     17  C   UNL     1       0.009  10.206  21.018  0.00  0.00    +0.000 A 
ATOM     18  C   UNL     1       0.162   9.755  22.351  0.00  0.00    +0.000 A 
ATOM     19  C   UNL     1      -0.637  10.223  23.384  0.00  0.00    +0.000 A 
ATOM     20  C   UNL     1      -1.625  11.154  23.100  0.00  0.00    +0.000 A 
ATOM     21  C   UNL     1      -1.812  11.611  21.787  0.00  0.00    +0.000 A 
ATOM     22  C   UNL     1      -0.993  11.145  20.761  0.00  0.00    +0.000 A 
BRANCH  21  23
ATOM     23  C   UNL     1      -2.843  12.645  21.556  0.00  0.00    +0.000 C 
ATOM     24  O   UNL     1      -2.563  13.565  20.794  0.00  0.00    +0.000 OA
ATOM     25  N   UNL     1      -4.045  12.529  22.234  0.00  0.00    +0.000 N 
ATOM     26  H   UNL     1      -4.174  11.772  22.895  0.00  0.00    +0.000 HD
BRANCH  25  27
ATOM     27  C   UNL     1      -5.110  13.542  22.121  0.00  0.00    +0.000 C 
ATOM     28  C   UNL     1      -6.332  13.123  22.961  0.00  0.00    +0.000 C 
ATOM     29  C   UNL     1      -4.587  14.904  22.621  0.00  0.00    +0.000 C 
ATOM     30  C   UNL     1      -5.541  13.717  20.655  0.00  0.00    +0.000 C 
ENDBRANCH  25  27
ENDBRANCH  21  23
ENDBRANCH   9  17
BRANCH   6  31
ATOM     31  C   UNL     1       3.208   5.517  19.846  0.00  0.00    +0.000 C 
ATOM     32  O   UNL     1       4.335   5.101  20.093  0.00  0.00    +0.000 OA
ATOM     33  N   UNL     1       2.085   4.913  20.370  0.00  0.00    +0.000 N 
ATOM     34  C   UNL     1       2.187   3.761  21.241  0.00  0.00    +0.000 C 
ATOM     35  H   UNL     1       1.165   5.240  20.123  0.00  0.00    +0.000 HD
ENDBRANCH   6  31
BRANCH   1  36
ATOM     36  O   UNL     1       0.658  11.644  18.544  0.00  0.00    +0.000 OA
BRANCH  36  38
ATOM     37  C   UNL     1       0.957  14.023  18.884  0.00  0.00    +0.000 C 
ATOM     38  C   UNL     1       1.634  12.691  18.595  0.00  0.00    +0.000 C 
ENDBRANCH  36  38
ENDBRANCH   1  36
TORSDOF 7
ENDMDL
MODEL 3
REMARK VINA RESULT:      -8.3      0.638      1.154
REMARK  Name = 
REMARK  12 active torsions:
REMARK  status: ('A' for Active; 'I' for Inactive)
REMARK    1  A    between atoms: C_1  and  C_2
REMARK    2  A    between atoms: C_2  and  O_3
REMARK    3  A    between atoms: O_3  and  C_4
REMARK    4  A    between atoms: C_8  and  C_9
REMARK    5  A    between atoms: C_16  and  C_17
REMARK    6  A    between atoms: N_19  and  C_20
REMARK    7  A    between atoms: C_23  and  C_24
REMARK    8  A    between atoms: C_28  and  C_29
REMARK    9  A    between atoms: N_31  and  C_32
REMARK   10  A    between atoms: C_32  and  C_33
REMARK   11  A    between atoms: C_32  and  C_34
REMARK   12  A    between atoms: C_32  and  C_35
REMARK                            x       y       z     vdW  Elec       q    Type
REMARK                         _______ _______ _______ _____ _____    ______ ____
ROOT
ATOM      1  C   UNL     1       1.190  10.511  18.745  0.00  0.00    +0.000 A 
ATOM      2  N   UNL     1       1.983  10.007  17.774  0.00  0.00    +0.000 NA
ATOM      3  C   UNL     1       2.432   8.757  18.032  0.00  0.00    +0.000 A 
ATOM      4  O   UNL     1       3.197   8.062  17.161  0.00  0.00    +0.000 OA
ATOM      5  C   UNL     1       3.458   6.835  17.720  0.00  0.00    +0.000 A 
ATOM      6  C   UNL     1       2.892   6.751  18.985  0.00  0.00    +0.000 A 
ATOM      7  C   UNL     1       2.204   7.991  19.163  0.00  0.00    +0.000 A 
ATOM      8  C   UNL     1       1.427   8.577  20.159  0.00  0.00    +0.000 A 
ATOM      9  C   UNL     1       0.867   9.856  19.955  0.00  0.00    +0.000 A 
ENDROOT
BRANCH   5  10
ATOM     10  C   UNL     1       4.186   5.921  16.855  0.00  0.00    +0.000 A 
ATOM     11  C   UNL     1       4.045   4.533  17.010  0.00  0.00    +0.000 A 
ATOM     12  C   UNL     1       4.809   3.656  16.240  0.00  0.00    +0.000 A 
ATOM     13  C   UNL     1       5.708   4.158  15.309  0.00  0.00    +0.000 A 
ATOM     14  F   UNL     1       6.468   3.313  14.598  0.00  0.00    +0.000 F 
ATOM     15  C   UNL     1       5.844   5.526  15.117  0.00  0.00    +0.000 A 
ATOM     16  C   UNL     1       5.087   6.400  15.894  0.00  0.00    +0.000 A 
ENDBRANCH   5  10
BRANCH   9  17
ATOM     17  C   UNL     1      -0.049  10.365  20.990  0.00  0.00    +0.000 A 
ATOM     18  C   UNL     1      -0.039   9.798  22.287  0.00  0.00    +0.000 A 
ATOM     19  C   UNL     1      -0.849  10.274  23.306  0.00  0.00    +0.000 A 
ATOM     20  C   UNL     1      -1.705  11.334  23.045  0.00  0.00    +0.000 A 
ATOM     21  C   UNL     1      -1.750  11.910  21.767  0.00  0.00    +0.000 A 
ATOM     22  C   UNL     1      -0.919  11.432  20.755  0.00  0.00    +0.000 A 
BRANCH  21  23
ATOM     23  C   UNL     1      -2.640  13.073  21.565  0.00  0.00    +0.000 C 
ATOM     24  O   UNL     1      -2.839  13.442  20.411  0.00  0.00    +0.000 OA
ATOM     25  N   UNL     1      -3.170  13.690  22.685  0.00  0.00    +0.000 N 
ATOM     26  H   UNL     1      -2.906  13.362  23.607  0.00  0.00    +0.000 HD
BRANCH  25  27
ATOM     27  C   UNL     1      -4.015  14.894  22.592  0.00  0.00    +0.000 C 
ATOM     28  C   UNL     1      -3.239  16.034  21.905  0.00  0.00    +0.000 C 
ATOM     29  C   UNL     1      -5.286  14.576  21.778  0.00  0.00    +0.000 C 
ATOM     30  C   UNL     1      -4.459  15.356  23.990  0.00  0.00    +0.000 C 
ENDBRANCH  25  27
ENDBRANCH  21  23
ENDBRANCH   9  17
BRANCH   6  31
ATOM     31  C   UNL     1       3.070   5.608  19.878  0.00  0.00    +0.000 C 
ATOM     32  O   UNL     1       4.182   5.174  20.154  0.00  0.00    +0.000 OA
ATOM     33  N   UNL     1       1.923   5.022  20.371  0.00  0.00    +0.000 N 
ATOM     34  C   UNL     1       1.983   3.867  21.242  0.00  0.00    +0.000 C 
ATOM     35  H   UNL     1       1.016   5.365  20.100  0.00  0.00    +0.000 HD
ENDBRANCH   6  31
BRANCH   1  36
ATOM     36  O   UNL     1       0.680  11.790  18.530  0.00  0.00    +0.000 OA
BRANCH  36  38
ATOM     37  C   UNL     1       1.173  14.122  18.960  0.00  0.00    +0.000 C 
ATOM     38  C   UNL     1       1.697  12.794  18.432  0.00  0.00    +0.000 C 
ENDBRANCH  36  38
ENDBRANCH   1  36
TORSDOF 7
ENDMDL
MODEL 4
REMARK VINA RESULT:      -8.3      1.443      1.765
REMARK  Name = 
REMARK  12 active torsions:
REMARK  status: ('A' for Active; 'I' for Inactive)
REMARK    1  A    between atoms: C_1  and  C_2
REMARK    2  A    between atoms: C_2  and  O_3
REMARK    3  A    between atoms: O_3  and  C_4
REMARK    4  A    between atoms: C_8  and  C_9
REMARK    5  A    between atoms: C_16  and  C_17
REMARK    6  A    between atoms: N_19  and  C_20
REMARK    7  A    between atoms: C_23  and  C_24
REMARK    8  A    between atoms: C_28  and  C_29
REMARK    9  A    between atoms: N_31  and  C_32
REMARK   10  A    between atoms: C_32  and  C_33
REMARK   11  A    between atoms: C_32  and  C_34
REMARK   12  A    between atoms: C_32  and  C_35
REMARK                            x       y       z     vdW  Elec       q    Type
REMARK                         _______ _______ _______ _____ _____    ______ ____
ROOT
ATOM      1  C   UNL     1       1.491   9.970  18.729  0.00  0.00    +0.000 A 
ATOM      2  N   UNL     1       2.243   9.524  17.698  0.00  0.00    +0.000 NA
ATOM      3  C   UNL     1       2.780   8.299  17.904  0.00  0.00    +0.000 A 
ATOM      4  O   UNL     1       3.521   7.661  16.972  0.00  0.00    +0.000 OA
ATOM      5  C   UNL     1       3.890   6.445  17.492  0.00  0.00    +0.000 A 
ATOM      6  C   UNL     1       3.419   6.313  18.793  0.00  0.00    +0.000 A 
ATOM      7  C   UNL     1       2.675   7.509  19.036  0.00  0.00    +0.000 A 
ATOM      8  C   UNL     1       1.937   8.037  20.092  0.00  0.00    +0.000 A 
ATOM      9  C   UNL     1       1.291   9.283  19.947  0.00  0.00    +0.000 A 
ENDROOT
BRANCH   5  10
ATOM     10  C   UNL     1       4.608   5.585  16.566  0.00  0.00    +0.000 A 
ATOM     11  C   UNL     1       5.371   6.140  15.527  0.00  0.00    +0.000 A 
ATOM     12  C   UNL     1       5.988   5.315  14.587  0.00  0.00    +0.000 A 
ATOM     13  C   UNL     1       5.854   3.937  14.683  0.00  0.00    +0.000 A 
ATOM     14  F   UNL     1       6.417   3.149  13.755  0.00  0.00    +0.000 F 
ATOM     15  C   UNL     1       5.129   3.363  15.718  0.00  0.00    +0.000 A 
ATOM     16  C   UNL     1       4.505   4.188  16.650  0.00  0.00    +0.000 A 
ENDBRANCH   5  10
BRANCH   9  17
ATOM     17  C   UNL     1       0.422   9.726  21.051  0.00  0.00    +0.000 A 
ATOM     18  C   UNL     1      -0.167   8.773  21.916  0.00  0.00    +0.000 A 
ATOM     19  C   UNL     1      -0.955   9.144  22.995  0.00  0.00    +0.000 A 
ATOM     20  C   UNL     1      -1.182  10.492  23.229  0.00  0.00    +0.000 A 
ATOM     21  C   UNL     1      -0.625  11.462  22.382  0.00  0.00    +0.000 A 
ATOM     22  C   UNL     1       0.177  11.077  21.310  0.00  0.00    +0.000 A 
BRANCH  21  23
ATOM     23  C   UNL     1      -0.856  12.884  22.716  0.00  0.00    +0.000 C 
ATOM     24  O   UNL     1       0.079  13.663  22.554  0.00  0.00    +0.000 OA
ATOM     25  N   UNL     1      -2.096  13.243  23.214  0.00  0.00    +0.000 N 
ATOM     26  H   UNL     1      -2.795  12.526  23.377  0.00  0.00    +0.000 HD
BRANCH  25  27
ATOM     27  C   UNL     1      -2.403  14.621  23.636  0.00  0.00    +0.000 C 
ATOM     28  C   UNL     1      -3.845  14.703  24.171  0.00  0.00    +0.000 C 
ATOM     29  C   UNL     1      -1.420  15.058  24.742  0.00  0.00    +0.000 C 
ATOM     30  C   UNL     1      -2.244  15.598  22.458  0.00  0.00    +0.000 C 
ENDBRANCH  25  27
ENDBRANCH  21  23
ENDBRANCH   9  17
BRANCH   6  31
ATOM     31  C   UNL     1       3.724   5.173  19.653  0.00  0.00    +0.000 C 
ATOM     32  O   UNL     1       4.871   4.917  20.001  0.00  0.00    +0.000 OA
ATOM     33  N   UNL     1       2.662   4.378  20.029  0.00  0.00    +0.000 N 
ATOM     34  C   UNL     1       2.854   3.207  20.857  0.00  0.00    +0.000 C 
ATOM     35  H   UNL     1       1.731   4.577  19.698  0.00  0.00    +0.000 HD
ENDBRANCH   6  31
BRANCH   1  36
ATOM     36  O   UNL     1       0.895  11.219  18.569  0.00  0.00    +0.000 OA
BRANCH  36  38
ATOM     37  C   UNL     1       1.126  13.630  18.600  0.00  0.00    +0.000 C 
ATOM     38  C   UNL     1       1.842  12.291  18.490  0.00  0.00    +0.000 C 
ENDBRANCH  36  38
ENDBRANCH   1  36
TORSDOF 7
ENDMDL
MODEL 5
REMARK VINA RESULT:      -8.2      0.908      1.169
REMARK  Name = 
REMARK  12 active torsions:
REMARK  status: ('A' for Active; 'I' for Inactive)
REMARK    1  A    between atoms: C_1  and  C_2
REMARK    2  A    between atoms: C_2  and  O_3
REMARK    3  A    between atoms: O_3  and  C_4
REMARK    4  A    between atoms: C_8  and  C_9
REMARK    5  A    between atoms: C_16  and  C_17
REMARK    6  A    between atoms: N_19  and  C_20
REMARK    7  A    between atoms: C_23  and  C_24
REMARK    8  A    between atoms: C_28  and  C_29
REMARK    9  A    between atoms: N_31  and  C_32
REMARK   10  A    between atoms: C_32  and  C_33
REMARK   11  A    between atoms: C_32  and  C_34
REMARK   12  A    between atoms: C_32  and  C_35
REMARK                            x       y       z     vdW  Elec       q    Type
REMARK                         _______ _______ _______ _____ _____    ______ ____
ROOT
ATOM      1  C   UNL     1       1.272  10.372  18.764  0.00  0.00    +0.000 A 
ATOM      2  N   UNL     1       2.073   9.874  17.796  0.00  0.00    +0.000 NA
ATOM      3  C   UNL     1       2.534   8.629  18.057  0.00  0.00    +0.000 A 
ATOM      4  O   UNL     1       3.308   7.941  17.189  0.00  0.00    +0.000 OA
ATOM      5  C   UNL     1       3.579   6.718  17.751  0.00  0.00    +0.000 A 
ATOM      6  C   UNL     1       3.010   6.630  19.016  0.00  0.00    +0.000 A 
ATOM      7  C   UNL     1       2.310   7.864  19.189  0.00  0.00    +0.000 A 
ATOM      8  C   UNL     1       1.524   8.444  20.181  0.00  0.00    +0.000 A 
ATOM      9  C   UNL     1       0.952   9.717  19.973  0.00  0.00    +0.000 A 
ENDROOT
BRANCH   5  10
ATOM     10  C   UNL     1       4.319   5.809  16.891  0.00  0.00    +0.000 A 
ATOM     11  C   UNL     1       5.186   6.309  15.907  0.00  0.00    +0.000 A 
ATOM     12  C   UNL     1       5.829   5.441  15.025  0.00  0.00    +0.000 A 
ATOM     13  C   UNL     1       5.616   4.073  15.124  0.00  0.00    +0.000 A 
ATOM     14  F   UNL     1       6.205   3.244  14.250  0.00  0.00    +0.000 F 
ATOM     15  C   UNL     1       4.786   3.551  16.108  0.00  0.00    +0.000 A 
ATOM     16  C   UNL     1       4.137   4.421  16.981  0.00  0.00    +0.000 A 
ENDBRANCH   5  10
BRANCH   9  17
ATOM     17  C   UNL     1       0.029  10.219  21.005  0.00  0.00    +0.000 A 
ATOM     18  C   UNL     1      -0.022   9.597  22.275  0.00  0.00    +0.000 A 
ATOM     19  C   UNL     1      -0.841  10.062  23.293  0.00  0.00    +0.000 A 
ATOM     20  C   UNL     1      -1.645  11.167  23.055  0.00  0.00    +0.000 A 
ATOM     21  C   UNL     1      -1.630  11.799  21.803  0.00  0.00    +0.000 A 
ATOM     22  C   UNL     1      -0.791  11.330  20.794  0.00  0.00    +0.000 A 
BRANCH  21  23
ATOM     23  C   UNL     1      -2.467  13.005  21.628  0.00  0.00    +0.000 C 
ATOM     24  O   UNL     1      -3.422  12.927  20.862  0.00  0.00    +0.000 OA
ATOM     25  N   UNL     1      -2.106  14.153  22.314  0.00  0.00    +0.000 N 
ATOM     26  H   UNL     1      -1.264  14.152  22.879  0.00  0.00    +0.000 HD
BRANCH  25  27
ATOM     27  C   UNL     1      -2.837  15.422  22.157  0.00  0.00    +0.000 C 
ATOM     28  C   UNL     1      -2.265  16.485  23.114  0.00  0.00    +0.000 C 
ATOM     29  C   UNL     1      -2.709  15.920  20.702  0.00  0.00    +0.000 C 
ATOM     30  C   UNL     1      -4.334  15.228  22.453  0.00  0.00    +0.000 C 
ENDBRANCH  25  27
ENDBRANCH  21  23
ENDBRANCH   9  17
BRANCH   6  31
ATOM     31  C   UNL     1       3.197   5.491  19.911  0.00  0.00    +0.000 C 
ATOM     32  O   UNL     1       4.312   5.048  20.166  0.00  0.00    +0.000 OA
ATOM     33  N   UNL     1       2.056   4.917  20.431  0.00  0.00    +0.000 N 
ATOM     34  C   UNL     1       2.125   3.767  21.307  0.00  0.00    +0.000 C 
ATOM     35  H   UNL     1       1.146   5.267  20.177  0.00  0.00    +0.000 HD
ENDBRANCH   6  31
BRANCH   1  36
ATOM     36  O   UNL     1       0.750  11.646  18.544  0.00  0.00    +0.000 OA
BRANCH  36  38
ATOM     37  C   UNL     1       1.247  13.957  19.070  0.00  0.00    +0.000 C 
ATOM     38  C   UNL     1       1.757  12.661  18.455  0.00  0.00    +0.000 C 
ENDBRANCH  36  38
ENDBRANCH   1  36
TORSDOF 7
ENDMDL
MODEL 6
REMARK VINA RESULT:      -8.1      1.614      1.796
REMARK  Name = 
REMARK  12 active torsions:
REMARK  status: ('A' for Active; 'I' for Inactive)
REMARK    1  A    between atoms: C_1  and  C_2
REMARK    2  A    between atoms: C_2  and  O_3
REMARK    3  A    between atoms: O_3  and  C_4
REMARK    4  A    between atoms: C_8  and  C_9
REMARK    5  A    between atoms: C_16  and  C_17
REMARK    6  A    between atoms: N_19  and  C_20
REMARK    7  A    between atoms: C_23  and  C_24
REMARK    8  A    between atoms: C_28  and  C_29
REMARK    9  A    between atoms: N_31  and  C_32
REMARK   10  A    between atoms: C_32  and  C_33
REMARK   11  A    between atoms: C_32  and  C_34
REMARK   12  A    between atoms: C_32  and  C_35
REMARK                            x       y       z     vdW  Elec       q    Type
REMARK                         _______ _______ _______ _____ _____    ______ ____
ROOT
ATOM      1  C   UNL     1       1.344   9.898  18.647  0.00  0.00    +0.000 A 
ATOM      2  N   UNL     1       2.074   9.459  17.598  0.00  0.00    +0.000 NA
ATOM      3  C   UNL     1       2.688   8.274  17.819  0.00  0.00    +0.000 A 
ATOM      4  O   UNL     1       3.423   7.645  16.875  0.00  0.00    +0.000 OA
ATOM      5  C   UNL     1       3.882   6.470  17.418  0.00  0.00    +0.000 A 
ATOM      6  C   UNL     1       3.477   6.358  18.742  0.00  0.00    +0.000 A 
ATOM      7  C   UNL     1       2.677   7.519  18.980  0.00  0.00    +0.000 A 
ATOM      8  C   UNL     1       1.957   8.042  20.051  0.00  0.00    +0.000 A 
ATOM      9  C   UNL     1       1.236   9.245  19.895  0.00  0.00    +0.000 A 
ENDROOT
BRANCH   5  10
ATOM     10  C   UNL     1       4.607   5.619  16.488  0.00  0.00    +0.000 A 
ATOM     11  C   UNL     1       5.330   6.182  15.425  0.00  0.00    +0.000 A 
ATOM     12  C   UNL     1       5.953   5.364  14.483  0.00  0.00    +0.000 A 
ATOM     13  C   UNL     1       5.863   3.984  14.601  0.00  0.00    +0.000 A 
ATOM     14  F   UNL     1       6.430   3.200  13.672  0.00  0.00    +0.000 F 
ATOM     15  C   UNL     1       5.178   3.402  15.660  0.00  0.00    +0.000 A 
ATOM     16  C   UNL     1       4.549   4.222  16.594  0.00  0.00    +0.000 A 
ENDBRANCH   5  10
BRANCH   9  17
ATOM     17  C   UNL     1       0.392   9.677  21.022  0.00  0.00    +0.000 A 
ATOM     18  C   UNL     1      -0.166   8.717  21.899  0.00  0.00    +0.000 A 
ATOM     19  C   UNL     1      -0.929   9.078  22.999  0.00  0.00    +0.000 A 
ATOM     20  C   UNL     1      -1.160  10.424  23.243  0.00  0.00    +0.000 A 
ATOM     21  C   UNL     1      -0.634  11.401  22.385  0.00  0.00    +0.000 A 
ATOM     22  C   UNL     1       0.143  11.025  21.292  0.00  0.00    +0.000 A 
BRANCH  21  23
ATOM     23  C   UNL     1      -0.868  12.820  22.729  0.00  0.00    +0.000 C 
ATOM     24  O   UNL     1       0.063  13.604  22.567  0.00  0.00    +0.000 OA
ATOM     25  N   UNL     1      -2.107  13.172  23.236  0.00  0.00    +0.000 N 
ATOM     26  H   UNL     1      -2.802  12.452  23.399  0.00  0.00    +0.000 HD
BRANCH  25  27
ATOM     27  C   UNL     1      -2.415  14.546  23.669  0.00  0.00    +0.000 C 
ATOM     28  C   UNL     1      -1.404  15.006  24.737  0.00  0.00    +0.000 C 
ATOM     29  C   UNL     1      -2.352  15.499  22.458  0.00  0.00    +0.000 C 
ATOM     30  C   UNL     1      -3.837  14.626  24.252  0.00  0.00    +0.000 C 
ENDBRANCH  25  27
ENDBRANCH  21  23
ENDBRANCH   9  17
BRANCH   6  31
ATOM     31  C   UNL     1       3.883   5.267  19.623  0.00  0.00    +0.000 C 
ATOM     32  O   UNL     1       5.049   5.121  19.972  0.00  0.00    +0.000 OA
ATOM     33  N   UNL     1       2.896   4.390  20.020  0.00  0.00    +0.000 N 
ATOM     34  C   UNL     1       3.193   3.258  20.872  0.00  0.00    +0.000 C 
ATOM     35  H   UNL     1       1.951   4.500  19.690  0.00  0.00    +0.000 HD
ENDBRANCH   6  31
BRANCH   1  36
ATOM     36  O   UNL     1       0.671  11.107  18.474  0.00  0.00    +0.000 OA
BRANCH  36  38
ATOM     37  C   UNL     1      -1.486  12.176  18.210  0.00  0.00    +0.000 C 
ATOM     38  C   UNL     1      -0.635  10.950  17.908  0.00  0.00    +0.000 C 
ENDBRANCH  36  38
ENDBRANCH   1  36
TORSDOF 7
ENDMDL
MODEL 7
REMARK VINA RESULT:      -8.1      1.218      1.633
REMARK  Name = 
REMARK  12 active torsions:
REMARK  status: ('A' for Active; 'I' for Inactive)
REMARK    1  A    between atoms: C_1  and  C_2
REMARK    2  A    between atoms: C_2  and  O_3
REMARK    3  A    between atoms: O_3  and  C_4
REMARK    4  A    between atoms: C_8  and  C_9
REMARK    5  A    between atoms: C_16  and  C_17
REMARK    6  A    between atoms: N_19  and  C_20
REMARK    7  A    between atoms: C_23  and  C_24
REMARK    8  A    between atoms: C_28  and  C_29
REMARK    9  A    between atoms: N_31  and  C_32
REMARK   10  A    between atoms: C_32  and  C_33
REMARK   11  A    between atoms: C_32  and  C_34
REMARK   12  A    between atoms: C_32  and  C_35
REMARK                            x       y       z     vdW  Elec       q    Type
REMARK                         _______ _______ _______ _____ _____    ______ ____
ROOT
ATOM      1  C   UNL     1       1.418  10.003  18.717  0.00  0.00    +0.000 A 
ATOM      2  N   UNL     1       2.178   9.555  17.693  0.00  0.00    +0.000 NA
ATOM      3  C   UNL     1       2.717   8.333  17.908  0.00  0.00    +0.000 A 
ATOM      4  O   UNL     1       3.466   7.693  16.983  0.00  0.00    +0.000 OA
ATOM      5  C   UNL     1       3.835   6.481  17.511  0.00  0.00    +0.000 A 
ATOM      6  C   UNL     1       3.356   6.353  18.808  0.00  0.00    +0.000 A 
ATOM      7  C   UNL     1       2.607   7.547  19.043  0.00  0.00    +0.000 A 
ATOM      8  C   UNL     1       1.861   8.077  20.092  0.00  0.00    +0.000 A 
ATOM      9  C   UNL     1       1.212   9.321  19.937  0.00  0.00    +0.000 A 
ENDROOT
BRANCH   5  10
ATOM     10  C   UNL     1       4.562   5.619  16.592  0.00  0.00    +0.000 A 
ATOM     11  C   UNL     1       5.356   6.173  15.577  0.00  0.00    +0.000 A 
ATOM     12  C   UNL     1       5.983   5.348  14.642  0.00  0.00    +0.000 A 
ATOM     13  C   UNL     1       5.826   3.971  14.722  0.00  0.00    +0.000 A 
ATOM     14  F   UNL     1       6.399   3.184  13.799  0.00  0.00    +0.000 F 
ATOM     15  C   UNL     1       5.070   3.398  15.735  0.00  0.00    +0.000 A 
ATOM     16  C   UNL     1       4.437   4.223  16.661  0.00  0.00    +0.000 A 
ENDBRANCH   5  10
BRANCH   9  17
ATOM     17  C   UNL     1       0.335   9.765  21.033  0.00  0.00    +0.000 A 
ATOM     18  C   UNL     1       0.302   9.046  22.252  0.00  0.00    +0.000 A 
ATOM     19  C   UNL     1      -0.473   9.452  23.328  0.00  0.00    +0.000 A 
ATOM     20  C   UNL     1      -1.250  10.595  23.203  0.00  0.00    +0.000 A 
ATOM     21  C   UNL     1      -1.251  11.323  22.004  0.00  0.00    +0.000 A 
ATOM     22  C   UNL     1      -0.457  10.913  20.936  0.00  0.00    +0.000 A 
BRANCH  21  23
ATOM     23  C   UNL     1      -2.055  12.563  21.951  0.00  0.00    +0.000 C 
ATOM     24  O   UNL     1      -3.191  12.522  22.413  0.00  0.00    +0.000 OA
ATOM     25  N   UNL     1      -1.491  13.680  21.360  0.00  0.00    +0.000 N 
ATOM     26  H   UNL     1      -0.568  13.613  20.945  0.00  0.00    +0.000 HD
BRANCH  25  27
ATOM     27  C   UNL     1      -2.234  14.943  21.200  0.00  0.00    +0.000 C 
ATOM     28  C   UNL     1      -3.640  14.663  20.636  0.00  0.00    +0.000 C 
ATOM     29  C   UNL     1      -2.360  15.649  22.566  0.00  0.00    +0.000 C 
ATOM     30  C   UNL     1      -1.489  15.895  20.249  0.00  0.00    +0.000 C 
ENDBRANCH  25  27
ENDBRANCH  21  23
ENDBRANCH   9  17
BRANCH   6  31
ATOM     31  C   UNL     1       3.659   5.217  19.675  0.00  0.00    +0.000 C 
ATOM     32  O   UNL     1       4.803   4.976  20.045  0.00  0.00    +0.000 OA
ATOM     33  N   UNL     1       2.600   4.409  20.031  0.00  0.00    +0.000 N 
ATOM     34  C   UNL     1       2.792   3.241  20.864  0.00  0.00    +0.000 C 
ATOM     35  H   UNL     1       1.674   4.596  19.683  0.00  0.00    +0.000 HD
ENDBRANCH   6  31
BRANCH   1  36
ATOM     36  O   UNL     1       0.819  11.250  18.549  0.00  0.00    +0.000 OA
BRANCH  36  38
ATOM     37  C   UNL     1       1.045  13.660  18.625  0.00  0.00    +0.000 C 
ATOM     38  C   UNL     1       1.762  12.325  18.481  0.00  0.00    +0.000 C 
ENDBRANCH  36  38
ENDBRANCH   1  36
TORSDOF 7
ENDMDL
MODEL 8
REMARK VINA RESULT:      -8.0      1.536      2.061
REMARK  Name = 
REMARK  12 active torsions:
REMARK  status: ('A' for Active; 'I' for Inactive)
REMARK    1  A    between atoms: C_1  and  C_2
REMARK    2  A    between atoms: C_2  and  O_3
REMARK    3  A    between atoms: O_3  and  C_4
REMARK    4  A    between atoms: C_8  and  C_9
REMARK    5  A    between atoms: C_16  and  C_17
REMARK    6  A    between atoms: N_19  and  C_20
REMARK    7  A    between atoms: C_23  and  C_24
REMARK    8  A    between atoms: C_28  and  C_29
REMARK    9  A    between atoms: N_31  and  C_32
REMARK   10  A    between atoms: C_32  and  C_33
REMARK   11  A    between atoms: C_32  and  C_34
REMARK   12  A    between atoms: C_32  and  C_35
REMARK                            x       y       z     vdW  Elec       q    Type
REMARK                         _______ _______ _______ _____ _____    ______ ____
ROOT
ATOM      1  C   UNL     1       1.297   9.978  18.670  0.00  0.00    +0.000 A 
ATOM      2  N   UNL     1       2.013   9.537  17.612  0.00  0.00    +0.000 NA
ATOM      3  C   UNL     1       2.616   8.344  17.821  0.00  0.00    +0.000 A 
ATOM      4  O   UNL     1       3.335   7.712  16.867  0.00  0.00    +0.000 OA
ATOM      5  C   UNL     1       3.787   6.530  17.399  0.00  0.00    +0.000 A 
ATOM      6  C   UNL     1       3.391   6.415  18.726  0.00  0.00    +0.000 A 
ATOM      7  C   UNL     1       2.607   7.582  18.978  0.00  0.00    +0.000 A 
ATOM      8  C   UNL     1       1.902   8.107  20.058  0.00  0.00    +0.000 A 
ATOM      9  C   UNL     1       1.193   9.319  19.914  0.00  0.00    +0.000 A 
ENDROOT
BRANCH   5  10
ATOM     10  C   UNL     1       4.493   5.676  16.458  0.00  0.00    +0.000 A 
ATOM     11  C   UNL     1       4.480   4.282  16.616  0.00  0.00    +0.000 A 
ATOM     12  C   UNL     1       5.229   3.468  15.765  0.00  0.00    +0.000 A 
ATOM     13  C   UNL     1       5.986   4.040  14.752  0.00  0.00    +0.000 A 
ATOM     14  F   UNL     1       6.734   3.258  13.961  0.00  0.00    +0.000 F 
ATOM     15  C   UNL     1       5.992   5.414  14.557  0.00  0.00    +0.000 A 
ATOM     16  C   UNL     1       5.251   6.226  15.414  0.00  0.00    +0.000 A 
ENDBRANCH   5  10
BRANCH   9  17
ATOM     17  C   UNL     1       0.364   9.754  21.051  0.00  0.00    +0.000 A 
ATOM     18  C   UNL     1      -0.164   8.798  21.951  0.00  0.00    +0.000 A 
ATOM     19  C   UNL     1      -0.912   9.163  23.061  0.00  0.00    +0.000 A 
ATOM     20  C   UNL     1      -1.158  10.509  23.291  0.00  0.00    +0.000 A 
ATOM     21  C   UNL     1      -0.662  11.481  22.411  0.00  0.00    +0.000 A 
ATOM     22  C   UNL     1       0.100  11.102  21.308  0.00  0.00    +0.000 A 
BRANCH  21  23
ATOM     23  C   UNL     1      -0.910  12.901  22.740  0.00  0.00    +0.000 C 
ATOM     24  O   UNL     1       0.045  13.671  22.686  0.00  0.00    +0.000 OA
ATOM     25  N   UNL     1      -2.191  13.269  23.115  0.00  0.00    +0.000 N 
ATOM     26  H   UNL     1      -2.910  12.559  23.196  0.00  0.00    +0.000 HD
BRANCH  25  27
ATOM     27  C   UNL     1      -2.523  14.645  23.524  0.00  0.00    +0.000 C 
ATOM     28  C   UNL     1      -3.999  14.726  23.960  0.00  0.00    +0.000 C 
ATOM     29  C   UNL     1      -1.618  15.073  24.697  0.00  0.00    +0.000 C 
ATOM     30  C   UNL     1      -2.284  15.629  22.366  0.00  0.00    +0.000 C 
ENDBRANCH  25  27
ENDBRANCH  21  23
ENDBRANCH   9  17
BRANCH   6  31
ATOM     31  C   UNL     1       3.793   5.314  19.598  0.00  0.00    +0.000 C 
ATOM     32  O   UNL     1       4.954   5.175  19.967  0.00  0.00    +0.000 OA
ATOM     33  N   UNL     1       2.809   4.419  19.961  0.00  0.00    +0.000 N 
ATOM     34  C   UNL     1       3.102   3.277  20.800  0.00  0.00    +0.000 C 
ATOM     35  H   UNL     1       1.869   4.523  19.614  0.00  0.00    +0.000 HD
ENDBRANCH   6  31
BRANCH   1  36
ATOM     36  O   UNL     1       0.636  11.195  18.509  0.00  0.00    +0.000 OA
BRANCH  36  38
ATOM     37  C   UNL     1      -1.541  12.234  18.296  0.00  0.00    +0.000 C 
ATOM     38  C   UNL     1      -0.654  11.062  17.901  0.00  0.00    +0.000 C 
ENDBRANCH  36  38
ENDBRANCH   1  36
TORSDOF 7
ENDMDL
MODEL 9
REMARK VINA RESULT:      -8.0      1.017      1.065
REMARK  Name = 
REMARK  12 active torsions:
REMARK  status: ('A' for Active; 'I' for Inactive)
REMARK    1  A    between atoms: C_1  and  C_2
REMARK    2  A    between atoms: C_2  and  O_3
REMARK    3  A    between atoms: O_3  and  C_4
REMARK    4  A    between atoms: C_8  and  C_9
REMARK    5  A    between atoms: C_16  and  C_17
REMARK    6  A    between atoms: N_19  and  C_20
REMARK    7  A    between atoms: C_23  and  C_24
REMARK    8  A    between atoms: C_28  and  C_29
REMARK    9  A    between atoms: N_31  and  C_32
REMARK   10  A    between atoms: C_32  and  C_33
REMARK   11  A    between atoms: C_32  and  C_34
REMARK   12  A    between atoms: C_32  and  C_35
REMARK                            x       y       z     vdW  Elec       q    Type
REMARK                         _______ _______ _______ _____ _____    ______ ____
ROOT
ATOM      1  C   UNL     1       1.324   9.914  18.741  0.00  0.00    +0.000 A 
ATOM      2  N   UNL     1       2.060   9.475  17.696  0.00  0.00    +0.000 NA
ATOM      3  C   UNL     1       2.657   8.281  17.913  0.00  0.00    +0.000 A 
ATOM      4  O   UNL     1       3.395   7.652  16.972  0.00  0.00    +0.000 OA
ATOM      5  C   UNL     1       3.834   6.467  17.508  0.00  0.00    +0.000 A 
ATOM      6  C   UNL     1       3.412   6.348  18.826  0.00  0.00    +0.000 A 
ATOM      7  C   UNL     1       2.625   7.516  19.067  0.00  0.00    +0.000 A 
ATOM      8  C   UNL     1       1.899   8.038  20.134  0.00  0.00    +0.000 A 
ATOM      9  C   UNL     1       1.195   9.251  19.981  0.00  0.00    +0.000 A 
ENDROOT
BRANCH   5  10
ATOM     10  C   UNL     1       4.558   5.615  16.578  0.00  0.00    +0.000 A 
ATOM     11  C   UNL     1       5.319   6.179  15.543  0.00  0.00    +0.000 A 
ATOM     12  C   UNL     1       5.943   5.363  14.600  0.00  0.00    +0.000 A 
ATOM     13  C   UNL     1       5.816   3.983  14.689  0.00  0.00    +0.000 A 
ATOM     14  F   UNL     1       6.385   3.203  13.759  0.00  0.00    +0.000 F 
ATOM     15  C   UNL     1       5.093   3.400  15.721  0.00  0.00    +0.000 A 
ATOM     16  C   UNL     1       4.463   4.217  16.656  0.00  0.00    +0.000 A 
ENDBRANCH   5  10
BRANCH   9  17
ATOM     17  C   UNL     1       0.344   9.684  21.103  0.00  0.00    +0.000 A 
ATOM     18  C   UNL     1       0.442   9.037  22.358  0.00  0.00    +0.000 A 
ATOM     19  C   UNL     1      -0.305   9.439  23.455  0.00  0.00    +0.000 A 
ATOM     20  C   UNL     1      -1.184  10.503  23.316  0.00  0.00    +0.000 A 
ATOM     21  C   UNL     1      -1.315  11.157  22.082  0.00  0.00    +0.000 A 
ATOM     22  C   UNL     1      -0.549  10.753  20.992  0.00  0.00    +0.000 A 
BRANCH  21  23
ATOM     23  C   UNL     1      -2.226  12.320  22.011  0.00  0.00    +0.000 C 
ATOM     24  O   UNL     1      -1.869  13.279  21.334  0.00  0.00    +0.000 OA
ATOM     25  N   UNL     1      -3.408  12.267  22.731  0.00  0.00    +0.000 N 
ATOM     26  H   UNL     1      -3.599  11.461  23.317  0.00  0.00    +0.000 HD
BRANCH  25  27
ATOM     27  C   UNL     1      -4.349  13.399  22.777  0.00  0.00    +0.000 C 
ATOM     28  C   UNL     1      -3.653  14.645  23.357  0.00  0.00    +0.000 C 
ATOM     29  C   UNL     1      -4.858  13.711  21.354  0.00  0.00    +0.000 C 
ATOM     30  C   UNL     1      -5.572  13.054  23.644  0.00  0.00    +0.000 C 
ENDBRANCH  25  27
ENDBRANCH  21  23
ENDBRANCH   9  17
BRANCH   6  31
ATOM     31  C   UNL     1       3.796   5.244  19.703  0.00  0.00    +0.000 C 
ATOM     32  O   UNL     1       4.966   5.036  20.003  0.00  0.00    +0.000 OA
ATOM     33  N   UNL     1       2.780   4.427  20.152  0.00  0.00    +0.000 N 
ATOM     34  C   UNL     1       3.051   3.288  21.003  0.00  0.00    +0.000 C 
ATOM     35  H   UNL     1       1.829   4.586  19.861  0.00  0.00    +0.000 HD
ENDBRANCH   6  31
BRANCH   1  36
ATOM     36  O   UNL     1       0.668  11.133  18.571  0.00  0.00    +0.000 OA
BRANCH  36  38
ATOM     37  C   UNL     1      -1.385  12.281  17.996  0.00  0.00    +0.000 C 
ATOM     38  C   UNL     1      -0.550  11.020  17.826  0.00  0.00    +0.000 C 
ENDBRANCH  36  38
ENDBRANCH   1  36
TORSDOF 7
ENDMDL
