MODEL 1
REMARK VINA RESULT:      -8.2      0.000      0.000
REMARK  Name = 
REMARK  3 active torsions:
REMARK  status: ('A' for Active; 'I' for Inactive)
REMARK    1  A    between atoms: C_1  and  C_2
REMARK    2  A    between atoms: C_4  and  C_5
REMARK    3  A    between atoms: N_7  and  C_8
REMARK                            x       y       z     vdW  Elec       q    Type
REMARK                         _______ _______ _______ _____ _____    ______ ____
ROOT
ATOM      1  C   UNL     1       5.280   4.851  17.071  0.00  0.00    +0.000 C 
ATOM      2  O   UNL     1       5.882   4.487  18.077  0.00  0.00    +0.000 OA
ATOM      3  N   UNL     1       3.983   5.346  17.051  0.00  0.00    +0.000 N 
ATOM      4  H   UNL     1       3.549   5.441  16.148  0.00  0.00    +0.000 HD
ENDROOT
BRANCH   3   5
ATOM      5  C   UNL     1       3.157   5.560  18.196  0.00  0.00    +0.000 A 
ATOM      6  C   UNL     1       2.997   6.851  18.723  0.00  0.00    +0.000 A 
ATOM      7  C   UNL     1       2.259   7.082  19.878  0.00  0.00    +0.000 A 
ATOM      8  C   UNL     1       1.646   6.022  20.525  0.00  0.00    +0.000 A 
ATOM      9  C   UNL     1       1.737   4.723  20.013  0.00  0.00    +0.000 A 
ATOM     10  C   UNL     1       1.086   3.684  20.695  0.00  0.00    +0.000 A 
ATOM     11  C   UNL     1       1.141   2.376  20.230  0.00  0.00    +0.000 A 
ATOM     12  C   UNL     1       1.850   2.092  19.071  0.00  0.00    +0.000 A 
ATOM     13  C   UNL     1       2.512   3.115  18.382  0.00  0.00    +0.000 A 
ATOM     14  C   UNL     1       2.483   4.463  18.827  0.00  0.00    +0.000 A 
ENDBRANCH   3   5
BRANCH   1  18
ATOM     15  C   UNL     1       6.884   3.937  12.265  0.00  0.00    +0.000 C 
ATOM     16  C   UNL     1       6.616   4.315  13.666  0.00  0.00    +0.000 A 
ATOM     17  C   UNL     1       5.597   4.052  14.563  0.00  0.00    +0.000 A 
ATOM     18  C   UNL     1       5.935   4.729  15.773  0.00  0.00    +0.000 A 
ATOM     19  C   UNL     1       7.142   5.350  15.507  0.00  0.00    +0.000 A 
ATOM     20  O   UNL     1       7.558   5.105  14.243  0.00  0.00    +0.000 OA
ENDBRANCH   1  18
TORSDOF 2
ENDMDL
MODEL 2
REMARK VINA RESULT:      -8.1      0.677      2.520
REMARK  Name = 
REMARK  3 active torsions:
REMARK  status: ('A' for Active; 'I' for Inactive)
REMARK    1  A    between atoms: C_1  and  C_2
REMARK    2  A    between atoms: C_4  and  C_5
REMARK    3  A    between atoms: N_7  and  C_8
REMARK                            x       y       z     vdW  Elec       q    Type
REMARK                         _______ _______ _______ _____ _____    ______ ____
ROOT
ATOM      1  C   UNL     1       5.314   4.105  16.907  0.00  0.00    +0.000 C 
ATOM      2  O   UNL     1       5.937   4.109  17.965  0.00  0.00    +0.000 OA
ATOM      3  N   UNL     1       3.961   3.822  16.777  0.00  0.00    +0.000 N 
ATOM      4  H   UNL     1       3.615   3.679  15.842  0.00  0.00    +0.000 HD
ENDROOT
BRANCH   3   5
ATOM      5  C   UNL     1       3.063   3.541  17.852  0.00  0.00    +0.000 A 
ATOM      6  C   UNL     1       2.596   2.233  18.059  0.00  0.00    +0.000 A 
ATOM      7  C   UNL     1       1.666   1.940  19.050  0.00  0.00    +0.000 A 
ATOM      8  C   UNL     1       1.196   2.950  19.873  0.00  0.00    +0.000 A 
ATOM      9  C   UNL     1       1.666   4.260  19.736  0.00  0.00    +0.000 A 
ATOM     10  C   UNL     1       1.172   5.247  20.602  0.00  0.00    +0.000 A 
ATOM     11  C   UNL     1       1.607   6.563  20.513  0.00  0.00    +0.000 A 
ATOM     12  C   UNL     1       2.548   6.908  19.553  0.00  0.00    +0.000 A 
ATOM     13  C   UNL     1       3.047   5.938  18.675  0.00  0.00    +0.000 A 
ATOM     14  C   UNL     1       2.624   4.584  18.731  0.00  0.00    +0.000 A 
ENDBRANCH   3   5
BRANCH   1  18
ATOM     15  C   UNL     1       7.243   4.514  12.151  0.00  0.00    +0.000 C 
ATOM     16  C   UNL     1       6.857   4.535  13.575  0.00  0.00    +0.000 A 
ATOM     17  C   UNL     1       5.866   3.922  14.320  0.00  0.00    +0.000 A 
ATOM     18  C   UNL     1       6.030   4.371  15.665  0.00  0.00    +0.000 A 
ATOM     19  C   UNL     1       7.116   5.227  15.622  0.00  0.00    +0.000 A 
ATOM     20  O   UNL     1       7.619   5.329  14.370  0.00  0.00    +0.000 OA
ENDBRANCH   1  18
TORSDOF 2
ENDMDL
MODEL 3
REMARK VINA RESULT:      -7.7      3.595      7.145
REMARK  Name = 
REMARK  3 active torsions:
REMARK  status: ('A' for Active; 'I' for Inactive)
REMARK    1  A    between atoms: C_1  and  C_2
REMARK    2  A    between atoms: C_4  and  C_5
REMARK    3  A    between atoms: N_7  and  C_8
REMARK                            x       y       z     vdW  Elec       q    Type
REMARK                         _______ _______ _______ _____ _____    ______ ____
ROOT
ATOM      1  C   UNL     1       1.467   8.377  19.856  0.00  0.00    +0.000 C 
ATOM      2  O   UNL     1       1.447   8.866  18.730  0.00  0.00    +0.000 OA
ATOM      3  N   UNL     1       1.985   7.130  20.177  0.00  0.00    +0.000 N 
ATOM      4  H   UNL     1       1.780   6.777  21.098  0.00  0.00    +0.000 HD
ENDROOT
BRANCH   3   5
ATOM      5  C   UNL     1       2.623   6.234  19.265  0.00  0.00    +0.000 A 
ATOM      6  C   UNL     1       3.674   6.685  18.451  0.00  0.00    +0.000 A 
ATOM      7  C   UNL     1       4.267   5.859  17.502  0.00  0.00    +0.000 A 
ATOM      8  C   UNL     1       3.831   4.552  17.360  0.00  0.00    +0.000 A 
ATOM      9  C   UNL     1       2.818   4.044  18.180  0.00  0.00    +0.000 A 
ATOM     10  C   UNL     1       2.420   2.709  18.008  0.00  0.00    +0.000 A 
ATOM     11  C   UNL     1       1.421   2.151  18.797  0.00  0.00    +0.000 A 
ATOM     12  C   UNL     1       0.808   2.926  19.772  0.00  0.00    +0.000 A 
ATOM     13  C   UNL     1       1.187   4.262  19.952  0.00  0.00    +0.000 A 
ATOM     14  C   UNL     1       2.200   4.869  19.163  0.00  0.00    +0.000 A 
ENDBRANCH   3   5
BRANCH   1  18
ATOM     15  C   UNL     1      -1.260  11.234  23.159  0.00  0.00    +0.000 C 
ATOM     16  C   UNL     1      -0.340  10.377  22.387  0.00  0.00    +0.000 A 
ATOM     17  C   UNL     1      -0.281   9.959  21.070  0.00  0.00    +0.000 A 
ATOM     18  C   UNL     1       0.869   9.121  20.959  0.00  0.00    +0.000 A 
ATOM     19  C   UNL     1       1.416   9.100  22.230  0.00  0.00    +0.000 A 
ATOM     20  O   UNL     1       0.695   9.854  23.093  0.00  0.00    +0.000 OA
ENDBRANCH   1  18
TORSDOF 2
ENDMDL
MODEL 4
REMARK VINA RESULT:      -7.4      1.383      3.191
REMARK  Name = 
REMARK  3 active torsions:
REMARK  status: ('A' for Active; 'I' for Inactive)
REMARK    1  A    between atoms: C_1  and  C_2
REMARK    2  A    between atoms: C_4  and  C_5
REMARK    3  A    between atoms: N_7  and  C_8
REMARK                            x       y       z     vdW  Elec       q    Type
REMARK                         _______ _______ _______ _____ _____    ______ ____
ROOT
ATOM      1  C   UNL     1       5.214   5.327  17.485  0.00  0.00    +0.000 C 
ATOM      2  O   UNL     1       5.967   5.454  18.447  0.00  0.00    +0.000 OA
ATOM      3  N   UNL     1       3.836   5.493  17.521  0.00  0.00    +0.000 N 
ATOM      4  H   UNL     1       3.322   5.188  16.711  0.00  0.00    +0.000 HD
ENDROOT
BRANCH   3   5
ATOM      5  C   UNL     1       3.075   5.886  18.664  0.00  0.00    +0.000 A 
ATOM      6  C   UNL     1       2.862   4.980  19.716  0.00  0.00    +0.000 A 
ATOM      7  C   UNL     1       2.066   5.307  20.808  0.00  0.00    +0.000 A 
ATOM      8  C   UNL     1       1.479   6.559  20.882  0.00  0.00    +0.000 A 
ATOM      9  C   UNL     1       1.700   7.511  19.882  0.00  0.00    +0.000 A 
ATOM     10  C   UNL     1       1.097   8.772  20.008  0.00  0.00    +0.000 A 
ATOM     11  C   UNL     1       1.285   9.757  19.045  0.00  0.00    +0.000 A 
ATOM     12  C   UNL     1       2.085   9.490  17.943  0.00  0.00    +0.000 A 
ATOM     13  C   UNL     1       2.688   8.235  17.796  0.00  0.00    +0.000 A 
ATOM     14  C   UNL     1       2.517   7.202  18.755  0.00  0.00    +0.000 A 
ENDBRANCH   3   5
BRANCH   1  18
ATOM     15  C   UNL     1       6.372   3.647  12.758  0.00  0.00    +0.000 C 
ATOM     16  C   UNL     1       6.257   4.187  14.126  0.00  0.00    +0.000 A 
ATOM     17  C   UNL     1       5.229   4.289  15.046  0.00  0.00    +0.000 A 
ATOM     18  C   UNL     1       5.774   4.930  16.198  0.00  0.00    +0.000 A 
ATOM     19  C   UNL     1       7.099   5.167  15.878  0.00  0.00    +0.000 A 
ATOM     20  O   UNL     1       7.397   4.722  14.636  0.00  0.00    +0.000 OA
ENDBRANCH   1  18
TORSDOF 2
ENDMDL
MODEL 5
REMARK VINA RESULT:      -7.3      3.487      6.873
REMARK  Name = 
REMARK  3 active torsions:
REMARK  status: ('A' for Active; 'I' for Inactive)
REMARK    1  A    between atoms: C_1  and  C_2
REMARK    2  A    between atoms: C_4  and  C_5
REMARK    3  A    between atoms: N_7  and  C_8
REMARK                            x       y       z     vdW  Elec       q    Type
REMARK                         _______ _______ _______ _____ _____    ______ ____
ROOT
ATOM      1  C   UNL     1       1.670   8.564  18.853  0.00  0.00    +0.000 C 
ATOM      2  O   UNL     1       1.598   8.942  17.687  0.00  0.00    +0.000 OA
ATOM      3  N   UNL     1       2.308   7.408  19.281  0.00  0.00    +0.000 N 
ATOM      4  H   UNL     1       2.141   7.125  20.232  0.00  0.00    +0.000 HD
ENDROOT
BRANCH   3   5
ATOM      5  C   UNL     1       3.026   6.497  18.447  0.00  0.00    +0.000 A 
ATOM      6  C   UNL     1       4.092   6.953  17.655  0.00  0.00    +0.000 A 
ATOM      7  C   UNL     1       4.763   6.108  16.779  0.00  0.00    +0.000 A 
ATOM      8  C   UNL     1       4.393   4.776  16.690  0.00  0.00    +0.000 A 
ATOM      9  C   UNL     1       3.367   4.264  17.492  0.00  0.00    +0.000 A 
ATOM     10  C   UNL     1       3.038   2.905  17.377  0.00  0.00    +0.000 A 
ATOM     11  C   UNL     1       2.030   2.343  18.151  0.00  0.00    +0.000 A 
ATOM     12  C   UNL     1       1.340   3.138  19.055  0.00  0.00    +0.000 A 
ATOM     13  C   UNL     1       1.650   4.498  19.178  0.00  0.00    +0.000 A 
ATOM     14  C   UNL     1       2.669   5.110  18.401  0.00  0.00    +0.000 A 
ENDBRANCH   3   5
BRANCH   1  18
ATOM     15  C   UNL     1      -0.775  10.550  22.926  0.00  0.00    +0.000 C 
ATOM     16  C   UNL     1      -0.065  10.193  21.682  0.00  0.00    +0.000 A 
ATOM     17  C   UNL     1       0.375   9.007  21.124  0.00  0.00    +0.000 A 
ATOM     18  C   UNL     1       1.007   9.347  19.890  0.00  0.00    +0.000 A 
ATOM     19  C   UNL     1       0.896  10.723  19.803  0.00  0.00    +0.000 A 
ATOM     20  O   UNL     1       0.251  11.238  20.875  0.00  0.00    +0.000 OA
ENDBRANCH   1  18
TORSDOF 2
ENDMDL
MODEL 6
REMARK VINA RESULT:      -7.2      1.399      2.708
REMARK  Name = 
REMARK  3 active torsions:
REMARK  status: ('A' for Active; 'I' for Inactive)
REMARK    1  A    between atoms: C_1  and  C_2
REMARK    2  A    between atoms: C_4  and  C_5
REMARK    3  A    between atoms: N_7  and  C_8
REMARK                            x       y       z     vdW  Elec       q    Type
REMARK                         _______ _______ _______ _____ _____    ______ ____
ROOT
ATOM      1  C   UNL     1       4.606   4.085  16.693  0.00  0.00    +0.000 C 
ATOM      2  O   UNL     1       3.512   3.706  16.282  0.00  0.00    +0.000 OA
ATOM      3  N   UNL     1       4.920   4.323  18.024  0.00  0.00    +0.000 N 
ATOM      4  H   UNL     1       5.790   4.798  18.205  0.00  0.00    +0.000 HD
ENDROOT
BRANCH   3   5
ATOM      5  C   UNL     1       4.045   4.120  19.134  0.00  0.00    +0.000 A 
ATOM      6  C   UNL     1       4.013   2.880  19.791  0.00  0.00    +0.000 A 
ATOM      7  C   UNL     1       3.122   2.627  20.828  0.00  0.00    +0.000 A 
ATOM      8  C   UNL     1       2.252   3.622  21.245  0.00  0.00    +0.000 A 
ATOM      9  C   UNL     1       2.278   4.888  20.652  0.00  0.00    +0.000 A 
ATOM     10  C   UNL     1       1.388   5.868  21.118  0.00  0.00    +0.000 A 
ATOM     11  C   UNL     1       1.374   7.144  20.568  0.00  0.00    +0.000 A 
ATOM     12  C   UNL     1       2.254   7.456  19.542  0.00  0.00    +0.000 A 
ATOM     13  C   UNL     1       3.144   6.488  19.059  0.00  0.00    +0.000 A 
ATOM     14  C   UNL     1       3.187   5.173  19.592  0.00  0.00    +0.000 A 
ENDBRANCH   3   5
BRANCH   1  18
ATOM     15  C   UNL     1       7.720   4.933  12.682  0.00  0.00    +0.000 C 
ATOM     16  C   UNL     1       7.011   4.724  13.958  0.00  0.00    +0.000 A 
ATOM     17  C   UNL     1       5.710   4.403  14.304  0.00  0.00    +0.000 A 
ATOM     18  C   UNL     1       5.666   4.356  15.729  0.00  0.00    +0.000 A 
ATOM     19  C   UNL     1       6.956   4.655  16.133  0.00  0.00    +0.000 A 
ATOM     20  O   UNL     1       7.769   4.876  15.075  0.00  0.00    +0.000 OA
ENDBRANCH   1  18
TORSDOF 2
ENDMDL
MODEL 7
REMARK VINA RESULT:      -7.1      1.329      1.329
REMARK  Name = 
REMARK  3 active torsions:
REMARK  status: ('A' for Active; 'I' for Inactive)
REMARK    1  A    between atoms: C_1  and  C_2
REMARK    2  A    between atoms: C_4  and  C_5
REMARK    3  A    between atoms: N_7  and  C_8
REMARK                            x       y       z     vdW  Elec       q    Type
REMARK                         _______ _______ _______ _____ _____    ______ ____
ROOT
ATOM      1  C   UNL     1       4.477   4.789  16.681  0.00  0.00    +0.000 C 
ATOM      2  O   UNL     1       3.592   3.973  16.438  0.00  0.00    +0.000 OA
ATOM      3  N   UNL     1       4.488   5.657  17.764  0.00  0.00    +0.000 N 
ATOM      4  H   UNL     1       5.177   6.391  17.750  0.00  0.00    +0.000 HD
ENDROOT
BRANCH   3   5
ATOM      5  C   UNL     1       3.502   5.710  18.797  0.00  0.00    +0.000 A 
ATOM      6  C   UNL     1       2.731   6.870  18.979  0.00  0.00    +0.000 A 
ATOM      7  C   UNL     1       1.816   6.980  20.020  0.00  0.00    +0.000 A 
ATOM      8  C   UNL     1       1.637   5.920  20.893  0.00  0.00    +0.000 A 
ATOM      9  C   UNL     1       2.348   4.728  20.725  0.00  0.00    +0.000 A 
ATOM     10  C   UNL     1       2.122   3.677  21.627  0.00  0.00    +0.000 A 
ATOM     11  C   UNL     1       2.798   2.469  21.504  0.00  0.00    +0.000 A 
ATOM     12  C   UNL     1       3.711   2.298  20.473  0.00  0.00    +0.000 A 
ATOM     13  C   UNL     1       3.955   3.339  19.569  0.00  0.00    +0.000 A 
ATOM     14  C   UNL     1       3.288   4.589  19.663  0.00  0.00    +0.000 A 
ENDBRANCH   3   5
BRANCH   1  18
ATOM     15  C   UNL     1       7.859   4.952  12.803  0.00  0.00    +0.000 C 
ATOM     16  C   UNL     1       7.062   4.974  14.044  0.00  0.00    +0.000 A 
ATOM     17  C   UNL     1       5.751   4.662  14.360  0.00  0.00    +0.000 A 
ATOM     18  C   UNL     1       5.599   4.911  15.757  0.00  0.00    +0.000 A 
ATOM     19  C   UNL     1       6.840   5.357  16.175  0.00  0.00    +0.000 A 
ATOM     20  O   UNL     1       7.724   5.396  15.151  0.00  0.00    +0.000 OA
ENDBRANCH   1  18
TORSDOF 2
ENDMDL
MODEL 8
REMARK VINA RESULT:      -7.1      3.974      5.788
REMARK  Name = 
REMARK  3 active torsions:
REMARK  status: ('A' for Active; 'I' for Inactive)
REMARK    1  A    between atoms: C_1  and  C_2
REMARK    2  A    between atoms: C_4  and  C_5
REMARK    3  A    between atoms: N_7  and  C_8
REMARK                            x       y       z     vdW  Elec       q    Type
REMARK                         _______ _______ _______ _____ _____    ______ ____
ROOT
ATOM      1  C   UNL     1       7.847   7.642  18.069  0.00  0.00    +0.000 C 
ATOM      2  O   UNL     1       8.264   6.777  18.834  0.00  0.00    +0.000 OA
ATOM      3  N   UNL     1       6.968   7.422  17.017  0.00  0.00    +0.000 N 
ATOM      4  H   UNL     1       6.846   8.179  16.364  0.00  0.00    +0.000 HD
ENDROOT
BRANCH   3   5
ATOM      5  C   UNL     1       6.368   6.170  16.683  0.00  0.00    +0.000 A 
ATOM      6  C   UNL     1       7.052   5.255  15.867  0.00  0.00    +0.000 A 
ATOM      7  C   UNL     1       6.466   4.060  15.463  0.00  0.00    +0.000 A 
ATOM      8  C   UNL     1       5.185   3.744  15.885  0.00  0.00    +0.000 A 
ATOM      9  C   UNL     1       4.482   4.603  16.736  0.00  0.00    +0.000 A 
ATOM     10  C   UNL     1       3.193   4.234  17.149  0.00  0.00    +0.000 A 
ATOM     11  C   UNL     1       2.451   5.047  17.997  0.00  0.00    +0.000 A 
ATOM     12  C   UNL     1       2.994   6.243  18.444  0.00  0.00    +0.000 A 
ATOM     13  C   UNL     1       4.276   6.632  18.036  0.00  0.00    +0.000 A 
ATOM     14  C   UNL     1       5.063   5.831  17.168  0.00  0.00    +0.000 A 
ENDBRANCH   3   5
BRANCH   1  18
ATOM     15  C   UNL     1      10.039  12.145  19.264  0.00  0.00    +0.000 C 
ATOM     16  C   UNL     1       9.297  10.971  18.765  0.00  0.00    +0.000 A 
ATOM     17  C   UNL     1       9.251   9.634  19.114  0.00  0.00    +0.000 A 
ATOM     18  C   UNL     1       8.325   9.011  18.225  0.00  0.00    +0.000 A 
ATOM     19  C   UNL     1       7.882  10.033  17.403  0.00  0.00    +0.000 A 
ATOM     20  O   UNL     1       8.461  11.214  17.723  0.00  0.00    +0.000 OA
ENDBRANCH   1  18
TORSDOF 2
ENDMDL
MODEL 9
REMARK VINA RESULT:      -7.0      3.479      6.653
REMARK  Name = 
REMARK  3 active torsions:
REMARK  status: ('A' for Active; 'I' for Inactive)
REMARK    1  A    between atoms: C_1  and  C_2
REMARK    2  A    between atoms: C_4  and  C_5
REMARK    3  A    between atoms: N_7  and  C_8
REMARK                            x       y       z     vdW  Elec       q    Type
REMARK                         _______ _______ _______ _____ _____    ______ ____
ROOT
ATOM      1  C   UNL     1       2.003   8.719  18.166  0.00  0.00    +0.000 C 
ATOM      2  O   UNL     1       2.449   9.199  17.128  0.00  0.00    +0.000 OA
ATOM      3  N   UNL     1       2.262   7.436  18.630  0.00  0.00    +0.000 N 
ATOM      4  H   UNL     1       1.697   7.109  19.396  0.00  0.00    +0.000 HD
ENDROOT
BRANCH   3   5
ATOM      5  C   UNL     1       3.127   6.486  18.007  0.00  0.00    +0.000 A 
ATOM      6  C   UNL     1       4.290   6.914  17.348  0.00  0.00    +0.000 A 
ATOM      7  C   UNL     1       5.114   6.022  16.669  0.00  0.00    +0.000 A 
ATOM      8  C   UNL     1       4.800   4.673  16.651  0.00  0.00    +0.000 A 
ATOM      9  C   UNL     1       3.676   4.193  17.331  0.00  0.00    +0.000 A 
ATOM     10  C   UNL     1       3.407   2.816  17.297  0.00  0.00    +0.000 A 
ATOM     11  C   UNL     1       2.306   2.283  17.958  0.00  0.00    +0.000 A 
ATOM     12  C   UNL     1       1.461   3.126  18.665  0.00  0.00    +0.000 A 
ATOM     13  C   UNL     1       1.709   4.504  18.705  0.00  0.00    +0.000 A 
ATOM     14  C   UNL     1       2.820   5.086  18.039  0.00  0.00    +0.000 A 
ENDBRANCH   3   5
BRANCH   1  18
ATOM     15  C   UNL     1      -1.409  11.948  20.274  0.00  0.00    +0.000 C 
ATOM     16  C   UNL     1      -0.406  10.941  19.879  0.00  0.00    +0.000 A 
ATOM     17  C   UNL     1       0.212  10.603  18.688  0.00  0.00    +0.000 A 
ATOM     18  C   UNL     1       1.091   9.517  18.978  0.00  0.00    +0.000 A 
ATOM     19  C   UNL     1       0.930   9.284  20.333  0.00  0.00    +0.000 A 
ATOM     20  O   UNL     1       0.034  10.136  20.881  0.00  0.00    +0.000 OA
ENDBRANCH   1  18
TORSDOF 2
ENDMDL
