MODEL 1
REMARK VINA RESULT:      -7.8      0.000      0.000
REMARK  Name = 
REMARK  11 active torsions:
REMARK  status: ('A' for Active; 'I' for Inactive)
REMARK    1  A    between atoms: C_1  and  C_2
REMARK    2  A    between atoms: C_2  and  C_3
REMARK    3  A    between atoms: C_3  and  N_4
REMARK    4  A    between atoms: N_4  and  S_5
REMARK    5  A    between atoms: S_5  and  C_8
REMARK    6  A    between atoms: C_11  and  O_12
REMARK    7  A    between atoms: O_12  and  C_13
REMARK    8  A    between atoms: C_13  and  C_14
REMARK    9  A    between atoms: N_19  and  C_20
REMARK   10  A    between atoms: C_20  and  C_21
REMARK   11  A    between atoms: C_32  and  C_33
REMARK                            x       y       z     vdW  Elec       q    Type
REMARK                         _______ _______ _______ _____ _____    ______ ____
ROOT
ATOM      1  C   UNL     1       1.866   9.732  18.026  0.00  0.00    +0.000 C 
ATOM      2  O   UNL     1       2.715  10.476  17.529  0.00  0.00    +0.000 OA
ATOM      3  N   UNL     1       0.775  10.229  18.755  0.00  0.00    +0.000 N 
ATOM      4  C   UNL     1       0.702  11.685  18.878  0.00  0.00    +0.000 C 
ATOM      5  C   UNL     1      -0.609  12.206  19.487  0.00  0.00    +0.000 C 
ATOM      6  N   UNL     1      -1.068  11.491  20.687  0.00  0.00    +0.000 NA
ATOM      7  C   UNL     1      -1.097  10.051  20.440  0.00  0.00    +0.000 C 
ATOM      8  C   UNL     1       0.179   9.439  19.839  0.00  0.00    +0.000 C 
ENDROOT
BRANCH   1   9
ATOM      9  C   UNL     1       1.884   8.226  17.747  0.00  0.00    +0.000 C 
BRANCH   9  10
ATOM     10  O   UNL     1       2.669   7.436  18.608  0.00  0.00    +0.000 OA
BRANCH  10  14
ATOM     11  C   UNL     1       5.855   5.508  16.708  0.00  0.00    +0.000 A 
ATOM     12  C   UNL     1       5.608   6.866  16.556  0.00  0.00    +0.000 A 
ATOM     13  C   UNL     1       4.509   7.423  17.225  0.00  0.00    +0.000 A 
ATOM     14  C   UNL     1       3.659   6.654  18.059  0.00  0.00    +0.000 A 
ATOM     15  C   UNL     1       3.921   5.283  18.207  0.00  0.00    +0.000 A 
ATOM     16  C   UNL     1       3.185   4.231  18.998  0.00  0.00    +0.000 C 
ATOM     17  C   UNL     1       5.026   4.733  17.507  0.00  0.00    +0.000 A 
BRANCH  11  18
ATOM     18  S   UNL     1       7.172   4.694  15.838  0.00  0.00    +0.000 S 
ATOM     19  O   UNL     1       8.015   4.022  16.790  0.00  0.00    +0.000 OA
ATOM     20  O   UNL     1       7.690   5.667  14.900  0.00  0.00    +0.000 OA
BRANCH  18  21
ATOM     21  N   UNL     1       6.337   3.529  14.921  0.00  0.00    +0.000 NA
ATOM     22  H   UNL     1       6.941   2.737  14.699  0.00  0.00    +0.000 HD
BRANCH  21  23
ATOM     23  C   UNL     1       5.585   4.039  13.764  0.00  0.00    +0.000 C 
BRANCH  23  25
ATOM     24  C   UNL     1       5.050   2.770  11.669  0.00  0.00    +0.000 C 
ATOM     25  C   UNL     1       6.153   3.432  12.481  0.00  0.00    +0.000 C 
ENDBRANCH  23  25
ENDBRANCH  21  23
ENDBRANCH  18  21
ENDBRANCH  11  18
ENDBRANCH  10  14
ENDBRANCH   9  10
ENDBRANCH   1   9
BRANCH   6  26
ATOM     26  C   UNL     1      -0.417  11.907  21.939  0.00  0.00    +0.000 C 
BRANCH  26  27
ATOM     27  C   UNL     1      -1.407  12.685  22.796  0.00  0.00    +0.000 A 
ATOM     28  C   UNL     1      -1.109  13.959  23.341  0.00  0.00    +0.000 A 
ATOM     29  C   UNL     1      -2.116  14.732  23.941  0.00  0.00    +0.000 A 
ATOM     30  C   UNL     1      -3.396  14.218  23.954  0.00  0.00    +0.000 A 
ATOM     31  C   UNL     1      -3.668  12.947  23.507  0.00  0.00    +0.000 A 
ATOM     32  C   UNL     1      -2.693  12.146  22.970  0.00  0.00    +0.000 A 
ATOM     33  O   UNL     1      -4.993  12.645  23.562  0.00  0.00    +0.000 OA
ATOM     34  C   UNL     1      -5.519  13.969  23.769  0.00  0.00    +0.000 C 
ATOM     35  O   UNL     1      -4.534  14.874  24.317  0.00  0.00    +0.000 OA
ENDBRANCH  26  27
ENDBRANCH   6  26
TORSDOF 9
ENDMDL
MODEL 2
REMARK VINA RESULT:      -7.7      1.476      1.823
REMARK  Name = 
REMARK  11 active torsions:
REMARK  status: ('A' for Active; 'I' for Inactive)
REMARK    1  A    between atoms: C_1  and  C_2
REMARK    2  A    between atoms: C_2  and  C_3
REMARK    3  A    between atoms: C_3  and  N_4
REMARK    4  A    between atoms: N_4  and  S_5
REMARK    5  A    between atoms: S_5  and  C_8
REMARK    6  A    between atoms: C_11  and  O_12
REMARK    7  A    between atoms: O_12  and  C_13
REMARK    8  A    between atoms: C_13  and  C_14
REMARK    9  A    between atoms: N_19  and  C_20
REMARK   10  A    between atoms: C_20  and  C_21
REMARK   11  A    between atoms: C_32  and  C_33
REMARK                            x       y       z     vdW  Elec       q    Type
REMARK                         _______ _______ _______ _____ _____    ______ ____
ROOT
ATOM      1  C   UNL     1       1.107   8.727  20.421  0.00  0.00    +0.000 C 
ATOM      2  O   UNL     1       0.930   8.091  21.463  0.00  0.00    +0.000 OA
ATOM      3  N   UNL     1       0.668  10.050  20.273  0.00  0.00    +0.000 N 
ATOM      4  C   UNL     1      -0.002  10.633  21.435  0.00  0.00    +0.000 C 
ATOM      5  C   UNL     1      -0.274  12.142  21.323  0.00  0.00    +0.000 C 
ATOM      6  N   UNL     1      -0.837  12.581  20.038  0.00  0.00    +0.000 NA
ATOM      7  C   UNL     1      -0.034  12.070  18.929  0.00  0.00    +0.000 C 
ATOM      8  C   UNL     1       0.280  10.566  18.954  0.00  0.00    +0.000 C 
ENDROOT
BRANCH   1   9
ATOM      9  C   UNL     1       1.949   8.145  19.281  0.00  0.00    +0.000 C 
BRANCH   9  10
ATOM     10  O   UNL     1       2.080   6.743  19.248  0.00  0.00    +0.000 OA
BRANCH  10  14
ATOM     11  C   UNL     1       5.652   5.562  17.427  0.00  0.00    +0.000 A 
ATOM     12  C   UNL     1       5.037   6.774  17.144  0.00  0.00    +0.000 A 
ATOM     13  C   UNL     1       3.835   7.080  17.797  0.00  0.00    +0.000 A 
ATOM     14  C   UNL     1       3.241   6.206  18.742  0.00  0.00    +0.000 A 
ATOM     15  C   UNL     1       3.875   4.985  19.022  0.00  0.00    +0.000 A 
ATOM     16  C   UNL     1       3.469   3.868  19.949  0.00  0.00    +0.000 C 
ATOM     17  C   UNL     1       5.080   4.684  18.337  0.00  0.00    +0.000 A 
BRANCH  11  18
ATOM     18  S   UNL     1       7.134   5.048  16.591  0.00  0.00    +0.000 S 
ATOM     19  O   UNL     1       7.966   4.328  17.518  0.00  0.00    +0.000 OA
ATOM     20  O   UNL     1       7.607   6.210  15.870  0.00  0.00    +0.000 OA
BRANCH  18  21
ATOM     21  N   UNL     1       6.536   3.960  15.427  0.00  0.00    +0.000 NA
ATOM     22  H   UNL     1       6.945   3.033  15.549  0.00  0.00    +0.000 HD
BRANCH  21  23
ATOM     23  C   UNL     1       6.554   4.434  14.034  0.00  0.00    +0.000 C 
BRANCH  23  25
ATOM     24  C   UNL     1       5.865   2.996  12.101  0.00  0.00    +0.000 C 
ATOM     25  C   UNL     1       5.375   3.828  13.276  0.00  0.00    +0.000 C 
ENDBRANCH  23  25
ENDBRANCH  21  23
ENDBRANCH  18  21
ENDBRANCH  11  18
ENDBRANCH  10  14
ENDBRANCH   9  10
ENDBRANCH   1   9
BRANCH   6  26
ATOM     26  C   UNL     1      -2.291  12.393  19.906  0.00  0.00    +0.000 C 
BRANCH  26  27
ATOM     27  C   UNL     1      -3.008  13.168  21.003  0.00  0.00    +0.000 A 
ATOM     28  C   UNL     1      -2.945  14.581  21.107  0.00  0.00    +0.000 A 
ATOM     29  C   UNL     1      -3.786  15.269  21.996  0.00  0.00    +0.000 A 
ATOM     30  C   UNL     1      -4.683  14.526  22.735  0.00  0.00    +0.000 A 
ATOM     31  C   UNL     1      -4.683  13.152  22.700  0.00  0.00    +0.000 A 
ATOM     32  C   UNL     1      -3.833  12.450  21.886  0.00  0.00    +0.000 A 
ATOM     33  O   UNL     1      -5.671  12.608  23.463  0.00  0.00    +0.000 OA
ATOM     34  C   UNL     1      -6.461  13.791  23.686  0.00  0.00    +0.000 C 
ATOM     35  O   UNL     1      -5.698  15.006  23.508  0.00  0.00    +0.000 OA
ENDBRANCH  26  27
ENDBRANCH   6  26
TORSDOF 9
ENDMDL
MODEL 3
REMARK VINA RESULT:      -7.7      2.591      3.542
REMARK  Name = 
REMARK  11 active torsions:
REMARK  status: ('A' for Active; 'I' for Inactive)
REMARK    1  A    between atoms: C_1  and  C_2
REMARK    2  A    between atoms: C_2  and  C_3
REMARK    3  A    between atoms: C_3  and  N_4
REMARK    4  A    between atoms: N_4  and  S_5
REMARK    5  A    between atoms: S_5  and  C_8
REMARK    6  A    between atoms: C_11  and  O_12
REMARK    7  A    between atoms: O_12  and  C_13
REMARK    8  A    between atoms: C_13  and  C_14
REMARK    9  A    between atoms: N_19  and  C_20
REMARK   10  A    between atoms: C_20  and  C_21
REMARK   11  A    between atoms: C_32  and  C_33
REMARK                            x       y       z     vdW  Elec       q    Type
REMARK                         _______ _______ _______ _____ _____    ______ ____
ROOT
ATOM      1  C   UNL     1       0.280   9.425  21.464  0.00  0.00    +0.000 C 
ATOM      2  O   UNL     1      -0.377   8.473  21.892  0.00  0.00    +0.000 OA
ATOM      3  N   UNL     1      -0.034  10.753  21.791  0.00  0.00    +0.000 N 
ATOM      4  C   UNL     1      -1.180  10.936  22.680  0.00  0.00    +0.000 C 
ATOM      5  C   UNL     1      -1.364  12.373  23.193  0.00  0.00    +0.000 C 
ATOM      6  N   UNL     1      -1.240  13.422  22.171  0.00  0.00    +0.000 NA
ATOM      7  C   UNL     1      -0.002  13.250  21.413  0.00  0.00    +0.000 C 
ATOM      8  C   UNL     1       0.260  11.843  20.852  0.00  0.00    +0.000 C 
ENDROOT
BRANCH   1   9
ATOM      9  C   UNL     1       1.566   9.194  20.664  0.00  0.00    +0.000 C 
BRANCH   9  10
ATOM     10  O   UNL     1       1.415   8.644  19.377  0.00  0.00    +0.000 OA
BRANCH  10  14
ATOM     11  C   UNL     1       3.999   5.692  17.931  0.00  0.00    +0.000 A 
ATOM     12  C   UNL     1       3.904   6.950  17.349  0.00  0.00    +0.000 A 
ATOM     13  C   UNL     1       3.001   7.872  17.898  0.00  0.00    +0.000 A 
ATOM     14  C   UNL     1       2.202   7.569  19.029  0.00  0.00    +0.000 A 
ATOM     15  C   UNL     1       2.311   6.296  19.610  0.00  0.00    +0.000 A 
ATOM     16  C   UNL     1       1.581   5.698  20.786  0.00  0.00    +0.000 C 
ATOM     17  C   UNL     1       3.215   5.370  19.029  0.00  0.00    +0.000 A 
BRANCH  11  18
ATOM     18  S   UNL     1       5.053   4.429  17.259  0.00  0.00    +0.000 S 
ATOM     19  O   UNL     1       5.713   4.946  16.090  0.00  0.00    +0.000 OA
ATOM     20  O   UNL     1       4.256   3.223  17.226  0.00  0.00    +0.000 OA
BRANCH  18  21
ATOM     21  N   UNL     1       6.204   4.221  18.495  0.00  0.00    +0.000 NA
ATOM     22  H   UNL     1       5.937   3.459  19.119  0.00  0.00    +0.000 HD
BRANCH  21  23
ATOM     23  C   UNL     1       6.618   5.443  19.202  0.00  0.00    +0.000 C 
BRANCH  23  25
ATOM     24  C   UNL     1       7.647   7.329  17.910  0.00  0.00    +0.000 C 
ATOM     25  C   UNL     1       7.901   5.984  18.574  0.00  0.00    +0.000 C 
ENDBRANCH  23  25
ENDBRANCH  21  23
ENDBRANCH  18  21
ENDBRANCH  11  18
ENDBRANCH  10  14
ENDBRANCH   9  10
ENDBRANCH   1   9
BRANCH   6  26
ATOM     26  C   UNL     1      -2.451  13.643  21.365  0.00  0.00    +0.000 C 
BRANCH  26  27
ATOM     27  C   UNL     1      -3.650  13.831  22.284  0.00  0.00    +0.000 A 
ATOM     28  C   UNL     1      -3.897  15.041  22.981  0.00  0.00    +0.000 A 
ATOM     29  C   UNL     1      -5.116  15.247  23.644  0.00  0.00    +0.000 A 
ATOM     30  C   UNL     1      -6.063  14.246  23.569  0.00  0.00    +0.000 A 
ATOM     31  C   UNL     1      -5.792  13.039  22.971  0.00  0.00    +0.000 A 
ATOM     32  C   UNL     1      -4.588  12.788  22.366  0.00  0.00    +0.000 A 
ATOM     33  O   UNL     1      -6.867  12.206  22.961  0.00  0.00    +0.000 OA
ATOM     34  C   UNL     1      -7.893  13.155  23.310  0.00  0.00    +0.000 C 
ATOM     35  O   UNL     1      -7.361  14.319  23.981  0.00  0.00    +0.000 OA
ENDBRANCH  26  27
ENDBRANCH   6  26
TORSDOF 9
ENDMDL
MODEL 4
REMARK VINA RESULT:      -7.6      3.718     12.188
REMARK  Name = 
REMARK  11 active torsions:
REMARK  status: ('A' for Active; 'I' for Inactive)
REMARK    1  A    between atoms: C_1  and  C_2
REMARK    2  A    between atoms: C_2  and  C_3
REMARK    3  A    between atoms: C_3  and  N_4
REMARK    4  A    between atoms: N_4  and  S_5
REMARK    5  A    between atoms: S_5  and  C_8
REMARK    6  A    between atoms: C_11  and  O_12
REMARK    7  A    between atoms: O_12  and  C_13
REMARK    8  A    between atoms: C_13  and  C_14
REMARK    9  A    between atoms: N_19  and  C_20
REMARK   10  A    between atoms: C_20  and  C_21
REMARK   11  A    between atoms: C_32  and  C_33
REMARK                            x       y       z     vdW  Elec       q    Type
REMARK                         _______ _______ _______ _____ _____    ______ ____
ROOT
ATOM      1  C   UNL     1       1.174   8.679  21.056  0.00  0.00    +0.000 C 
ATOM      2  O   UNL     1       1.032   8.547  22.274  0.00  0.00    +0.000 OA
ATOM      3  N   UNL     1       1.536   7.605  20.229  0.00  0.00    +0.000 N 
ATOM      4  C   UNL     1       1.721   6.318  20.899  0.00  0.00    +0.000 C 
ATOM      5  C   UNL     1       1.899   5.125  19.947  0.00  0.00    +0.000 C 
ATOM      6  N   UNL     1       2.833   5.348  18.835  0.00  0.00    +0.000 NA
ATOM      7  C   UNL     1       2.500   6.584  18.130  0.00  0.00    +0.000 C 
ATOM      8  C   UNL     1       2.312   7.834  19.004  0.00  0.00    +0.000 C 
ENDROOT
BRANCH   1   9
ATOM      9  C   UNL     1       0.821   9.999  20.364  0.00  0.00    +0.000 C 
BRANCH   9  10
ATOM     10  O   UNL     1       0.710  11.132  21.191  0.00  0.00    +0.000 OA
BRANCH  10  14
ATOM     11  C   UNL     1      -3.053  12.512  22.381  0.00  0.00    +0.000 A 
ATOM     12  C   UNL     1      -2.233  11.768  23.219  0.00  0.00    +0.000 A 
ATOM     13  C   UNL     1      -0.991  11.341  22.729  0.00  0.00    +0.000 A 
ATOM     14  C   UNL     1      -0.543  11.654  21.421  0.00  0.00    +0.000 A 
ATOM     15  C   UNL     1      -1.380  12.410  20.585  0.00  0.00    +0.000 A 
ATOM     16  C   UNL     1      -1.179  12.866  19.162  0.00  0.00    +0.000 C 
ATOM     17  C   UNL     1      -2.641  12.817  21.091  0.00  0.00    +0.000 A 
BRANCH  11  18
ATOM     18  S   UNL     1      -4.677  13.030  22.882  0.00  0.00    +0.000 S 
ATOM     19  O   UNL     1      -4.821  14.436  22.615  0.00  0.00    +0.000 OA
ATOM     20  O   UNL     1      -4.885  12.469  24.200  0.00  0.00    +0.000 OA
BRANCH  18  21
ATOM     21  N   UNL     1      -5.681  12.160  21.817  0.00  0.00    +0.000 NA
ATOM     22  H   UNL     1      -5.462  11.164  21.840  0.00  0.00    +0.000 HD
BRANCH  21  23
ATOM     23  C   UNL     1      -5.800  12.707  20.456  0.00  0.00    +0.000 C 
BRANCH  23  25
ATOM     24  C   UNL     1      -7.187  10.634  20.197  0.00  0.00    +0.000 C 
ATOM     25  C   UNL     1      -7.010  12.081  19.763  0.00  0.00    +0.000 C 
ENDBRANCH  23  25
ENDBRANCH  21  23
ENDBRANCH  18  21
ENDBRANCH  11  18
ENDBRANCH  10  14
ENDBRANCH   9  10
ENDBRANCH   1   9
BRANCH   6  26
ATOM     26  C   UNL     1       4.254   5.178  19.180  0.00  0.00    +0.000 C 
BRANCH  26  27
ATOM     27  C   UNL     1       5.113   5.442  17.952  0.00  0.00    +0.000 A 
ATOM     28  C   UNL     1       6.354   6.126  18.019  0.00  0.00    +0.000 A 
ATOM     29  C   UNL     1       7.211   6.161  16.908  0.00  0.00    +0.000 A 
ATOM     30  C   UNL     1       6.814   5.488  15.771  0.00  0.00    +0.000 A 
ATOM     31  C   UNL     1       5.574   4.902  15.675  0.00  0.00    +0.000 A 
ATOM     32  C   UNL     1       4.692   4.903  16.724  0.00  0.00    +0.000 A 
ATOM     33  O   UNL     1       5.392   4.253  14.493  0.00  0.00    +0.000 OA
ATOM     34  C   UNL     1       6.757   4.226  14.036  0.00  0.00    +0.000 C 
ATOM     35  O   UNL     1       7.568   5.247  14.661  0.00  0.00    +0.000 OA
ENDBRANCH  26  27
ENDBRANCH   6  26
TORSDOF 9
ENDMDL
MODEL 5
REMARK VINA RESULT:      -7.5      3.844     11.622
REMARK  Name = 
REMARK  11 active torsions:
REMARK  status: ('A' for Active; 'I' for Inactive)
REMARK    1  A    between atoms: C_1  and  C_2
REMARK    2  A    between atoms: C_2  and  C_3
REMARK    3  A    between atoms: C_3  and  N_4
REMARK    4  A    between atoms: N_4  and  S_5
REMARK    5  A    between atoms: S_5  and  C_8
REMARK    6  A    between atoms: C_11  and  O_12
REMARK    7  A    between atoms: O_12  and  C_13
REMARK    8  A    between atoms: C_13  and  C_14
REMARK    9  A    between atoms: N_19  and  C_20
REMARK   10  A    between atoms: C_20  and  C_21
REMARK   11  A    between atoms: C_32  and  C_33
REMARK                            x       y       z     vdW  Elec       q    Type
REMARK                         _______ _______ _______ _____ _____    ______ ____
ROOT
ATOM      1  C   UNL     1       2.074   5.015  20.792  0.00  0.00    +0.000 C 
ATOM      2  O   UNL     1       2.301   4.460  21.869  0.00  0.00    +0.000 OA
ATOM      3  N   UNL     1       2.516   4.481  19.572  0.00  0.00    +0.000 N 
ATOM      4  C   UNL     1       3.251   3.220  19.657  0.00  0.00    +0.000 C 
ATOM      5  C   UNL     1       3.529   2.552  18.301  0.00  0.00    +0.000 C 
ATOM      6  N   UNL     1       4.028   3.454  17.252  0.00  0.00    +0.000 NA
ATOM      7  C   UNL     1       3.162   4.626  17.135  0.00  0.00    +0.000 C 
ATOM      8  C   UNL     1       2.838   5.363  18.443  0.00  0.00    +0.000 C 
ENDROOT
BRANCH   1   9
ATOM      9  C   UNL     1       1.169   6.249  20.721  0.00  0.00    +0.000 C 
BRANCH   9  10
ATOM     10  O   UNL     1       1.805   7.501  20.807  0.00  0.00    +0.000 OA
BRANCH  10  14
ATOM     11  C   UNL     1      -0.118  10.867  19.241  0.00  0.00    +0.000 A 
ATOM     12  C   UNL     1       0.803  10.127  18.510  0.00  0.00    +0.000 A 
ATOM     13  C   UNL     1       1.405   9.019  19.123  0.00  0.00    +0.000 A 
ATOM     14  C   UNL     1       1.094   8.623  20.448  0.00  0.00    +0.000 A 
ATOM     15  C   UNL     1       0.158   9.377  21.174  0.00  0.00    +0.000 A 
ATOM     16  C   UNL     1      -0.342   9.208  22.587  0.00  0.00    +0.000 C 
ATOM     17  C   UNL     1      -0.426  10.506  20.545  0.00  0.00    +0.000 A 
BRANCH  11  18
ATOM     18  S   UNL     1      -0.872  12.334  18.581  0.00  0.00    +0.000 S 
ATOM     19  O   UNL     1       0.159  13.281  18.253  0.00  0.00    +0.000 OA
ATOM     20  O   UNL     1      -1.962  12.658  19.476  0.00  0.00    +0.000 OA
BRANCH  18  21
ATOM     21  N   UNL     1      -1.576  11.764  17.140  0.00  0.00    +0.000 NA
ATOM     22  H   UNL     1      -1.804  12.537  16.514  0.00  0.00    +0.000 HD
BRANCH  21  23
ATOM     23  C   UNL     1      -2.670  10.793  17.299  0.00  0.00    +0.000 C 
BRANCH  23  25
ATOM     24  C   UNL     1      -4.989  11.713  17.051  0.00  0.00    +0.000 C 
ATOM     25  C   UNL     1      -3.792  11.126  16.317  0.00  0.00    +0.000 C 
ENDBRANCH  23  25
ENDBRANCH  21  23
ENDBRANCH  18  21
ENDBRANCH  11  18
ENDBRANCH  10  14
ENDBRANCH   9  10
ENDBRANCH   1   9
BRANCH   6  26
ATOM     26  C   UNL     1       5.471   3.735  17.316  0.00  0.00    +0.000 C 
BRANCH  26  27
ATOM     27  C   UNL     1       5.955   4.229  15.960  0.00  0.00    +0.000 A 
ATOM     28  C   UNL     1       6.973   5.208  15.822  0.00  0.00    +0.000 A 
ATOM     29  C   UNL     1       7.537   5.478  14.566  0.00  0.00    +0.000 A 
ATOM     30  C   UNL     1       7.086   4.744  13.489  0.00  0.00    +0.000 A 
ATOM     31  C   UNL     1       6.039   3.860  13.605  0.00  0.00    +0.000 A 
ATOM     32  C   UNL     1       5.429   3.619  14.809  0.00  0.00    +0.000 A 
ATOM     33  O   UNL     1       5.776   3.204  12.443  0.00  0.00    +0.000 OA
ATOM     34  C   UNL     1       6.975   3.536  11.718  0.00  0.00    +0.000 C 
ATOM     35  O   UNL     1       7.621   4.721  12.236  0.00  0.00    +0.000 OA
ENDBRANCH  26  27
ENDBRANCH   6  26
TORSDOF 9
ENDMDL
MODEL 6
REMARK VINA RESULT:      -7.5      3.595     12.513
REMARK  Name = 
REMARK  11 active torsions:
REMARK  status: ('A' for Active; 'I' for Inactive)
REMARK    1  A    between atoms: C_1  and  C_2
REMARK    2  A    between atoms: C_2  and  C_3
REMARK    3  A    between atoms: C_3  and  N_4
REMARK    4  A    between atoms: N_4  and  S_5
REMARK    5  A    between atoms: S_5  and  C_8
REMARK    6  A    between atoms: C_11  and  O_12
REMARK    7  A    between atoms: O_12  and  C_13
REMARK    8  A    between atoms: C_13  and  C_14
REMARK    9  A    between atoms: N_19  and  C_20
REMARK   10  A    between atoms: C_20  and  C_21
REMARK   11  A    between atoms: C_32  and  C_33
REMARK                            x       y       z     vdW  Elec       q    Type
REMARK                         _______ _______ _______ _____ _____    ______ ____
ROOT
ATOM      1  C   UNL     1       1.085   8.673  20.994  0.00  0.00    +0.000 C 
ATOM      2  O   UNL     1       0.962   8.598  22.218  0.00  0.00    +0.000 OA
ATOM      3  N   UNL     1       1.483   7.575  20.217  0.00  0.00    +0.000 N 
ATOM      4  C   UNL     1       1.730   6.332  20.949  0.00  0.00    +0.000 C 
ATOM      5  C   UNL     1       1.949   5.101  20.056  0.00  0.00    +0.000 C 
ATOM      6  N   UNL     1       2.862   5.306  18.922  0.00  0.00    +0.000 NA
ATOM      7  C   UNL     1       2.468   6.489  18.160  0.00  0.00    +0.000 C 
ATOM      8  C   UNL     1       2.236   7.773  18.972  0.00  0.00    +0.000 C 
ENDROOT
BRANCH   1   9
ATOM      9  C   UNL     1       0.669   9.939  20.240  0.00  0.00    +0.000 C 
BRANCH   9  10
ATOM     10  O   UNL     1       0.644  11.134  20.984  0.00  0.00    +0.000 OA
BRANCH  10  14
ATOM     11  C   UNL     1      -2.924  12.483  22.695  0.00  0.00    +0.000 A 
ATOM     12  C   UNL     1      -1.935  11.850  23.436  0.00  0.00    +0.000 A 
ATOM     13  C   UNL     1      -0.775  11.423  22.773  0.00  0.00    +0.000 A 
ATOM     14  C   UNL     1      -0.575  11.630  21.385  0.00  0.00    +0.000 A 
ATOM     15  C   UNL     1      -1.581  12.275  20.649  0.00  0.00    +0.000 A 
ATOM     16  C   UNL     1      -1.651  12.605  19.179  0.00  0.00    +0.000 C 
ATOM     17  C   UNL     1      -2.756  12.683  21.332  0.00  0.00    +0.000 A 
BRANCH  11  18
ATOM     18  S   UNL     1      -4.462  12.987  23.428  0.00  0.00    +0.000 S 
ATOM     19  O   UNL     1      -4.952  11.922  24.262  0.00  0.00    +0.000 OA
ATOM     20  O   UNL     1      -5.249  13.551  22.353  0.00  0.00    +0.000 OA
BRANCH  18  21
ATOM     21  N   UNL     1      -3.984  14.286  24.418  0.00  0.00    +0.000 NA
ATOM     22  H   UNL     1      -4.689  14.483  25.129  0.00  0.00    +0.000 HD
BRANCH  21  23
ATOM     23  C   UNL     1      -3.504  15.487  23.717  0.00  0.00    +0.000 C 
BRANCH  23  25
ATOM     24  C   UNL     1      -1.931  15.320  25.661  0.00  0.00    +0.000 C 
ATOM     25  C   UNL     1      -2.535  16.250  24.619  0.00  0.00    +0.000 C 
ENDBRANCH  23  25
ENDBRANCH  21  23
ENDBRANCH  18  21
ENDBRANCH  11  18
ENDBRANCH  10  14
ENDBRANCH   9  10
ENDBRANCH   1   9
BRANCH   6  26
ATOM     26  C   UNL     1       4.292   5.214  19.257  0.00  0.00    +0.000 C 
BRANCH  26  27
ATOM     27  C   UNL     1       5.127   5.490  18.014  0.00  0.00    +0.000 A 
ATOM     28  C   UNL     1       6.334   6.233  18.054  0.00  0.00    +0.000 A 
ATOM     29  C   UNL     1       7.178   6.283  16.934  0.00  0.00    +0.000 A 
ATOM     30  C   UNL     1       6.803   5.567  15.816  0.00  0.00    +0.000 A 
ATOM     31  C   UNL     1       5.592   4.921  15.746  0.00  0.00    +0.000 A 
ATOM     32  C   UNL     1       4.720   4.905  16.804  0.00  0.00    +0.000 A 
ATOM     33  O   UNL     1       5.429   4.238  14.580  0.00  0.00    +0.000 OA
ATOM     34  C   UNL     1       6.790   4.265  14.110  0.00  0.00    +0.000 C 
ATOM     35  O   UNL     1       7.557   5.336  14.704  0.00  0.00    +0.000 OA
ENDBRANCH  26  27
ENDBRANCH   6  26
TORSDOF 9
ENDMDL
MODEL 7
REMARK VINA RESULT:      -7.5      2.605      3.492
REMARK  Name = 
REMARK  11 active torsions:
REMARK  status: ('A' for Active; 'I' for Inactive)
REMARK    1  A    between atoms: C_1  and  C_2
REMARK    2  A    between atoms: C_2  and  C_3
REMARK    3  A    between atoms: C_3  and  N_4
REMARK    4  A    between atoms: N_4  and  S_5
REMARK    5  A    between atoms: S_5  and  C_8
REMARK    6  A    between atoms: C_11  and  O_12
REMARK    7  A    between atoms: O_12  and  C_13
REMARK    8  A    between atoms: C_13  and  C_14
REMARK    9  A    between atoms: N_19  and  C_20
REMARK   10  A    between atoms: C_20  and  C_21
REMARK   11  A    between atoms: C_32  and  C_33
REMARK                            x       y       z     vdW  Elec       q    Type
REMARK                         _______ _______ _______ _____ _____    ______ ____
ROOT
ATOM      1  C   UNL     1       0.758  10.247  20.556  0.00  0.00    +0.000 C 
ATOM      2  O   UNL     1       1.282  10.523  21.638  0.00  0.00    +0.000 OA
ATOM      3  N   UNL     1      -0.263  11.032  20.002  0.00  0.00    +0.000 N 
ATOM      4  C   UNL     1      -0.661  12.205  20.782  0.00  0.00    +0.000 C 
ATOM      5  C   UNL     1      -1.619  13.159  20.053  0.00  0.00    +0.000 C 
ATOM      6  N   UNL     1      -2.740  12.508  19.358  0.00  0.00    +0.000 NA
ATOM      7  C   UNL     1      -2.249  11.436  18.494  0.00  0.00    +0.000 C 
ATOM      8  C   UNL     1      -1.289  10.427  19.144  0.00  0.00    +0.000 C 
ENDROOT
BRANCH   1   9
ATOM      9  C   UNL     1       1.302   9.107  19.690  0.00  0.00    +0.000 C 
BRANCH   9  10
ATOM     10  O   UNL     1       1.528   7.878  20.339  0.00  0.00    +0.000 OA
BRANCH  10  14
ATOM     11  C   UNL     1       3.981   5.385  18.049  0.00  0.00    +0.000 A 
ATOM     12  C   UNL     1       3.776   6.722  17.735  0.00  0.00    +0.000 A 
ATOM     13  C   UNL     1       2.928   7.478  18.556  0.00  0.00    +0.000 A 
ATOM     14  C   UNL     1       2.291   6.929  19.697  0.00  0.00    +0.000 A 
ATOM     15  C   UNL     1       2.509   5.578  20.006  0.00  0.00    +0.000 A 
ATOM     16  C   UNL     1       1.955   4.734  21.126  0.00  0.00    +0.000 C 
ATOM     17  C   UNL     1       3.355   4.823  19.152  0.00  0.00    +0.000 A 
BRANCH  11  18
ATOM     18  S   UNL     1       4.972   4.326  17.023  0.00  0.00    +0.000 S 
ATOM     19  O   UNL     1       5.344   5.043  15.833  0.00  0.00    +0.000 OA
ATOM     20  O   UNL     1       4.279   3.057  16.975  0.00  0.00    +0.000 OA
BRANCH  18  21
ATOM     21  N   UNL     1       6.360   4.089  17.980  0.00  0.00    +0.000 NA
ATOM     22  H   UNL     1       6.124   4.093  18.973  0.00  0.00    +0.000 HD
BRANCH  21  23
ATOM     23  C   UNL     1       7.522   4.927  17.646  0.00  0.00    +0.000 C 
BRANCH  23  25
ATOM     24  C   UNL     1       7.643   7.429  17.750  0.00  0.00    +0.000 C 
ATOM     25  C   UNL     1       7.549   6.147  18.565  0.00  0.00    +0.000 C 
ENDBRANCH  23  25
ENDBRANCH  21  23
ENDBRANCH  18  21
ENDBRANCH  11  18
ENDBRANCH  10  14
ENDBRANCH   9  10
ENDBRANCH   1   9
BRANCH   6  26
ATOM     26  C   UNL     1      -3.879  12.156  20.220  0.00  0.00    +0.000 C 
BRANCH  26  27
ATOM     27  C   UNL     1      -4.551  13.426  20.723  0.00  0.00    +0.000 A 
ATOM     28  C   UNL     1      -5.457  14.176  19.930  0.00  0.00    +0.000 A 
ATOM     29  C   UNL     1      -6.214  15.212  20.499  0.00  0.00    +0.000 A 
ATOM     30  C   UNL     1      -6.063  15.449  21.850  0.00  0.00    +0.000 A 
ATOM     31  C   UNL     1      -5.122  14.783  22.599  0.00  0.00    +0.000 A 
ATOM     32  C   UNL     1      -4.327  13.807  22.056  0.00  0.00    +0.000 A 
ATOM     33  O   UNL     1      -5.161  15.127  23.915  0.00  0.00    +0.000 OA
ATOM     34  C   UNL     1      -6.429  15.808  23.933  0.00  0.00    +0.000 C 
ATOM     35  O   UNL     1      -6.825  16.273  22.623  0.00  0.00    +0.000 OA
ENDBRANCH  26  27
ENDBRANCH   6  26
TORSDOF 9
ENDMDL
MODEL 8
REMARK VINA RESULT:      -7.5      1.594      2.269
REMARK  Name = 
REMARK  11 active torsions:
REMARK  status: ('A' for Active; 'I' for Inactive)
REMARK    1  A    between atoms: C_1  and  C_2
REMARK    2  A    between atoms: C_2  and  C_3
REMARK    3  A    between atoms: C_3  and  N_4
REMARK    4  A    between atoms: N_4  and  S_5
REMARK    5  A    between atoms: S_5  and  C_8
REMARK    6  A    between atoms: C_11  and  O_12
REMARK    7  A    between atoms: O_12  and  C_13
REMARK    8  A    between atoms: C_13  and  C_14
REMARK    9  A    between atoms: N_19  and  C_20
REMARK   10  A    between atoms: C_20  and  C_21
REMARK   11  A    between atoms: C_32  and  C_33
REMARK                            x       y       z     vdW  Elec       q    Type
REMARK                         _______ _______ _______ _____ _____    ______ ____
ROOT
ATOM      1  C   UNL     1       2.035   7.648  19.857  0.00  0.00    +0.000 C 
ATOM      2  O   UNL     1       2.534   7.819  18.742  0.00  0.00    +0.000 OA
ATOM      3  N   UNL     1       0.996   8.457  20.340  0.00  0.00    +0.000 N 
ATOM      4  C   UNL     1       0.533   9.507  19.433  0.00  0.00    +0.000 C 
ATOM      5  C   UNL     1      -0.742  10.230  19.896  0.00  0.00    +0.000 C 
ATOM      6  N   UNL     1      -0.756  10.626  21.311  0.00  0.00    +0.000 NA
ATOM      7  C   UNL     1      -0.416   9.488  22.162  0.00  0.00    +0.000 C 
ATOM      8  C   UNL     1       0.852   8.710  21.779  0.00  0.00    +0.000 C 
ENDROOT
BRANCH   1   9
ATOM      9  C   UNL     1       2.433   6.444  20.717  0.00  0.00    +0.000 C 
BRANCH   9  10
ATOM     10  O   UNL     1       2.494   5.198  20.065  0.00  0.00    +0.000 OA
BRANCH  10  14
ATOM     11  C   UNL     1       5.757   4.850  17.475  0.00  0.00    +0.000 A 
ATOM     12  C   UNL     1       5.865   5.419  18.737  0.00  0.00    +0.000 A 
ATOM     13  C   UNL     1       4.713   5.501  19.532  0.00  0.00    +0.000 A 
ATOM     14  C   UNL     1       3.455   5.012  19.098  0.00  0.00    +0.000 A 
ATOM     15  C   UNL     1       3.361   4.436  17.821  0.00  0.00    +0.000 A 
ATOM     16  C   UNL     1       2.168   3.862  17.098  0.00  0.00    +0.000 C 
ATOM     17  C   UNL     1       4.533   4.379  17.023  0.00  0.00    +0.000 A 
BRANCH  11  18
ATOM     18  S   UNL     1       7.141   4.774  16.363  0.00  0.00    +0.000 S 
ATOM     19  O   UNL     1       8.203   4.035  16.991  0.00  0.00    +0.000 OA
ATOM     20  O   UNL     1       7.327   6.121  15.867  0.00  0.00    +0.000 OA
BRANCH  18  21
ATOM     21  N   UNL     1       6.520   3.858  15.071  0.00  0.00    +0.000 NA
ATOM     22  H   UNL     1       6.956   2.936  15.034  0.00  0.00    +0.000 HD
BRANCH  21  23
ATOM     23  C   UNL     1       6.467   4.538  13.767  0.00  0.00    +0.000 C 
BRANCH  23  25
ATOM     24  C   UNL     1       5.043   3.272  12.138  0.00  0.00    +0.000 C 
ATOM     25  C   UNL     1       6.458   3.495  12.651  0.00  0.00    +0.000 C 
ENDBRANCH  23  25
ENDBRANCH  21  23
ENDBRANCH  18  21
ENDBRANCH  11  18
ENDBRANCH  10  14
ENDBRANCH   9  10
ENDBRANCH   1   9
BRANCH   6  26
ATOM     26  C   UNL     1      -0.040  11.877  21.609  0.00  0.00    +0.000 C 
BRANCH  26  27
ATOM     27  C   UNL     1      -0.936  12.799  22.423  0.00  0.00    +0.000 A 
ATOM     28  C   UNL     1      -2.271  12.463  22.763  0.00  0.00    +0.000 A 
ATOM     29  C   UNL     1      -2.989  13.237  23.688  0.00  0.00    +0.000 A 
ATOM     30  C   UNL     1      -2.341  14.308  24.266  0.00  0.00    +0.000 A 
ATOM     31  C   UNL     1      -1.079  14.687  23.872  0.00  0.00    +0.000 A 
ATOM     32  C   UNL     1      -0.377  13.985  22.927  0.00  0.00    +0.000 A 
ATOM     33  O   UNL     1      -0.599  15.737  24.592  0.00  0.00    +0.000 OA
ATOM     34  C   UNL     1      -1.555  15.731  25.668  0.00  0.00    +0.000 C 
ATOM     35  O   UNL     1      -2.788  15.067  25.307  0.00  0.00    +0.000 OA
ENDBRANCH  26  27
ENDBRANCH   6  26
TORSDOF 9
ENDMDL
MODEL 9
REMARK VINA RESULT:      -7.4      1.409      2.008
REMARK  Name = 
REMARK  11 active torsions:
REMARK  status: ('A' for Active; 'I' for Inactive)
REMARK    1  A    between atoms: C_1  and  C_2
REMARK    2  A    between atoms: C_2  and  C_3
REMARK    3  A    between atoms: C_3  and  N_4
REMARK    4  A    between atoms: N_4  and  S_5
REMARK    5  A    between atoms: S_5  and  C_8
REMARK    6  A    between atoms: C_11  and  O_12
REMARK    7  A    between atoms: O_12  and  C_13
REMARK    8  A    between atoms: C_13  and  C_14
REMARK    9  A    between atoms: N_19  and  C_20
REMARK   10  A    between atoms: C_20  and  C_21
REMARK   11  A    between atoms: C_32  and  C_33
REMARK                            x       y       z     vdW  Elec       q    Type
REMARK                         _______ _______ _______ _____ _____    ______ ____
ROOT
ATOM      1  C   UNL     1       1.454   8.405  20.112  0.00  0.00    +0.000 C 
ATOM      2  O   UNL     1       1.395   7.651  21.086  0.00  0.00    +0.000 OA
ATOM      3  N   UNL     1       0.947   9.712  20.150  0.00  0.00    +0.000 N 
ATOM      4  C   UNL     1       0.355  10.129  21.421  0.00  0.00    +0.000 C 
ATOM      5  C   UNL     1       0.009  11.624  21.501  0.00  0.00    +0.000 C 
ATOM      6  N   UNL     1      -0.682  12.170  20.324  0.00  0.00    +0.000 NA
ATOM      7  C   UNL     1       0.045  11.826  19.103  0.00  0.00    +0.000 C 
ATOM      8  C   UNL     1       0.424  10.346  18.934  0.00  0.00    +0.000 C 
ENDROOT
BRANCH   1   9
ATOM      9  C   UNL     1       2.219   7.995  18.849  0.00  0.00    +0.000 C 
BRANCH   9  10
ATOM     10  O   UNL     1       2.081   6.656  18.437  0.00  0.00    +0.000 OA
BRANCH  10  14
ATOM     11  C   UNL     1       5.521   5.287  16.496  0.00  0.00    +0.000 A 
ATOM     12  C   UNL     1       5.227   6.638  16.628  0.00  0.00    +0.000 A 
ATOM     13  C   UNL     1       4.044   7.002  17.287  0.00  0.00    +0.000 A 
ATOM     14  C   UNL     1       3.154   6.043  17.832  0.00  0.00    +0.000 A 
ATOM     15  C   UNL     1       3.465   4.681  17.695  0.00  0.00    +0.000 A 
ATOM     16  C   UNL     1       2.705   3.460  18.148  0.00  0.00    +0.000 C 
ATOM     17  C   UNL     1       4.656   4.331  17.009  0.00  0.00    +0.000 A 
BRANCH  11  18
ATOM     18  S   UNL     1       6.953   4.725  15.607  0.00  0.00    +0.000 S 
ATOM     19  O   UNL     1       7.826   4.034  16.518  0.00  0.00    +0.000 OA
ATOM     20  O   UNL     1       7.398   5.852  14.816  0.00  0.00    +0.000 OA
BRANCH  18  21
ATOM     21  N   UNL     1       6.287   3.597  14.520  0.00  0.00    +0.000 NA
ATOM     22  H   UNL     1       6.511   2.642  14.801  0.00  0.00    +0.000 HD
BRANCH  21  23
ATOM     23  C   UNL     1       6.523   3.863  13.093  0.00  0.00    +0.000 C 
BRANCH  23  25
ATOM     24  C   UNL     1       6.035   1.970  11.523  0.00  0.00    +0.000 C 
ATOM     25  C   UNL     1       5.448   3.164  12.261  0.00  0.00    +0.000 C 
ENDBRANCH  23  25
ENDBRANCH  21  23
ENDBRANCH  18  21
ENDBRANCH  11  18
ENDBRANCH  10  14
ENDBRANCH   9  10
ENDBRANCH   1   9
BRANCH   6  26
ATOM     26  C   UNL     1      -2.132  11.921  20.290  0.00  0.00    +0.000 C 
BRANCH  26  27
ATOM     27  C   UNL     1      -2.857  13.018  21.058  0.00  0.00    +0.000 A 
ATOM     28  C   UNL     1      -4.259  13.210  20.976  0.00  0.00    +0.000 A 
ATOM     29  C   UNL     1      -4.912  14.086  21.856  0.00  0.00    +0.000 A 
ATOM     30  C   UNL     1      -4.147  14.724  22.810  0.00  0.00    +0.000 A 
ATOM     31  C   UNL     1      -2.778  14.608  22.834  0.00  0.00    +0.000 A 
ATOM     32  C   UNL     1      -2.107  13.805  21.948  0.00  0.00    +0.000 A 
ATOM     33  O   UNL     1      -2.213  15.276  23.875  0.00  0.00    +0.000 OA
ATOM     34  C   UNL     1      -3.398  15.523  24.656  0.00  0.00    +0.000 C 
ATOM     35  O   UNL     1      -4.604  15.463  23.861  0.00  0.00    +0.000 OA
ENDBRANCH  26  27
ENDBRANCH   6  26
TORSDOF 9
ENDMDL
