MODEL 1
REMARK VINA RESULT:      -6.9      0.000      0.000
REMARK  Name = 
REMARK  12 active torsions:
REMARK  status: ('A' for Active; 'I' for Inactive)
REMARK    1  A    between atoms: C_1  and  N_2
REMARK    2  A    between atoms: N_2  and  C_3
REMARK    3  A    between atoms: C_8  and  C_9
REMARK    4  A    between atoms: C_12  and  O_13
REMARK    5  A    between atoms: O_13  and  C_14
REMARK    6  A    between atoms: C_14  and  C_15
REMARK    7  A    between atoms: C_15  and  O_16
REMARK    8  A    between atoms: O_16  and  C_17
REMARK    9  A    between atoms: C_17  and  C_18
REMARK   10  A    between atoms: C_18  and  O_19
REMARK   11  A    between atoms: O_19  and  C_20
REMARK   12  A    between atoms: C_20  and  C_21
REMARK                            x       y       z     vdW  Elec       q    Type
REMARK                         _______ _______ _______ _____ _____    ______ ____
ROOT
ATOM      1  C   UNL     1       2.024   8.044  19.157  0.00  0.00    +0.000 A 
ATOM      2  C   UNL     1       2.260   6.901  19.949  0.00  0.00    +0.000 A 
ATOM      3  C   UNL     1       3.123   5.931  19.535  0.00  0.00    +0.000 A 
ATOM      4  C   UNL     1       3.794   6.013  18.311  0.00  0.00    +0.000 A 
ATOM      5  C   UNL     1       3.585   7.133  17.498  0.00  0.00    +0.000 A 
ATOM      6  C   UNL     1       2.706   8.127  17.930  0.00  0.00    +0.000 A 
ENDROOT
BRANCH   1  12
ATOM      7  C   UNL     1      -1.701  12.084  22.408  0.00  0.00    +0.000 A 
ATOM      8  C   UNL     1      -1.340  10.984  23.195  0.00  0.00    +0.000 A 
ATOM      9  C   UNL     1      -0.554   9.952  22.654  0.00  0.00    +0.000 A 
ATOM     10  C   UNL     1      -0.089  10.011  21.362  0.00  0.00    +0.000 A 
ATOM     11  N   UNL     1       0.654   8.994  20.888  0.00  0.00    +0.000 NA
ATOM     12  C   UNL     1       1.136   9.109  19.624  0.00  0.00    +0.000 A 
ATOM     13  C   UNL     1       0.828  10.231  18.861  0.00  0.00    +0.000 A 
ATOM     14  N   UNL     1       0.070  11.253  19.309  0.00  0.00    +0.000 NA
ATOM     15  C   UNL     1      -0.390  11.145  20.569  0.00  0.00    +0.000 A 
ATOM     16  C   UNL     1      -1.181  12.152  21.114  0.00  0.00    +0.000 A 
BRANCH   7  18
ATOM     17  C   UNL     1      -3.601  12.681  23.833  0.00  0.00    +0.000 C 
ATOM     18  N   UNL     1      -2.507  13.088  22.960  0.00  0.00    +0.000 N 
ATOM     19  H   UNL     1      -2.022  13.932  23.248  0.00  0.00    +0.000 HD
ENDBRANCH   7  18
ENDBRANCH   1  12
BRANCH   4  20
ATOM     20  O   UNL     1       4.650   4.999  17.920  0.00  0.00    +0.000 OA
BRANCH  20  21
ATOM     21  C   UNL     1       5.097   4.161  19.023  0.00  0.00    +0.000 C 
BRANCH  21  22
ATOM     22  C   UNL     1       4.350   2.848  19.017  0.00  0.00    +0.000 C 
BRANCH  22  23
ATOM     23  O   UNL     1       3.925   2.542  17.688  0.00  0.00    +0.000 OA
BRANCH  23  24
ATOM     24  C   UNL     1       2.516   2.325  17.642  0.00  0.00    +0.000 C 
BRANCH  24  25
ATOM     25  C   UNL     1       1.994   2.041  19.046  0.00  0.00    +0.000 C 
BRANCH  25  26
ATOM     26  O   UNL     1       0.755   2.727  19.234  0.00  0.00    +0.000 OA
BRANCH  26  27
ATOM     27  C   UNL     1       0.753   3.469  20.453  0.00  0.00    +0.000 C 
BRANCH  27  28
ATOM     28  C   UNL     1       1.604   2.754  21.487  0.00  0.00    +0.000 C 
ATOM     29  F   UNL     1       2.411   3.656  22.105  0.00  0.00    +0.000 F 
ENDBRANCH  27  28
ENDBRANCH  26  27
ENDBRANCH  25  26
ENDBRANCH  24  25
ENDBRANCH  23  24
ENDBRANCH  22  23
ENDBRANCH  21  22
ENDBRANCH  20  21
ENDBRANCH   4  20
TORSDOF 11
ENDMDL
MODEL 2
REMARK VINA RESULT:      -6.7      2.774      4.117
REMARK  Name = 
REMARK  12 active torsions:
REMARK  status: ('A' for Active; 'I' for Inactive)
REMARK    1  A    between atoms: C_1  and  N_2
REMARK    2  A    between atoms: N_2  and  C_3
REMARK    3  A    between atoms: C_8  and  C_9
REMARK    4  A    between atoms: C_12  and  O_13
REMARK    5  A    between atoms: O_13  and  C_14
REMARK    6  A    between atoms: C_14  and  C_15
REMARK    7  A    between atoms: C_15  and  O_16
REMARK    8  A    between atoms: O_16  and  C_17
REMARK    9  A    between atoms: C_17  and  C_18
REMARK   10  A    between atoms: C_18  and  O_19
REMARK   11  A    between atoms: O_19  and  C_20
REMARK   12  A    between atoms: C_20  and  C_21
REMARK                            x       y       z     vdW  Elec       q    Type
REMARK                         _______ _______ _______ _____ _____    ______ ____
ROOT
ATOM      1  C   UNL     1       1.525   7.882  20.237  0.00  0.00    +0.000 A 
ATOM      2  C   UNL     1       1.599   6.599  20.817  0.00  0.00    +0.000 A 
ATOM      3  C   UNL     1       2.238   5.580  20.178  0.00  0.00    +0.000 A 
ATOM      4  C   UNL     1       2.828   5.752  18.922  0.00  0.00    +0.000 A 
ATOM      5  C   UNL     1       2.774   7.011  18.314  0.00  0.00    +0.000 A 
ATOM      6  C   UNL     1       2.126   8.054  18.978  0.00  0.00    +0.000 A 
ENDROOT
BRANCH   1  12
ATOM      7  C   UNL     1      -1.960  12.878  22.155  0.00  0.00    +0.000 A 
ATOM      8  C   UNL     1      -2.109  12.655  20.781  0.00  0.00    +0.000 A 
ATOM      9  C   UNL     1      -1.392  11.625  20.148  0.00  0.00    +0.000 A 
ATOM     10  C   UNL     1      -0.562  10.791  20.859  0.00  0.00    +0.000 A 
ATOM     11  N   UNL     1       0.108   9.825  20.205  0.00  0.00    +0.000 NA
ATOM     12  C   UNL     1       0.882   8.989  20.946  0.00  0.00    +0.000 A 
ATOM     13  C   UNL     1       0.982   9.173  22.322  0.00  0.00    +0.000 A 
ATOM     14  N   UNL     1       0.335  10.146  22.995  0.00  0.00    +0.000 NA
ATOM     15  C   UNL     1      -0.446  10.960  22.259  0.00  0.00    +0.000 A 
ATOM     16  C   UNL     1      -1.151  11.992  22.870  0.00  0.00    +0.000 A 
BRANCH   7  18
ATOM     17  C   UNL     1      -2.094  14.526  23.960  0.00  0.00    +0.000 C 
ATOM     18  N   UNL     1      -2.664  13.926  22.760  0.00  0.00    +0.000 N 
ATOM     19  H   UNL     1      -3.108  14.582  22.126  0.00  0.00    +0.000 HD
ENDBRANCH   7  18
ENDBRANCH   1  12
BRANCH   4  20
ATOM     20  O   UNL     1       3.454   4.687  18.298  0.00  0.00    +0.000 OA
BRANCH  20  21
ATOM     21  C   UNL     1       4.537   4.113  19.081  0.00  0.00    +0.000 C 
BRANCH  21  22
ATOM     22  C   UNL     1       5.728   5.043  19.085  0.00  0.00    +0.000 C 
BRANCH  22  23
ATOM     23  O   UNL     1       6.906   4.316  18.735  0.00  0.00    +0.000 OA
BRANCH  23  24
ATOM     24  C   UNL     1       7.554   4.909  17.611  0.00  0.00    +0.000 C 
BRANCH  24  25
ATOM     25  C   UNL     1       6.687   6.029  17.049  0.00  0.00    +0.000 C 
BRANCH  25  26
ATOM     26  O   UNL     1       6.571   5.870  15.634  0.00  0.00    +0.000 OA
BRANCH  26  27
ATOM     27  C   UNL     1       6.979   4.566  15.223  0.00  0.00    +0.000 C 
BRANCH  27  28
ATOM     28  C   UNL     1       6.123   4.108  14.056  0.00  0.00    +0.000 C 
ATOM     29  F   UNL     1       6.840   4.213  12.906  0.00  0.00    +0.000 F 
ENDBRANCH  27  28
ENDBRANCH  26  27
ENDBRANCH  25  26
ENDBRANCH  24  25
ENDBRANCH  23  24
ENDBRANCH  22  23
ENDBRANCH  21  22
ENDBRANCH  20  21
ENDBRANCH   4  20
TORSDOF 11
ENDMDL
MODEL 3
REMARK VINA RESULT:      -6.7      1.305      2.242
REMARK  Name = 
REMARK  12 active torsions:
REMARK  status: ('A' for Active; 'I' for Inactive)
REMARK    1  A    between atoms: C_1  and  N_2
REMARK    2  A    between atoms: N_2  and  C_3
REMARK    3  A    between atoms: C_8  and  C_9
REMARK    4  A    between atoms: C_12  and  O_13
REMARK    5  A    between atoms: O_13  and  C_14
REMARK    6  A    between atoms: C_14  and  C_15
REMARK    7  A    between atoms: C_15  and  O_16
REMARK    8  A    between atoms: O_16  and  C_17
REMARK    9  A    between atoms: C_17  and  C_18
REMARK   10  A    between atoms: C_18  and  O_19
REMARK   11  A    between atoms: O_19  and  C_20
REMARK   12  A    between atoms: C_20  and  C_21
REMARK                            x       y       z     vdW  Elec       q    Type
REMARK                         _______ _______ _______ _____ _____    ______ ____
ROOT
ATOM      1  C   UNL     1       1.507   8.633  19.962  0.00  0.00    +0.000 A 
ATOM      2  C   UNL     1       1.788   8.995  18.628  0.00  0.00    +0.000 A 
ATOM      3  C   UNL     1       2.475   8.154  17.806  0.00  0.00    +0.000 A 
ATOM      4  C   UNL     1       2.947   6.913  18.248  0.00  0.00    +0.000 A 
ATOM      5  C   UNL     1       2.688   6.520  19.565  0.00  0.00    +0.000 A 
ATOM      6  C   UNL     1       1.975   7.382  20.400  0.00  0.00    +0.000 A 
ENDROOT
BRANCH   1  12
ATOM      7  C   UNL     1      -2.536  12.823  22.584  0.00  0.00    +0.000 A 
ATOM      8  C   UNL     1      -2.594  12.871  21.186  0.00  0.00    +0.000 A 
ATOM      9  C   UNL     1      -1.750  12.055  20.413  0.00  0.00    +0.000 A 
ATOM     10  C   UNL     1      -0.880  11.168  21.001  0.00  0.00    +0.000 A 
ATOM     11  N   UNL     1      -0.088  10.415  20.216  0.00  0.00    +0.000 NA
ATOM     12  C   UNL     1       0.725   9.515  20.829  0.00  0.00    +0.000 A 
ATOM     13  C   UNL     1       0.739   9.425  22.218  0.00  0.00    +0.000 A 
ATOM     14  N   UNL     1      -0.032  10.183  23.024  0.00  0.00    +0.000 NA
ATOM     15  C   UNL     1      -0.850  11.059  22.411  0.00  0.00    +0.000 A 
ATOM     16  C   UNL     1      -1.681  11.883  23.164  0.00  0.00    +0.000 A 
BRANCH   7  18
ATOM     17  C   UNL     1      -3.599  15.014  22.838  0.00  0.00    +0.000 C 
ATOM     18  N   UNL     1      -3.367  13.663  23.335  0.00  0.00    +0.000 N 
ATOM     19  H   UNL     1      -4.177  13.219  23.756  0.00  0.00    +0.000 HD
ENDBRANCH   7  18
ENDBRANCH   1  12
BRANCH   4  20
ATOM     20  O   UNL     1       3.656   6.095  17.386  0.00  0.00    +0.000 OA
BRANCH  20  21
ATOM     21  C   UNL     1       4.983   5.754  17.874  0.00  0.00    +0.000 C 
BRANCH  21  22
ATOM     22  C   UNL     1       5.150   4.253  17.931  0.00  0.00    +0.000 C 
BRANCH  22  23
ATOM     23  O   UNL     1       5.335   3.841  19.286  0.00  0.00    +0.000 OA
BRANCH  23  24
ATOM     24  C   UNL     1       4.417   2.805  19.631  0.00  0.00    +0.000 C 
BRANCH  24  25
ATOM     25  C   UNL     1       3.252   2.800  18.649  0.00  0.00    +0.000 C 
BRANCH  25  26
ATOM     26  O   UNL     1       2.292   1.827  19.061  0.00  0.00    +0.000 OA
BRANCH  26  27
ATOM     27  C   UNL     1       0.968   2.357  19.029  0.00  0.00    +0.000 C 
BRANCH  27  28
ATOM     28  C   UNL     1       0.842   3.478  20.044  0.00  0.00    +0.000 C 
ATOM     29  F   UNL     1       0.883   2.955  21.297  0.00  0.00    +0.000 F 
ENDBRANCH  27  28
ENDBRANCH  26  27
ENDBRANCH  25  26
ENDBRANCH  24  25
ENDBRANCH  23  24
ENDBRANCH  22  23
ENDBRANCH  21  22
ENDBRANCH  20  21
ENDBRANCH   4  20
TORSDOF 11
ENDMDL
MODEL 4
REMARK VINA RESULT:      -6.7      2.673      4.331
REMARK  Name = 
REMARK  12 active torsions:
REMARK  status: ('A' for Active; 'I' for Inactive)
REMARK    1  A    between atoms: C_1  and  N_2
REMARK    2  A    between atoms: N_2  and  C_3
REMARK    3  A    between atoms: C_8  and  C_9
REMARK    4  A    between atoms: C_12  and  O_13
REMARK    5  A    between atoms: O_13  and  C_14
REMARK    6  A    between atoms: C_14  and  C_15
REMARK    7  A    between atoms: C_15  and  O_16
REMARK    8  A    between atoms: O_16  and  C_17
REMARK    9  A    between atoms: C_17  and  C_18
REMARK   10  A    between atoms: C_18  and  O_19
REMARK   11  A    between atoms: O_19  and  C_20
REMARK   12  A    between atoms: C_20  and  C_21
REMARK                            x       y       z     vdW  Elec       q    Type
REMARK                         _______ _______ _______ _____ _____    ______ ____
ROOT
ATOM      1  C   UNL     1       1.359   8.427  20.247  0.00  0.00    +0.000 A 
ATOM      2  C   UNL     1       1.809   8.722  18.943  0.00  0.00    +0.000 A 
ATOM      3  C   UNL     1       2.453   7.781  18.197  0.00  0.00    +0.000 A 
ATOM      4  C   UNL     1       2.712   6.499  18.691  0.00  0.00    +0.000 A 
ATOM      5  C   UNL     1       2.281   6.169  19.981  0.00  0.00    +0.000 A 
ATOM      6  C   UNL     1       1.614   7.134  20.737  0.00  0.00    +0.000 A 
ENDROOT
BRANCH   1  12
ATOM      7  C   UNL     1      -2.449  13.049  22.463  0.00  0.00    +0.000 A 
ATOM      8  C   UNL     1      -2.489  12.987  21.065  0.00  0.00    +0.000 A 
ATOM      9  C   UNL     1      -1.688  12.063  20.372  0.00  0.00    +0.000 A 
ATOM     10  C   UNL     1      -0.880  11.176  21.042  0.00  0.00    +0.000 A 
ATOM     11  N   UNL     1      -0.127  10.315  20.333  0.00  0.00    +0.000 NA
ATOM     12  C   UNL     1       0.623   9.421  21.029  0.00  0.00    +0.000 A 
ATOM     13  C   UNL     1       0.616   9.442  22.420  0.00  0.00    +0.000 A 
ATOM     14  N   UNL     1      -0.116  10.308  23.151  0.00  0.00    +0.000 NA
ATOM     15  C   UNL     1      -0.872  11.179  22.458  0.00  0.00    +0.000 A 
ATOM     16  C   UNL     1      -1.660  12.109  23.130  0.00  0.00    +0.000 A 
BRANCH   7  18
ATOM     17  C   UNL     1      -4.459  13.532  23.775  0.00  0.00    +0.000 C 
ATOM     18  N   UNL     1      -3.236  13.995  23.131  0.00  0.00    +0.000 N 
ATOM     19  H   UNL     1      -2.727  14.707  23.645  0.00  0.00    +0.000 HD
ENDBRANCH   7  18
ENDBRANCH   1  12
BRANCH   4  20
ATOM     20  O   UNL     1       3.385   5.577  17.908  0.00  0.00    +0.000 OA
BRANCH  20  21
ATOM     21  C   UNL     1       4.095   4.570  18.681  0.00  0.00    +0.000 C 
BRANCH  21  22
ATOM     22  C   UNL     1       5.482   5.059  19.027  0.00  0.00    +0.000 C 
BRANCH  22  23
ATOM     23  O   UNL     1       6.455   4.155  18.503  0.00  0.00    +0.000 OA
BRANCH  23  24
ATOM     24  C   UNL     1       7.525   4.864  17.881  0.00  0.00    +0.000 C 
BRANCH  24  25
ATOM     25  C   UNL     1       6.990   5.674  16.705  0.00  0.00    +0.000 C 
BRANCH  25  26
ATOM     26  O   UNL     1       7.699   6.912  16.625  0.00  0.00    +0.000 OA
BRANCH  26  27
ATOM     27  C   UNL     1       7.883   7.489  17.917  0.00  0.00    +0.000 C 
BRANCH  27  28
ATOM     28  C   UNL     1       7.899   9.002  17.802  0.00  0.00    +0.000 C 
ATOM     29  F   UNL     1       9.004   9.488  18.427  0.00  0.00    +0.000 F 
ENDBRANCH  27  28
ENDBRANCH  26  27
ENDBRANCH  25  26
ENDBRANCH  24  25
ENDBRANCH  23  24
ENDBRANCH  22  23
ENDBRANCH  21  22
ENDBRANCH  20  21
ENDBRANCH   4  20
TORSDOF 11
ENDMDL
MODEL 5
REMARK VINA RESULT:      -6.6      1.528      2.244
REMARK  Name = 
REMARK  12 active torsions:
REMARK  status: ('A' for Active; 'I' for Inactive)
REMARK    1  A    between atoms: C_1  and  N_2
REMARK    2  A    between atoms: N_2  and  C_3
REMARK    3  A    between atoms: C_8  and  C_9
REMARK    4  A    between atoms: C_12  and  O_13
REMARK    5  A    between atoms: O_13  and  C_14
REMARK    6  A    between atoms: C_14  and  C_15
REMARK    7  A    between atoms: C_15  and  O_16
REMARK    8  A    between atoms: O_16  and  C_17
REMARK    9  A    between atoms: C_17  and  C_18
REMARK   10  A    between atoms: C_18  and  O_19
REMARK   11  A    between atoms: O_19  and  C_20
REMARK   12  A    between atoms: C_20  and  C_21
REMARK                            x       y       z     vdW  Elec       q    Type
REMARK                         _______ _______ _______ _____ _____    ______ ____
ROOT
ATOM      1  C   UNL     1       1.478   8.591  19.911  0.00  0.00    +0.000 A 
ATOM      2  C   UNL     1       1.951   7.339  20.357  0.00  0.00    +0.000 A 
ATOM      3  C   UNL     1       2.693   6.542  19.538  0.00  0.00    +0.000 A 
ATOM      4  C   UNL     1       3.001   6.915  18.226  0.00  0.00    +0.000 A 
ATOM      5  C   UNL     1       2.549   8.150  17.748  0.00  0.00    +0.000 A 
ATOM      6  C   UNL     1       1.796   8.966  18.595  0.00  0.00    +0.000 A 
ENDROOT
BRANCH   1  12
ATOM      7  C   UNL     1      -2.479  12.771  22.677  0.00  0.00    +0.000 A 
ATOM      8  C   UNL     1      -2.579  12.826  21.282  0.00  0.00    +0.000 A 
ATOM      9  C   UNL     1      -1.760  12.014  20.479  0.00  0.00    +0.000 A 
ATOM     10  C   UNL     1      -0.873  11.122  21.035  0.00  0.00    +0.000 A 
ATOM     11  N   UNL     1      -0.106  10.372  20.223  0.00  0.00    +0.000 NA
ATOM     12  C   UNL     1       0.724   9.469  20.807  0.00  0.00    +0.000 A 
ATOM     13  C   UNL     1       0.780   9.371  22.194  0.00  0.00    +0.000 A 
ATOM     14  N   UNL     1       0.034  10.126  23.027  0.00  0.00    +0.000 NA
ATOM     15  C   UNL     1      -0.801  11.006  22.444  0.00  0.00    +0.000 A 
ATOM     16  C   UNL     1      -1.608  11.826  23.226  0.00  0.00    +0.000 A 
BRANCH   7  18
ATOM     17  C   UNL     1      -4.080  12.996  24.514  0.00  0.00    +0.000 C 
ATOM     18  N   UNL     1      -3.286  13.608  23.457  0.00  0.00    +0.000 N 
ATOM     19  H   UNL     1      -2.886  14.510  23.692  0.00  0.00    +0.000 HD
ENDBRANCH   7  18
ENDBRANCH   1  12
BRANCH   4  20
ATOM     20  O   UNL     1       3.743   6.069  17.420  0.00  0.00    +0.000 OA
BRANCH  20  21
ATOM     21  C   UNL     1       5.176   6.160  17.651  0.00  0.00    +0.000 C 
BRANCH  21  22
ATOM     22  C   UNL     1       5.682   4.895  18.303  0.00  0.00    +0.000 C 
BRANCH  22  23
ATOM     23  O   UNL     1       4.751   3.835  18.084  0.00  0.00    +0.000 OA
BRANCH  23  24
ATOM     24  C   UNL     1       4.509   3.112  19.289  0.00  0.00    +0.000 C 
BRANCH  24  25
ATOM     25  C   UNL     1       3.804   1.800  18.969  0.00  0.00    +0.000 C 
BRANCH  25  26
ATOM     26  O   UNL     1       2.712   2.055  18.086  0.00  0.00    +0.000 OA
BRANCH  26  27
ATOM     27  C   UNL     1       1.473   2.104  18.792  0.00  0.00    +0.000 C 
BRANCH  27  28
ATOM     28  C   UNL     1       0.912   3.513  18.740  0.00  0.00    +0.000 C 
ATOM     29  F   UNL     1       1.272   4.097  17.567  0.00  0.00    +0.000 F 
ENDBRANCH  27  28
ENDBRANCH  26  27
ENDBRANCH  25  26
ENDBRANCH  24  25
ENDBRANCH  23  24
ENDBRANCH  22  23
ENDBRANCH  21  22
ENDBRANCH  20  21
ENDBRANCH   4  20
TORSDOF 11
ENDMDL
MODEL 6
REMARK VINA RESULT:      -6.6      1.336      2.313
REMARK  Name = 
REMARK  12 active torsions:
REMARK  status: ('A' for Active; 'I' for Inactive)
REMARK    1  A    between atoms: C_1  and  N_2
REMARK    2  A    between atoms: N_2  and  C_3
REMARK    3  A    between atoms: C_8  and  C_9
REMARK    4  A    between atoms: C_12  and  O_13
REMARK    5  A    between atoms: O_13  and  C_14
REMARK    6  A    between atoms: C_14  and  C_15
REMARK    7  A    between atoms: C_15  and  O_16
REMARK    8  A    between atoms: O_16  and  C_17
REMARK    9  A    between atoms: C_17  and  C_18
REMARK   10  A    between atoms: C_18  and  O_19
REMARK   11  A    between atoms: O_19  and  C_20
REMARK   12  A    between atoms: C_20  and  C_21
REMARK                            x       y       z     vdW  Elec       q    Type
REMARK                         _______ _______ _______ _____ _____    ______ ____
ROOT
ATOM      1  C   UNL     1       1.068   9.078  20.215  0.00  0.00    +0.000 A 
ATOM      2  C   UNL     1       1.348   9.393  18.869  0.00  0.00    +0.000 A 
ATOM      3  C   UNL     1       2.049   8.530  18.081  0.00  0.00    +0.000 A 
ATOM      4  C   UNL     1       2.534   7.313  18.570  0.00  0.00    +0.000 A 
ATOM      5  C   UNL     1       2.277   6.966  19.901  0.00  0.00    +0.000 A 
ATOM      6  C   UNL     1       1.551   7.850  20.701  0.00  0.00    +0.000 A 
ENDROOT
BRANCH   1  12
ATOM      7  C   UNL     1      -2.993  13.356  22.660  0.00  0.00    +0.000 A 
ATOM      8  C   UNL     1      -3.007  13.387  21.261  0.00  0.00    +0.000 A 
ATOM      9  C   UNL     1      -2.152  12.550  20.524  0.00  0.00    +0.000 A 
ATOM     10  C   UNL     1      -1.313  11.658  21.149  0.00  0.00    +0.000 A 
ATOM     11  N   UNL     1      -0.508  10.884  20.398  0.00  0.00    +0.000 NA
ATOM     12  C   UNL     1       0.273   9.981  21.047  0.00  0.00    +0.000 A 
ATOM     13  C   UNL     1       0.243   9.908  22.437  0.00  0.00    +0.000 A 
ATOM     14  N   UNL     1      -0.542  10.687  23.209  0.00  0.00    +0.000 NA
ATOM     15  C   UNL     1      -1.328  11.567  22.561  0.00  0.00    +0.000 A 
ATOM     16  C   UNL     1      -2.170  12.411  23.278  0.00  0.00    +0.000 A 
BRANCH   7  18
ATOM     17  C   UNL     1      -4.003  15.576  22.875  0.00  0.00    +0.000 C 
ATOM     18  N   UNL     1      -3.835  14.217  23.375  0.00  0.00    +0.000 N 
ATOM     19  H   UNL     1      -4.677  13.795  23.753  0.00  0.00    +0.000 HD
ENDBRANCH   7  18
ENDBRANCH   1  12
BRANCH   4  20
ATOM     20  O   UNL     1       3.257   6.472  17.742  0.00  0.00    +0.000 OA
BRANCH  20  21
ATOM     21  C   UNL     1       3.704   5.255  18.401  0.00  0.00    +0.000 C 
BRANCH  21  22
ATOM     22  C   UNL     1       3.903   4.154  17.386  0.00  0.00    +0.000 C 
BRANCH  22  23
ATOM     23  O   UNL     1       4.076   2.906  18.058  0.00  0.00    +0.000 OA
BRANCH  23  24
ATOM     24  C   UNL     1       2.948   2.058  17.854  0.00  0.00    +0.000 C 
BRANCH  24  25
ATOM     25  C   UNL     1       2.099   2.017  19.119  0.00  0.00    +0.000 C 
BRANCH  25  26
ATOM     26  O   UNL     1       1.029   2.955  18.997  0.00  0.00    +0.000 OA
BRANCH  26  27
ATOM     27  C   UNL     1       0.755   3.594  20.243  0.00  0.00    +0.000 C 
BRANCH  27  28
ATOM     28  C   UNL     1       1.713   3.080  21.302  0.00  0.00    +0.000 C 
ATOM     29  F   UNL     1       2.360   4.132  21.869  0.00  0.00    +0.000 F 
ENDBRANCH  27  28
ENDBRANCH  26  27
ENDBRANCH  25  26
ENDBRANCH  24  25
ENDBRANCH  23  24
ENDBRANCH  22  23
ENDBRANCH  21  22
ENDBRANCH  20  21
ENDBRANCH   4  20
TORSDOF 11
ENDMDL
MODEL 7
REMARK VINA RESULT:      -6.6      1.076      1.669
REMARK  Name = 
REMARK  12 active torsions:
REMARK  status: ('A' for Active; 'I' for Inactive)
REMARK    1  A    between atoms: C_1  and  N_2
REMARK    2  A    between atoms: N_2  and  C_3
REMARK    3  A    between atoms: C_8  and  C_9
REMARK    4  A    between atoms: C_12  and  O_13
REMARK    5  A    between atoms: O_13  and  C_14
REMARK    6  A    between atoms: C_14  and  C_15
REMARK    7  A    between atoms: C_15  and  O_16
REMARK    8  A    between atoms: O_16  and  C_17
REMARK    9  A    between atoms: C_17  and  C_18
REMARK   10  A    between atoms: C_18  and  O_19
REMARK   11  A    between atoms: O_19  and  C_20
REMARK   12  A    between atoms: C_20  and  C_21
REMARK                            x       y       z     vdW  Elec       q    Type
REMARK                         _______ _______ _______ _____ _____    ______ ____
ROOT
ATOM      1  C   UNL     1       1.664   8.469  19.780  0.00  0.00    +0.000 A 
ATOM      2  C   UNL     1       2.025   7.173  20.204  0.00  0.00    +0.000 A 
ATOM      3  C   UNL     1       2.749   6.351  19.394  0.00  0.00    +0.000 A 
ATOM      4  C   UNL     1       3.147   6.741  18.112  0.00  0.00    +0.000 A 
ATOM      5  C   UNL     1       2.807   8.020  17.656  0.00  0.00    +0.000 A 
ATOM      6  C   UNL     1       2.072   8.861  18.494  0.00  0.00    +0.000 A 
ENDROOT
BRANCH   1  12
ATOM      7  C   UNL     1      -2.223  12.732  22.518  0.00  0.00    +0.000 A 
ATOM      8  C   UNL     1      -2.345  12.758  21.124  0.00  0.00    +0.000 A 
ATOM      9  C   UNL     1      -1.544  11.924  20.326  0.00  0.00    +0.000 A 
ATOM     10  C   UNL     1      -0.654  11.039  20.887  0.00  0.00    +0.000 A 
ATOM     11  N   UNL     1       0.096  10.267  20.079  0.00  0.00    +0.000 NA
ATOM     12  C   UNL     1       0.930   9.371  20.668  0.00  0.00    +0.000 A 
ATOM     13  C   UNL     1       1.007   9.302  22.056  0.00  0.00    +0.000 A 
ATOM     14  N   UNL     1       0.279  10.079  22.885  0.00  0.00    +0.000 NA
ATOM     15  C   UNL     1      -0.560  10.952  22.297  0.00  0.00    +0.000 A 
ATOM     16  C   UNL     1      -1.349  11.794  23.074  0.00  0.00    +0.000 A 
BRANCH   7  18
ATOM     17  C   UNL     1      -2.396  14.809  23.802  0.00  0.00    +0.000 C 
ATOM     18  N   UNL     1      -3.013  13.590  23.293  0.00  0.00    +0.000 N 
ATOM     19  H   UNL     1      -3.976  13.694  22.992  0.00  0.00    +0.000 HD
ENDBRANCH   7  18
ENDBRANCH   1  12
BRANCH   4  20
ATOM     20  O   UNL     1       3.867   5.870  17.314  0.00  0.00    +0.000 OA
BRANCH  20  21
ATOM     21  C   UNL     1       5.047   5.326  17.969  0.00  0.00    +0.000 C 
BRANCH  21  22
ATOM     22  C   UNL     1       4.783   3.913  18.434  0.00  0.00    +0.000 C 
BRANCH  22  23
ATOM     23  O   UNL     1       4.159   3.172  17.385  0.00  0.00    +0.000 OA
BRANCH  23  24
ATOM     24  C   UNL     1       3.275   2.186  17.916  0.00  0.00    +0.000 C 
BRANCH  24  25
ATOM     25  C   UNL     1       1.890   2.791  18.113  0.00  0.00    +0.000 C 
BRANCH  25  26
ATOM     26  O   UNL     1       1.276   2.197  19.258  0.00  0.00    +0.000 OA
BRANCH  26  27
ATOM     27  C   UNL     1       1.023   3.168  20.273  0.00  0.00    +0.000 C 
BRANCH  27  28
ATOM     28  C   UNL     1       1.679   2.731  21.570  0.00  0.00    +0.000 C 
ATOM     29  F   UNL     1       2.325   3.790  22.125  0.00  0.00    +0.000 F 
ENDBRANCH  27  28
ENDBRANCH  26  27
ENDBRANCH  25  26
ENDBRANCH  24  25
ENDBRANCH  23  24
ENDBRANCH  22  23
ENDBRANCH  21  22
ENDBRANCH  20  21
ENDBRANCH   4  20
TORSDOF 11
ENDMDL
MODEL 8
REMARK VINA RESULT:      -6.6      1.211      2.024
REMARK  Name = 
REMARK  12 active torsions:
REMARK  status: ('A' for Active; 'I' for Inactive)
REMARK    1  A    between atoms: C_1  and  N_2
REMARK    2  A    between atoms: N_2  and  C_3
REMARK    3  A    between atoms: C_8  and  C_9
REMARK    4  A    between atoms: C_12  and  O_13
REMARK    5  A    between atoms: O_13  and  C_14
REMARK    6  A    between atoms: C_14  and  C_15
REMARK    7  A    between atoms: C_15  and  O_16
REMARK    8  A    between atoms: O_16  and  C_17
REMARK    9  A    between atoms: C_17  and  C_18
REMARK   10  A    between atoms: C_18  and  O_19
REMARK   11  A    between atoms: O_19  and  C_20
REMARK   12  A    between atoms: C_20  and  C_21
REMARK                            x       y       z     vdW  Elec       q    Type
REMARK                         _______ _______ _______ _____ _____    ______ ____
ROOT
ATOM      1  C   UNL     1       1.376   8.704  19.909  0.00  0.00    +0.000 A 
ATOM      2  C   UNL     1       1.827   7.439  20.340  0.00  0.00    +0.000 A 
ATOM      3  C   UNL     1       2.559   6.641  19.513  0.00  0.00    +0.000 A 
ATOM      4  C   UNL     1       2.878   7.026  18.207  0.00  0.00    +0.000 A 
ATOM      5  C   UNL     1       2.447   8.274  17.744  0.00  0.00    +0.000 A 
ATOM      6  C   UNL     1       1.705   9.091  18.598  0.00  0.00    +0.000 A 
ENDROOT
BRANCH   1  12
ATOM      7  C   UNL     1      -2.534  12.899  22.717  0.00  0.00    +0.000 A 
ATOM      8  C   UNL     1      -2.639  12.965  21.323  0.00  0.00    +0.000 A 
ATOM      9  C   UNL     1      -1.829  12.151  20.512  0.00  0.00    +0.000 A 
ATOM     10  C   UNL     1      -0.949  11.249  21.059  0.00  0.00    +0.000 A 
ATOM     11  N   UNL     1      -0.191  10.497  20.239  0.00  0.00    +0.000 NA
ATOM     12  C   UNL     1       0.633   9.582  20.813  0.00  0.00    +0.000 A 
ATOM     13  C   UNL     1       0.692   9.475  22.199  0.00  0.00    +0.000 A 
ATOM     14  N   UNL     1      -0.044  10.230  23.040  0.00  0.00    +0.000 NA
ATOM     15  C   UNL     1      -0.873  11.122  22.466  0.00  0.00    +0.000 A 
ATOM     16  C   UNL     1      -1.670  11.944  23.257  0.00  0.00    +0.000 A 
BRANCH   7  18
ATOM     17  C   UNL     1      -4.555  13.182  24.071  0.00  0.00    +0.000 C 
ATOM     18  N   UNL     1      -3.331  13.738  23.506  0.00  0.00    +0.000 N 
ATOM     19  H   UNL     1      -2.830  14.374  24.118  0.00  0.00    +0.000 HD
ENDBRANCH   7  18
ENDBRANCH   1  12
BRANCH   4  20
ATOM     20  O   UNL     1       3.609   6.178  17.394  0.00  0.00    +0.000 OA
BRANCH  20  21
ATOM     21  C   UNL     1       5.004   6.059  17.788  0.00  0.00    +0.000 C 
BRANCH  21  22
ATOM     22  C   UNL     1       5.528   4.684  17.445  0.00  0.00    +0.000 C 
BRANCH  22  23
ATOM     23  O   UNL     1       4.622   3.691  17.926  0.00  0.00    +0.000 OA
BRANCH  23  24
ATOM     24  C   UNL     1       4.671   3.604  19.349  0.00  0.00    +0.000 C 
BRANCH  24  25
ATOM     25  C   UNL     1       4.115   2.260  19.802  0.00  0.00    +0.000 C 
BRANCH  25  26
ATOM     26  O   UNL     1       2.779   2.115  19.319  0.00  0.00    +0.000 OA
BRANCH  26  27
ATOM     27  C   UNL     1       1.887   3.008  19.984  0.00  0.00    +0.000 C 
BRANCH  27  28
ATOM     28  C   UNL     1       1.823   2.661  21.460  0.00  0.00    +0.000 C 
ATOM     29  F   UNL     1       2.292   3.708  22.188  0.00  0.00    +0.000 F 
ENDBRANCH  27  28
ENDBRANCH  26  27
ENDBRANCH  25  26
ENDBRANCH  24  25
ENDBRANCH  23  24
ENDBRANCH  22  23
ENDBRANCH  21  22
ENDBRANCH  20  21
ENDBRANCH   4  20
TORSDOF 11
ENDMDL
MODEL 9
REMARK VINA RESULT:      -6.6      1.229      1.992
REMARK  Name = 
REMARK  12 active torsions:
REMARK  status: ('A' for Active; 'I' for Inactive)
REMARK    1  A    between atoms: C_1  and  N_2
REMARK    2  A    between atoms: N_2  and  C_3
REMARK    3  A    between atoms: C_8  and  C_9
REMARK    4  A    between atoms: C_12  and  O_13
REMARK    5  A    between atoms: O_13  and  C_14
REMARK    6  A    between atoms: C_14  and  C_15
REMARK    7  A    between atoms: C_15  and  O_16
REMARK    8  A    between atoms: O_16  and  C_17
REMARK    9  A    between atoms: C_17  and  C_18
REMARK   10  A    between atoms: C_18  and  O_19
REMARK   11  A    between atoms: O_19  and  C_20
REMARK   12  A    between atoms: C_20  and  C_21
REMARK                            x       y       z     vdW  Elec       q    Type
REMARK                         _______ _______ _______ _____ _____    ______ ____
ROOT
ATOM      1  C   UNL     1       1.207   9.017  19.903  0.00  0.00    +0.000 A 
ATOM      2  C   UNL     1       1.709   7.793  20.391  0.00  0.00    +0.000 A 
ATOM      3  C   UNL     1       2.487   6.995  19.605  0.00  0.00    +0.000 A 
ATOM      4  C   UNL     1       2.804   7.341  18.288  0.00  0.00    +0.000 A 
ATOM      5  C   UNL     1       2.323   8.548  17.769  0.00  0.00    +0.000 A 
ATOM      6  C   UNL     1       1.534   9.365  18.581  0.00  0.00    +0.000 A 
ENDROOT
BRANCH   1  12
ATOM      7  C   UNL     1      -2.921  13.143  22.494  0.00  0.00    +0.000 A 
ATOM      8  C   UNL     1      -3.010  13.148  21.096  0.00  0.00    +0.000 A 
ATOM      9  C   UNL     1      -2.155  12.339  20.328  0.00  0.00    +0.000 A 
ATOM     10  C   UNL     1      -1.243  11.500  20.922  0.00  0.00    +0.000 A 
ATOM     11  N   UNL     1      -0.442  10.751  20.142  0.00  0.00    +0.000 NA
ATOM     12  C   UNL     1       0.414   9.897  20.762  0.00  0.00    +0.000 A 
ATOM     13  C   UNL     1       0.460   9.848  22.152  0.00  0.00    +0.000 A 
ATOM     14  N   UNL     1      -0.319  10.603  22.953  0.00  0.00    +0.000 NA
ATOM     15  C   UNL     1      -1.180  11.433  22.334  0.00  0.00    +0.000 A 
ATOM     16  C   UNL     1      -2.023  12.250  23.082  0.00  0.00    +0.000 A 
BRANCH   7  18
ATOM     17  C   UNL     1      -4.927  13.373  23.879  0.00  0.00    +0.000 C 
ATOM     18  N   UNL     1      -3.765  13.977  23.238  0.00  0.00    +0.000 N 
ATOM     19  H   UNL     1      -3.302  14.695  23.785  0.00  0.00    +0.000 HD
ENDBRANCH   7  18
ENDBRANCH   1  12
BRANCH   4  20
ATOM     20  O   UNL     1       3.582   6.495  17.518  0.00  0.00    +0.000 OA
BRANCH  20  21
ATOM     21  C   UNL     1       3.121   5.115  17.528  0.00  0.00    +0.000 C 
BRANCH  21  22
ATOM     22  C   UNL     1       4.287   4.173  17.335  0.00  0.00    +0.000 C 
BRANCH  22  23
ATOM     23  O   UNL     1       3.929   2.868  17.788  0.00  0.00    +0.000 OA
BRANCH  23  24
ATOM     24  C   UNL     1       2.514   2.691  17.765  0.00  0.00    +0.000 C 
BRANCH  24  25
ATOM     25  C   UNL     1       2.063   1.980  19.035  0.00  0.00    +0.000 C 
BRANCH  25  26
ATOM     26  O   UNL     1       0.792   2.494  19.436  0.00  0.00    +0.000 OA
BRANCH  26  27
ATOM     27  C   UNL     1       0.930   3.728  20.139  0.00  0.00    +0.000 C 
BRANCH  27  28
ATOM     28  C   UNL     1       1.751   3.511  21.396  0.00  0.00    +0.000 C 
ATOM     29  F   UNL     1       1.198   2.506  22.125  0.00  0.00    +0.000 F 
ENDBRANCH  27  28
ENDBRANCH  26  27
ENDBRANCH  25  26
ENDBRANCH  24  25
ENDBRANCH  23  24
ENDBRANCH  22  23
ENDBRANCH  21  22
ENDBRANCH  20  21
ENDBRANCH   4  20
TORSDOF 11
ENDMDL
