MODEL 1
REMARK VINA RESULT:      -8.6      0.000      0.000
REMARK  Name = 
REMARK  6 active torsions:
REMARK  status: ('A' for Active; 'I' for Inactive)
REMARK    1  A    between atoms: C_2  and  C_12
REMARK    2  A    between atoms: N_3  and  C_4
REMARK    3  A    between atoms: C_7  and  O_8
REMARK    4  A    between atoms: C_10  and  O_11
REMARK    5  A    between atoms: C_18  and  O_19
REMARK    6  A    between atoms: C_22  and  O_23
REMARK                            x       y       z     vdW  Elec       q    Type
REMARK                         _______ _______ _______ _____ _____    ______ ____
ROOT
ATOM      1  O   UNL     1       4.503   5.786  18.668  0.00  0.00    +0.000 OA
ATOM      2  C   UNL     1       4.590   4.803  17.933  0.00  0.00    +0.000 C 
ATOM      3  N   UNL     1       3.930   3.606  18.108  0.00  0.00    +0.000 N 
ATOM      4  H   UNL     1       4.198   2.825  17.507  0.00  0.00    +0.000 HD
ENDROOT
BRANCH   2   5
ATOM      5  C   UNL     1       5.509   4.901  16.765  0.00  0.00    +0.000 A 
ATOM      6  C   UNL     1       5.158   4.143  15.634  0.00  0.00    +0.000 A 
ATOM      7  C   UNL     1       5.896   4.220  14.449  0.00  0.00    +0.000 A 
ATOM      8  C   UNL     1       5.511   3.483  13.319  0.00  0.00    +0.000 A 
ATOM      9  C   UNL     1       6.227   3.581  12.127  0.00  0.00    +0.000 A 
ATOM     10  C   UNL     1       7.347   4.405  12.054  0.00  0.00    +0.000 A 
ATOM     11  C   UNL     1       7.746   5.128  13.180  0.00  0.00    +0.000 A 
ATOM     12  C   UNL     1       7.030   5.062  14.389  0.00  0.00    +0.000 A 
ATOM     13  C   UNL     1       7.388   5.804  15.535  0.00  0.00    +0.000 A 
ATOM     14  C   UNL     1       6.627   5.733  16.704  0.00  0.00    +0.000 A 
BRANCH  11  15
ATOM     15  O   UNL     1       8.857   5.930  13.109  0.00  0.00    +0.000 OA
ATOM     16  H   UNL     1       8.979   6.209  12.188  0.00  0.00    +0.000 HD
ENDBRANCH  11  15
BRANCH  14  17
ATOM     17  O   UNL     1       6.990   6.500  17.779  0.00  0.00    +0.000 OA
ATOM     18  H   UNL     1       7.958   6.603  17.777  0.00  0.00    +0.000 HD
ENDBRANCH  14  17
ENDBRANCH   2   5
BRANCH   3  19
ATOM     19  C   UNL     1       3.082   3.267  19.181  0.00  0.00    +0.000 A 
ATOM     20  C   UNL     1       1.739   3.649  19.245  0.00  0.00    +0.000 A 
ATOM     21  C   UNL     1       0.975   3.379  20.381  0.00  0.00    +0.000 A 
ATOM     22  C   UNL     1       1.556   2.706  21.449  0.00  0.00    +0.000 A 
ATOM     23  C   UNL     1       2.874   2.262  21.386  0.00  0.00    +0.000 A 
ATOM     24  C   UNL     1       3.628   2.540  20.248  0.00  0.00    +0.000 A 
BRANCH  22  25
ATOM     25  O   UNL     1       0.854   2.471  22.594  0.00  0.00    +0.000 OA
ATOM     26  H   UNL     1       1.349   2.860  23.336  0.00  0.00    +0.000 HD
ENDBRANCH  22  25
BRANCH  24  27
ATOM     27  O   UNL     1       4.937   2.134  20.169  0.00  0.00    +0.000 OA
ATOM     28  H   UNL     1       5.105   1.833  19.261  0.00  0.00    +0.000 HD
ENDBRANCH  24  27
ENDBRANCH   3  19
TORSDOF 6
ENDMDL
MODEL 2
REMARK VINA RESULT:      -8.3      1.084      1.140
REMARK  Name = 
REMARK  6 active torsions:
REMARK  status: ('A' for Active; 'I' for Inactive)
REMARK    1  A    between atoms: C_2  and  C_12
REMARK    2  A    between atoms: N_3  and  C_4
REMARK    3  A    between atoms: C_7  and  O_8
REMARK    4  A    between atoms: C_10  and  O_11
REMARK    5  A    between atoms: C_18  and  O_19
REMARK    6  A    between atoms: C_22  and  O_23
REMARK                            x       y       z     vdW  Elec       q    Type
REMARK                         _______ _______ _______ _____ _____    ______ ____
ROOT
ATOM      1  O   UNL     1       6.003   4.135  19.141  0.00  0.00    +0.000 OA
ATOM      2  C   UNL     1       5.317   4.230  18.124  0.00  0.00    +0.000 C 
ATOM      3  N   UNL     1       3.946   4.098  18.063  0.00  0.00    +0.000 N 
ATOM      4  H   UNL     1       3.516   4.059  17.138  0.00  0.00    +0.000 HD
ENDROOT
BRANCH   2   5
ATOM      5  C   UNL     1       6.027   4.485  16.840  0.00  0.00    +0.000 A 
ATOM      6  C   UNL     1       5.586   3.746  15.730  0.00  0.00    +0.000 A 
ATOM      7  C   UNL     1       6.118   3.960  14.454  0.00  0.00    +0.000 A 
ATOM      8  C   UNL     1       5.641   3.237  13.350  0.00  0.00    +0.000 A 
ATOM      9  C   UNL     1       6.148   3.471  12.074  0.00  0.00    +0.000 A 
ATOM     10  C   UNL     1       7.151   4.418  11.886  0.00  0.00    +0.000 A 
ATOM     11  C   UNL     1       7.643   5.128  12.982  0.00  0.00    +0.000 A 
ATOM     12  C   UNL     1       7.135   4.926  14.279  0.00  0.00    +0.000 A 
ATOM     13  C   UNL     1       7.588   5.650  15.402  0.00  0.00    +0.000 A 
ATOM     14  C   UNL     1       7.029   5.440  16.665  0.00  0.00    +0.000 A 
BRANCH  11  15
ATOM     15  O   UNL     1       8.640   6.052  12.797  0.00  0.00    +0.000 OA
ATOM     16  H   UNL     1       8.270   6.816  12.325  0.00  0.00    +0.000 HD
ENDBRANCH  11  15
BRANCH  14  17
ATOM     17  O   UNL     1       7.473   6.192  17.720  0.00  0.00    +0.000 OA
ATOM     18  H   UNL     1       8.361   6.531  17.510  0.00  0.00    +0.000 HD
ENDBRANCH  14  17
ENDBRANCH   2   5
BRANCH   3  19
ATOM     19  C   UNL     1       3.087   3.777  19.133  0.00  0.00    +0.000 A 
ATOM     20  C   UNL     1       2.853   4.636  20.210  0.00  0.00    +0.000 A 
ATOM     21  C   UNL     1       2.079   4.224  21.295  0.00  0.00    +0.000 A 
ATOM     22  C   UNL     1       1.523   2.951  21.291  0.00  0.00    +0.000 A 
ATOM     23  C   UNL     1       1.692   2.098  20.204  0.00  0.00    +0.000 A 
ATOM     24  C   UNL     1       2.469   2.519  19.127  0.00  0.00    +0.000 A 
BRANCH  22  25
ATOM     25  O   UNL     1       0.804   2.497  22.357  0.00  0.00    +0.000 OA
ATOM     26  H   UNL     1       1.317   2.675  23.164  0.00  0.00    +0.000 HD
ENDBRANCH  22  25
BRANCH  24  27
ATOM     27  O   UNL     1       2.671   1.689  18.053  0.00  0.00    +0.000 OA
ATOM     28  H   UNL     1       2.313   2.126  17.262  0.00  0.00    +0.000 HD
ENDBRANCH  24  27
ENDBRANCH   3  19
TORSDOF 6
ENDMDL
MODEL 3
REMARK VINA RESULT:      -8.0      4.956      8.021
REMARK  Name = 
REMARK  6 active torsions:
REMARK  status: ('A' for Active; 'I' for Inactive)
REMARK    1  A    between atoms: C_2  and  C_12
REMARK    2  A    between atoms: N_3  and  C_4
REMARK    3  A    between atoms: C_7  and  O_8
REMARK    4  A    between atoms: C_10  and  O_11
REMARK    5  A    between atoms: C_18  and  O_19
REMARK    6  A    between atoms: C_22  and  O_23
REMARK                            x       y       z     vdW  Elec       q    Type
REMARK                         _______ _______ _______ _____ _____    ______ ____
ROOT
ATOM      1  O   UNL     1       3.568   6.816  18.505  0.00  0.00    +0.000 OA
ATOM      2  C   UNL     1       2.545   6.687  19.175  0.00  0.00    +0.000 C 
ATOM      3  N   UNL     1       2.020   5.493  19.621  0.00  0.00    +0.000 N 
ATOM      4  H   UNL     1       1.092   5.514  20.046  0.00  0.00    +0.000 HD
ENDROOT
BRANCH   2   5
ATOM      5  C   UNL     1       1.788   7.924  19.515  0.00  0.00    +0.000 A 
ATOM      6  C   UNL     1       1.238   7.980  20.807  0.00  0.00    +0.000 A 
ATOM      7  C   UNL     1       0.580   9.124  21.270  0.00  0.00    +0.000 A 
ATOM      8  C   UNL     1       0.067   9.174  22.575  0.00  0.00    +0.000 A 
ATOM      9  C   UNL     1      -0.562  10.324  23.049  0.00  0.00    +0.000 A 
ATOM     10  C   UNL     1      -0.701  11.433  22.218  0.00  0.00    +0.000 A 
ATOM     11  C   UNL     1      -0.209  11.384  20.913  0.00  0.00    +0.000 A 
ATOM     12  C   UNL     1       0.447  10.242  20.416  0.00  0.00    +0.000 A 
ATOM     13  C   UNL     1       0.984  10.172  19.113  0.00  0.00    +0.000 A 
ATOM     14  C   UNL     1       1.659   9.030  18.674  0.00  0.00    +0.000 A 
BRANCH  11  15
ATOM     15  O   UNL     1      -0.358  12.473  20.093  0.00  0.00    +0.000 OA
ATOM     16  H   UNL     1      -0.428  13.269  20.645  0.00  0.00    +0.000 HD
ENDBRANCH  11  15
BRANCH  14  17
ATOM     17  O   UNL     1       2.197   9.021  17.415  0.00  0.00    +0.000 OA
ATOM     18  H   UNL     1       1.538   9.371  16.791  0.00  0.00    +0.000 HD
ENDBRANCH  14  17
ENDBRANCH   2   5
BRANCH   3  19
ATOM     19  C   UNL     1       2.522   4.205  19.349  0.00  0.00    +0.000 A 
ATOM     20  C   UNL     1       3.466   3.566  20.157  0.00  0.00    +0.000 A 
ATOM     21  C   UNL     1       4.008   2.336  19.781  0.00  0.00    +0.000 A 
ATOM     22  C   UNL     1       3.588   1.738  18.600  0.00  0.00    +0.000 A 
ATOM     23  C   UNL     1       2.605   2.325  17.809  0.00  0.00    +0.000 A 
ATOM     24  C   UNL     1       2.073   3.554  18.191  0.00  0.00    +0.000 A 
BRANCH  22  25
ATOM     25  O   UNL     1       4.135   0.562  18.177  0.00  0.00    +0.000 OA
ATOM     26  H   UNL     1       4.154  -0.051  18.932  0.00  0.00    +0.000 HD
ENDBRANCH  22  25
BRANCH  24  27
ATOM     27  O   UNL     1       1.119   4.166  17.417  0.00  0.00    +0.000 OA
ATOM     28  H   UNL     1       0.782   4.935  17.906  0.00  0.00    +0.000 HD
ENDBRANCH  24  27
ENDBRANCH   3  19
TORSDOF 6
ENDMDL
MODEL 4
REMARK VINA RESULT:      -7.9      0.922      1.399
REMARK  Name = 
REMARK  6 active torsions:
REMARK  status: ('A' for Active; 'I' for Inactive)
REMARK    1  A    between atoms: C_2  and  C_12
REMARK    2  A    between atoms: N_3  and  C_4
REMARK    3  A    between atoms: C_7  and  O_8
REMARK    4  A    between atoms: C_10  and  O_11
REMARK    5  A    between atoms: C_18  and  O_19
REMARK    6  A    between atoms: C_22  and  O_23
REMARK                            x       y       z     vdW  Elec       q    Type
REMARK                         _______ _______ _______ _____ _____    ______ ____
ROOT
ATOM      1  O   UNL     1       4.234   6.006  18.382  0.00  0.00    +0.000 OA
ATOM      2  C   UNL     1       4.537   4.938  17.851  0.00  0.00    +0.000 C 
ATOM      3  N   UNL     1       4.111   3.690  18.252  0.00  0.00    +0.000 N 
ATOM      4  H   UNL     1       4.548   2.878  17.815  0.00  0.00    +0.000 HD
ENDROOT
BRANCH   2   5
ATOM      5  C   UNL     1       5.466   4.991  16.688  0.00  0.00    +0.000 A 
ATOM      6  C   UNL     1       5.122   4.195  15.582  0.00  0.00    +0.000 A 
ATOM      7  C   UNL     1       5.870   4.227  14.401  0.00  0.00    +0.000 A 
ATOM      8  C   UNL     1       5.491   3.452  13.294  0.00  0.00    +0.000 A 
ATOM      9  C   UNL     1       6.217   3.506  12.106  0.00  0.00    +0.000 A 
ATOM     10  C   UNL     1       7.341   4.322  12.014  0.00  0.00    +0.000 A 
ATOM     11  C   UNL     1       7.735   5.082  13.116  0.00  0.00    +0.000 A 
ATOM     12  C   UNL     1       7.008   5.062  14.321  0.00  0.00    +0.000 A 
ATOM     13  C   UNL     1       7.360   5.842  15.443  0.00  0.00    +0.000 A 
ATOM     14  C   UNL     1       6.588   5.816  16.608  0.00  0.00    +0.000 A 
BRANCH  11  15
ATOM     15  O   UNL     1       8.849   5.876  13.027  0.00  0.00    +0.000 OA
ATOM     16  H   UNL     1       8.573   6.771  12.772  0.00  0.00    +0.000 HD
ENDBRANCH  11  15
BRANCH  14  17
ATOM     17  O   UNL     1       6.945   6.619  17.658  0.00  0.00    +0.000 OA
ATOM     18  H   UNL     1       6.198   7.204  17.873  0.00  0.00    +0.000 HD
ENDBRANCH  14  17
ENDBRANCH   2   5
BRANCH   3  19
ATOM     19  C   UNL     1       3.301   3.401  19.369  0.00  0.00    +0.000 A 
ATOM     20  C   UNL     1       3.784   2.775  20.521  0.00  0.00    +0.000 A 
ATOM     21  C   UNL     1       2.915   2.416  21.553  0.00  0.00    +0.000 A 
ATOM     22  C   UNL     1       1.562   2.703  21.435  0.00  0.00    +0.000 A 
ATOM     23  C   UNL     1       1.065   3.380  20.324  0.00  0.00    +0.000 A 
ATOM     24  C   UNL     1       1.941   3.731  19.299  0.00  0.00    +0.000 A 
BRANCH  22  25
ATOM     25  O   UNL     1       0.677   2.320  22.400  0.00  0.00    +0.000 OA
ATOM     26  H   UNL     1       1.171   1.849  23.092  0.00  0.00    +0.000 HD
ENDBRANCH  22  25
BRANCH  24  27
ATOM     27  O   UNL     1       1.475   4.378  18.182  0.00  0.00    +0.000 OA
ATOM     28  H   UNL     1       0.518   4.510  18.287  0.00  0.00    +0.000 HD
ENDBRANCH  24  27
ENDBRANCH   3  19
TORSDOF 6
ENDMDL
MODEL 5
REMARK VINA RESULT:      -7.8      5.310      8.295
REMARK  Name = 
REMARK  6 active torsions:
REMARK  status: ('A' for Active; 'I' for Inactive)
REMARK    1  A    between atoms: C_2  and  C_12
REMARK    2  A    between atoms: N_3  and  C_4
REMARK    3  A    between atoms: C_7  and  O_8
REMARK    4  A    between atoms: C_10  and  O_11
REMARK    5  A    between atoms: C_18  and  O_19
REMARK    6  A    between atoms: C_22  and  O_23
REMARK                            x       y       z     vdW  Elec       q    Type
REMARK                         _______ _______ _______ _____ _____    ______ ____
ROOT
ATOM      1  O   UNL     1       3.117   7.795  17.685  0.00  0.00    +0.000 OA
ATOM      2  C   UNL     1       2.346   7.544  18.610  0.00  0.00    +0.000 C 
ATOM      3  N   UNL     1       2.099   6.293  19.135  0.00  0.00    +0.000 N 
ATOM      4  H   UNL     1       1.334   6.204  19.804  0.00  0.00    +0.000 HD
ENDROOT
BRANCH   2   5
ATOM      5  C   UNL     1       1.590   8.683  19.201  0.00  0.00    +0.000 A 
ATOM      6  C   UNL     1       1.071   8.481  20.491  0.00  0.00    +0.000 A 
ATOM      7  C   UNL     1       0.417   9.507  21.182  0.00  0.00    +0.000 A 
ATOM      8  C   UNL     1      -0.064   9.297  22.483  0.00  0.00    +0.000 A 
ATOM      9  C   UNL     1      -0.688  10.326  23.185  0.00  0.00    +0.000 A 
ATOM     10  C   UNL     1      -0.854  11.573  22.590  0.00  0.00    +0.000 A 
ATOM     11  C   UNL     1      -0.393  11.784  21.289  0.00  0.00    +0.000 A 
ATOM     12  C   UNL     1       0.258  10.768  20.565  0.00  0.00    +0.000 A 
ATOM     13  C   UNL     1       0.763  10.957  19.262  0.00  0.00    +0.000 A 
ATOM     14  C   UNL     1       1.434   9.929  18.594  0.00  0.00    +0.000 A 
BRANCH  11  15
ATOM     15  O   UNL     1      -0.569  13.010  20.700  0.00  0.00    +0.000 OA
ATOM     16  H   UNL     1      -1.031  13.591  21.325  0.00  0.00    +0.000 HD
ENDBRANCH  11  15
BRANCH  14  17
ATOM     17  O   UNL     1       1.941  10.171  17.345  0.00  0.00    +0.000 OA
ATOM     18  H   UNL     1       2.295  11.077  17.322  0.00  0.00    +0.000 HD
ENDBRANCH  14  17
ENDBRANCH   2   5
BRANCH   3  19
ATOM     19  C   UNL     1       2.637   5.073  18.678  0.00  0.00    +0.000 A 
ATOM     20  C   UNL     1       1.971   4.231  17.784  0.00  0.00    +0.000 A 
ATOM     21  C   UNL     1       2.502   2.985  17.450  0.00  0.00    +0.000 A 
ATOM     22  C   UNL     1       3.714   2.591  18.000  0.00  0.00    +0.000 A 
ATOM     23  C   UNL     1       4.427   3.436  18.846  0.00  0.00    +0.000 A 
ATOM     24  C   UNL     1       3.886   4.677  19.176  0.00  0.00    +0.000 A 
BRANCH  22  25
ATOM     25  O   UNL     1       4.237   1.359  17.736  0.00  0.00    +0.000 OA
ATOM     26  H   UNL     1       5.068   1.271  18.234  0.00  0.00    +0.000 HD
ENDBRANCH  22  25
BRANCH  24  27
ATOM     27  O   UNL     1       4.557   5.520  20.026  0.00  0.00    +0.000 OA
ATOM     28  H   UNL     1       3.898   6.041  20.516  0.00  0.00    +0.000 HD
ENDBRANCH  24  27
ENDBRANCH   3  19
TORSDOF 6
ENDMDL
MODEL 6
REMARK VINA RESULT:      -7.6      0.982      1.309
REMARK  Name = 
REMARK  6 active torsions:
REMARK  status: ('A' for Active; 'I' for Inactive)
REMARK    1  A    between atoms: C_2  and  C_12
REMARK    2  A    between atoms: N_3  and  C_4
REMARK    3  A    between atoms: C_7  and  O_8
REMARK    4  A    between atoms: C_10  and  O_11
REMARK    5  A    between atoms: C_18  and  O_19
REMARK    6  A    between atoms: C_22  and  O_23
REMARK                            x       y       z     vdW  Elec       q    Type
REMARK                         _______ _______ _______ _____ _____    ______ ____
ROOT
ATOM      1  O   UNL     1       6.210   4.256  19.095  0.00  0.00    +0.000 OA
ATOM      2  C   UNL     1       5.506   4.212  18.087  0.00  0.00    +0.000 C 
ATOM      3  N   UNL     1       4.164   3.901  18.056  0.00  0.00    +0.000 N 
ATOM      4  H   UNL     1       3.731   3.762  17.142  0.00  0.00    +0.000 HD
ENDROOT
BRANCH   2   5
ATOM      5  C   UNL     1       6.162   4.495  16.780  0.00  0.00    +0.000 A 
ATOM      6  C   UNL     1       5.736   3.716  15.691  0.00  0.00    +0.000 A 
ATOM      7  C   UNL     1       6.218   3.947  14.398  0.00  0.00    +0.000 A 
ATOM      8  C   UNL     1       5.755   3.181  13.317  0.00  0.00    +0.000 A 
ATOM      9  C   UNL     1       6.210   3.430  12.023  0.00  0.00    +0.000 A 
ATOM     10  C   UNL     1       7.145   4.436  11.796  0.00  0.00    +0.000 A 
ATOM     11  C   UNL     1       7.623   5.190  12.869  0.00  0.00    +0.000 A 
ATOM     12  C   UNL     1       7.165   4.973  14.182  0.00  0.00    +0.000 A 
ATOM     13  C   UNL     1       7.603   5.738  15.284  0.00  0.00    +0.000 A 
ATOM     14  C   UNL     1       7.096   5.509  16.566  0.00  0.00    +0.000 A 
BRANCH  11  15
ATOM     15  O   UNL     1       8.553   6.173  12.645  0.00  0.00    +0.000 OA
ATOM     16  H   UNL     1       9.249   6.099  13.317  0.00  0.00    +0.000 HD
ENDBRANCH  11  15
BRANCH  14  17
ATOM     17  O   UNL     1       7.521   6.301  17.598  0.00  0.00    +0.000 OA
ATOM     18  H   UNL     1       8.327   5.911  17.980  0.00  0.00    +0.000 HD
ENDBRANCH  14  17
ENDBRANCH   2   5
BRANCH   3  19
ATOM     19  C   UNL     1       3.367   3.523  19.156  0.00  0.00    +0.000 A 
ATOM     20  C   UNL     1       2.828   2.242  19.305  0.00  0.00    +0.000 A 
ATOM     21  C   UNL     1       1.958   1.954  20.357  0.00  0.00    +0.000 A 
ATOM     22  C   UNL     1       1.643   2.949  21.273  0.00  0.00    +0.000 A 
ATOM     23  C   UNL     1       2.214   4.216  21.182  0.00  0.00    +0.000 A 
ATOM     24  C   UNL     1       3.079   4.493  20.125  0.00  0.00    +0.000 A 
BRANCH  22  25
ATOM     25  O   UNL     1       0.757   2.718  22.284  0.00  0.00    +0.000 OA
ATOM     26  H   UNL     1       0.046   2.152  21.937  0.00  0.00    +0.000 HD
ENDBRANCH  22  25
BRANCH  24  27
ATOM     27  O   UNL     1       3.638   5.740  19.998  0.00  0.00    +0.000 OA
ATOM     28  H   UNL     1       4.113   5.773  19.151  0.00  0.00    +0.000 HD
ENDBRANCH  24  27
ENDBRANCH   3  19
TORSDOF 6
ENDMDL
MODEL 7
REMARK VINA RESULT:      -7.6      5.369      8.399
REMARK  Name = 
REMARK  6 active torsions:
REMARK  status: ('A' for Active; 'I' for Inactive)
REMARK    1  A    between atoms: C_2  and  C_12
REMARK    2  A    between atoms: N_3  and  C_4
REMARK    3  A    between atoms: C_7  and  O_8
REMARK    4  A    between atoms: C_10  and  O_11
REMARK    5  A    between atoms: C_18  and  O_19
REMARK    6  A    between atoms: C_22  and  O_23
REMARK                            x       y       z     vdW  Elec       q    Type
REMARK                         _______ _______ _______ _____ _____    ______ ____
ROOT
ATOM      1  O   UNL     1       2.867   7.404  18.103  0.00  0.00    +0.000 OA
ATOM      2  C   UNL     1       2.298   7.372  19.193  0.00  0.00    +0.000 C 
ATOM      3  N   UNL     1       2.329   6.324  20.088  0.00  0.00    +0.000 N 
ATOM      4  H   UNL     1       1.700   6.368  20.891  0.00  0.00    +0.000 HD
ENDROOT
BRANCH   2   5
ATOM      5  C   UNL     1       1.480   8.558  19.574  0.00  0.00    +0.000 A 
ATOM      6  C   UNL     1       0.918   8.537  20.862  0.00  0.00    +0.000 A 
ATOM      7  C   UNL     1       0.203   9.629  21.363  0.00  0.00    +0.000 A 
ATOM      8  C   UNL     1      -0.321   9.604  22.664  0.00  0.00    +0.000 A 
ATOM      9  C   UNL     1      -1.007  10.703  23.176  0.00  0.00    +0.000 A 
ATOM     10  C   UNL     1      -1.193  11.836  22.388  0.00  0.00    +0.000 A 
ATOM     11  C   UNL     1      -0.690  11.862  21.086  0.00  0.00    +0.000 A 
ATOM     12  C   UNL     1       0.024  10.773  20.552  0.00  0.00    +0.000 A 
ATOM     13  C   UNL     1       0.573  10.779  19.252  0.00  0.00    +0.000 A 
ATOM     14  C   UNL     1       1.305   9.688  18.776  0.00  0.00    +0.000 A 
BRANCH  11  15
ATOM     15  O   UNL     1      -0.884  12.974  20.307  0.00  0.00    +0.000 OA
ATOM     16  H   UNL     1      -1.833  13.181  20.295  0.00  0.00    +0.000 HD
ENDBRANCH  11  15
BRANCH  14  17
ATOM     17  O   UNL     1       1.852   9.754  17.522  0.00  0.00    +0.000 OA
ATOM     18  H   UNL     1       1.914  10.688  17.257  0.00  0.00    +0.000 HD
ENDBRANCH  14  17
ENDBRANCH   2   5
BRANCH   3  19
ATOM     19  C   UNL     1       2.967   5.081  19.898  0.00  0.00    +0.000 A 
ATOM     20  C   UNL     1       4.309   4.960  19.529  0.00  0.00    +0.000 A 
ATOM     21  C   UNL     1       4.860   3.708  19.250  0.00  0.00    +0.000 A 
ATOM     22  C   UNL     1       4.066   2.574  19.360  0.00  0.00    +0.000 A 
ATOM     23  C   UNL     1       2.743   2.663  19.785  0.00  0.00    +0.000 A 
ATOM     24  C   UNL     1       2.202   3.917  20.058  0.00  0.00    +0.000 A 
BRANCH  22  25
ATOM     25  O   UNL     1       4.557   1.341  19.046  0.00  0.00    +0.000 OA
ATOM     26  H   UNL     1       5.524   1.411  18.976  0.00  0.00    +0.000 HD
ENDBRANCH  22  25
BRANCH  24  27
ATOM     27  O   UNL     1       0.894   4.035  20.455  0.00  0.00    +0.000 OA
ATOM     28  H   UNL     1       0.349   3.491  19.863  0.00  0.00    +0.000 HD
ENDBRANCH  24  27
ENDBRANCH   3  19
TORSDOF 6
ENDMDL
MODEL 8
REMARK VINA RESULT:      -7.5      5.383      6.954
REMARK  Name = 
REMARK  6 active torsions:
REMARK  status: ('A' for Active; 'I' for Inactive)
REMARK    1  A    between atoms: C_2  and  C_12
REMARK    2  A    between atoms: N_3  and  C_4
REMARK    3  A    between atoms: C_7  and  O_8
REMARK    4  A    between atoms: C_10  and  O_11
REMARK    5  A    between atoms: C_18  and  O_19
REMARK    6  A    between atoms: C_22  and  O_23
REMARK                            x       y       z     vdW  Elec       q    Type
REMARK                         _______ _______ _______ _____ _____    ______ ____
ROOT
ATOM      1  O   UNL     1       1.769   8.305  20.655  0.00  0.00    +0.000 OA
ATOM      2  C   UNL     1       1.848   8.246  19.428  0.00  0.00    +0.000 C 
ATOM      3  N   UNL     1       1.350   9.178  18.544  0.00  0.00    +0.000 N 
ATOM      4  H   UNL     1       1.357   8.940  17.551  0.00  0.00    +0.000 HD
ENDROOT
BRANCH   2   5
ATOM      5  C   UNL     1       2.516   7.051  18.842  0.00  0.00    +0.000 A 
ATOM      6  C   UNL     1       3.371   7.290  17.753  0.00  0.00    +0.000 A 
ATOM      7  C   UNL     1       4.119   6.259  17.174  0.00  0.00    +0.000 A 
ATOM      8  C   UNL     1       4.995   6.523  16.110  0.00  0.00    +0.000 A 
ATOM      9  C   UNL     1       5.764   5.504  15.552  0.00  0.00    +0.000 A 
ATOM     10  C   UNL     1       5.655   4.204  16.039  0.00  0.00    +0.000 A 
ATOM     11  C   UNL     1       4.773   3.931  17.086  0.00  0.00    +0.000 A 
ATOM     12  C   UNL     1       4.000   4.946  17.681  0.00  0.00    +0.000 A 
ATOM     13  C   UNL     1       3.123   4.709  18.761  0.00  0.00    +0.000 A 
ATOM     14  C   UNL     1       2.400   5.754  19.342  0.00  0.00    +0.000 A 
BRANCH  11  15
ATOM     15  O   UNL     1       4.659   2.648  17.557  0.00  0.00    +0.000 OA
ATOM     16  H   UNL     1       4.177   2.668  18.399  0.00  0.00    +0.000 HD
ENDBRANCH  11  15
BRANCH  14  17
ATOM     17  O   UNL     1       1.591   5.484  20.413  0.00  0.00    +0.000 OA
ATOM     18  H   UNL     1       1.309   6.326  20.812  0.00  0.00    +0.000 HD
ENDBRANCH  14  17
ENDBRANCH   2   5
BRANCH   3  19
ATOM     19  C   UNL     1       0.615  10.335  18.873  0.00  0.00    +0.000 A 
ATOM     20  C   UNL     1      -0.639  10.295  19.486  0.00  0.00    +0.000 A 
ATOM     21  C   UNL     1      -1.369  11.467  19.691  0.00  0.00    +0.000 A 
ATOM     22  C   UNL     1      -0.830  12.684  19.295  0.00  0.00    +0.000 A 
ATOM     23  C   UNL     1       0.444  12.757  18.737  0.00  0.00    +0.000 A 
ATOM     24  C   UNL     1       1.162  11.581  18.534  0.00  0.00    +0.000 A 
BRANCH  22  25
ATOM     25  O   UNL     1      -1.536  13.842  19.433  0.00  0.00    +0.000 OA
ATOM     26  H   UNL     1      -1.310  14.233  20.295  0.00  0.00    +0.000 HD
ENDBRANCH  22  25
BRANCH  24  27
ATOM     27  O   UNL     1       2.410  11.622  17.964  0.00  0.00    +0.000 OA
ATOM     28  H   UNL     1       2.333  11.308  17.048  0.00  0.00    +0.000 HD
ENDBRANCH  24  27
ENDBRANCH   3  19
TORSDOF 6
ENDMDL
MODEL 9
REMARK VINA RESULT:      -7.4      5.437      6.814
REMARK  Name = 
REMARK  6 active torsions:
REMARK  status: ('A' for Active; 'I' for Inactive)
REMARK    1  A    between atoms: C_2  and  C_12
REMARK    2  A    between atoms: N_3  and  C_4
REMARK    3  A    between atoms: C_7  and  O_8
REMARK    4  A    between atoms: C_10  and  O_11
REMARK    5  A    between atoms: C_18  and  O_19
REMARK    6  A    between atoms: C_22  and  O_23
REMARK                            x       y       z     vdW  Elec       q    Type
REMARK                         _______ _______ _______ _____ _____    ______ ____
ROOT
ATOM      1  O   UNL     1       1.030   9.229  18.446  0.00  0.00    +0.000 OA
ATOM      2  C   UNL     1       1.503   8.603  19.393  0.00  0.00    +0.000 C 
ATOM      3  N   UNL     1       1.308   8.890  20.727  0.00  0.00    +0.000 N 
ATOM      4  H   UNL     1       1.871   8.379  21.408  0.00  0.00    +0.000 HD
ENDROOT
BRANCH   2   5
ATOM      5  C   UNL     1       2.388   7.447  19.076  0.00  0.00    +0.000 A 
ATOM      6  C   UNL     1       3.143   7.549  17.895  0.00  0.00    +0.000 A 
ATOM      7  C   UNL     1       4.071   6.566  17.537  0.00  0.00    +0.000 A 
ATOM      8  C   UNL     1       4.842   6.702  16.373  0.00  0.00    +0.000 A 
ATOM      9  C   UNL     1       5.789   5.739  16.030  0.00  0.00    +0.000 A 
ATOM     10  C   UNL     1       5.966   4.619  16.837  0.00  0.00    +0.000 A 
ATOM     11  C   UNL     1       5.190   4.468  17.989  0.00  0.00    +0.000 A 
ATOM     12  C   UNL     1       4.241   5.435  18.368  0.00  0.00    +0.000 A 
ATOM     13  C   UNL     1       3.464   5.329  19.541  0.00  0.00    +0.000 A 
ATOM     14  C   UNL     1       2.558   6.331  19.896  0.00  0.00    +0.000 A 
BRANCH  11  15
ATOM     15  O   UNL     1       5.358   3.358  18.776  0.00  0.00    +0.000 OA
ATOM     16  H   UNL     1       5.906   3.600  19.540  0.00  0.00    +0.000 HD
ENDBRANCH  11  15
BRANCH  14  17
ATOM     17  O   UNL     1       1.853   6.204  21.063  0.00  0.00    +0.000 OA
ATOM     18  H   UNL     1       1.210   6.932  21.121  0.00  0.00    +0.000 HD
ENDBRANCH  14  17
ENDBRANCH   2   5
BRANCH   3  19
ATOM     19  C   UNL     1       0.581   9.978  21.251  0.00  0.00    +0.000 A 
ATOM     20  C   UNL     1       0.820  11.304  20.884  0.00  0.00    +0.000 A 
ATOM     21  C   UNL     1       0.145  12.350  21.514  0.00  0.00    +0.000 A 
ATOM     22  C   UNL     1      -0.787  12.062  22.502  0.00  0.00    +0.000 A 
ATOM     23  C   UNL     1      -1.087  10.746  22.844  0.00  0.00    +0.000 A 
ATOM     24  C   UNL     1      -0.404   9.710  22.211  0.00  0.00    +0.000 A 
BRANCH  22  25
ATOM     25  O   UNL     1      -1.428  13.061  23.175  0.00  0.00    +0.000 OA
ATOM     26  H   UNL     1      -2.188  13.346  22.639  0.00  0.00    +0.000 HD
ENDBRANCH  22  25
BRANCH  24  27
ATOM     27  O   UNL     1      -0.664   8.405  22.545  0.00  0.00    +0.000 OA
ATOM     28  H   UNL     1      -0.320   7.837  21.835  0.00  0.00    +0.000 HD
ENDBRANCH  24  27
ENDBRANCH   3  19
TORSDOF 6
ENDMDL
