MODEL 1
REMARK VINA RESULT:      -8.8      0.000      0.000
REMARK  Name = 
REMARK  3 active torsions:
REMARK  status: ('A' for Active; 'I' for Inactive)
REMARK    1  A    between atoms: C_5  and  C_6
REMARK    2  A    between atoms: C_12  and  C_13
REMARK    3  A    between atoms: C_14  and  C_15
REMARK                            x       y       z     vdW  Elec       q    Type
REMARK                         _______ _______ _______ _____ _____    ______ ____
ROOT
ATOM      1  C   UNL     1       5.032   4.489  18.972  0.00  0.00    +0.000 A 
ATOM      2  N   UNL     1       5.320   3.184  18.835  0.00  0.00    +0.000 NA
ATOM      3  N   UNL     1       4.259   2.550  19.360  0.00  0.00    +0.000 N 
ATOM      4  C   UNL     1       3.274   3.379  19.817  0.00  0.00    +0.000 A 
ATOM      5  C   UNL     1       2.034   3.117  20.405  0.00  0.00    +0.000 A 
ATOM      6  C   UNL     1       1.243   4.220  20.754  0.00  0.00    +0.000 A 
ATOM      7  C   UNL     1       1.674   5.533  20.527  0.00  0.00    +0.000 A 
ATOM      8  C   UNL     1       2.914   5.752  19.909  0.00  0.00    +0.000 A 
ATOM      9  C   UNL     1       3.741   4.663  19.567  0.00  0.00    +0.000 A 
ATOM     10  H   UNL     1       4.266   1.536  19.372  0.00  0.00    +0.000 HD
ENDROOT
BRANCH   1  15
ATOM     11  F   UNL     1       8.554   8.522  17.321  0.00  0.00    +0.000 F 
ATOM     12  C   UNL     1       7.720   7.548  17.705  0.00  0.00    +0.000 A 
ATOM     13  C   UNL     1       6.495   7.400  17.066  0.00  0.00    +0.000 A 
ATOM     14  C   UNL     1       5.620   6.390  17.474  0.00  0.00    +0.000 A 
ATOM     15  C   UNL     1       5.969   5.524  18.522  0.00  0.00    +0.000 A 
ATOM     16  C   UNL     1       7.228   5.673  19.129  0.00  0.00    +0.000 A 
ATOM     17  C   UNL     1       8.096   6.692  18.732  0.00  0.00    +0.000 A 
ENDBRANCH   1  15
BRANCH   7  18
ATOM     18  C   UNL     1       0.863   6.716  20.852  0.00  0.00    +0.000 C 
ATOM     19  C   UNL     1       1.351   7.915  21.207  0.00  0.00    +0.000 C 
BRANCH  19  20
ATOM     20  C   UNL     1       0.500   9.082  21.490  0.00  0.00    +0.000 A 
ATOM     21  C   UNL     1       0.104   9.984  20.499  0.00  0.00    +0.000 A 
ATOM     22  C   UNL     1      -0.703  11.052  20.851  0.00  0.00    +0.000 A 
ATOM     23  N   UNL     1      -1.151  11.271  22.104  0.00  0.00    +0.000 NA
ATOM     24  C   UNL     1      -0.776  10.380  23.044  0.00  0.00    +0.000 A 
ATOM     25  C   UNL     1       0.032   9.282  22.792  0.00  0.00    +0.000 A 
ENDBRANCH  19  20
ENDBRANCH   7  18
TORSDOF 3
ENDMDL
MODEL 2
REMARK VINA RESULT:      -8.7      0.072      1.377
REMARK  Name = 
REMARK  3 active torsions:
REMARK  status: ('A' for Active; 'I' for Inactive)
REMARK    1  A    between atoms: C_5  and  C_6
REMARK    2  A    between atoms: C_12  and  C_13
REMARK    3  A    between atoms: C_14  and  C_15
REMARK                            x       y       z     vdW  Elec       q    Type
REMARK                         _______ _______ _______ _____ _____    ______ ____
ROOT
ATOM      1  C   UNL     1       4.994   4.510  18.944  0.00  0.00    +0.000 A 
ATOM      2  N   UNL     1       5.279   3.213  18.742  0.00  0.00    +0.000 NA
ATOM      3  N   UNL     1       4.225   2.555  19.250  0.00  0.00    +0.000 N 
ATOM      4  C   UNL     1       3.246   3.362  19.758  0.00  0.00    +0.000 A 
ATOM      5  C   UNL     1       2.014   3.072  20.348  0.00  0.00    +0.000 A 
ATOM      6  C   UNL     1       1.227   4.158  20.759  0.00  0.00    +0.000 A 
ATOM      7  C   UNL     1       1.657   5.480  20.589  0.00  0.00    +0.000 A 
ATOM      8  C   UNL     1       2.889   5.727  19.967  0.00  0.00    +0.000 A 
ATOM      9  C   UNL     1       3.710   4.655  19.563  0.00  0.00    +0.000 A 
ATOM     10  H   UNL     1       4.231   1.542  19.214  0.00  0.00    +0.000 HD
ENDROOT
BRANCH   1  15
ATOM     11  F   UNL     1       8.613   8.459  17.296  0.00  0.00    +0.000 F 
ATOM     12  C   UNL     1       7.741   7.526  17.701  0.00  0.00    +0.000 A 
ATOM     13  C   UNL     1       8.081   6.672  18.742  0.00  0.00    +0.000 A 
ATOM     14  C   UNL     1       7.176   5.692  19.157  0.00  0.00    +0.000 A 
ATOM     15  C   UNL     1       5.926   5.565  18.531  0.00  0.00    +0.000 A 
ATOM     16  C   UNL     1       5.592   6.463  17.503  0.00  0.00    +0.000 A 
ATOM     17  C   UNL     1       6.503   7.433  17.078  0.00  0.00    +0.000 A 
ENDBRANCH   1  15
BRANCH   7  18
ATOM     18  C   UNL     1       0.851   6.646  20.979  0.00  0.00    +0.000 C 
ATOM     19  C   UNL     1       1.312   7.901  21.096  0.00  0.00    +0.000 C 
BRANCH  19  20
ATOM     20  C   UNL     1       0.459   9.045  21.457  0.00  0.00    +0.000 A 
ATOM     21  C   UNL     1       0.001   9.260  22.760  0.00  0.00    +0.000 A 
ATOM     22  C   UNL     1      -0.794  10.365  23.014  0.00  0.00    +0.000 A 
ATOM     23  N   UNL     1      -1.145  11.268  22.076  0.00  0.00    +0.000 NA
ATOM     24  C   UNL     1      -0.677  11.056  20.829  0.00  0.00    +0.000 A 
ATOM     25  C   UNL     1       0.120   9.978  20.474  0.00  0.00    +0.000 A 
ENDBRANCH  19  20
ENDBRANCH   7  18
TORSDOF 3
ENDMDL
MODEL 3
REMARK VINA RESULT:      -8.7      1.830      2.245
REMARK  Name = 
REMARK  3 active torsions:
REMARK  status: ('A' for Active; 'I' for Inactive)
REMARK    1  A    between atoms: C_5  and  C_6
REMARK    2  A    between atoms: C_12  and  C_13
REMARK    3  A    between atoms: C_14  and  C_15
REMARK                            x       y       z     vdW  Elec       q    Type
REMARK                         _______ _______ _______ _____ _____    ______ ____
ROOT
ATOM      1  C   UNL     1       3.917   3.207  17.849  0.00  0.00    +0.000 A 
ATOM      2  N   UNL     1       3.678   1.885  17.820  0.00  0.00    +0.000 NA
ATOM      3  N   UNL     1       2.708   1.699  18.730  0.00  0.00    +0.000 N 
ATOM      4  C   UNL     1       2.280   2.845  19.341  0.00  0.00    +0.000 A 
ATOM      5  C   UNL     1       1.301   3.073  20.311  0.00  0.00    +0.000 A 
ATOM      6  C   UNL     1       1.100   4.398  20.722  0.00  0.00    +0.000 A 
ATOM      7  C   UNL     1       1.850   5.452  20.188  0.00  0.00    +0.000 A 
ATOM      8  C   UNL     1       2.805   5.184  19.196  0.00  0.00    +0.000 A 
ATOM      9  C   UNL     1       3.043   3.859  18.779  0.00  0.00    +0.000 A 
ATOM     10  H   UNL     1       2.372   0.756  18.885  0.00  0.00    +0.000 HD
ENDROOT
BRANCH   1  15
ATOM     11  F   UNL     1       7.887   5.410  14.565  0.00  0.00    +0.000 F 
ATOM     12  C   UNL     1       6.931   4.899  15.351  0.00  0.00    +0.000 A 
ATOM     13  C   UNL     1       7.129   4.839  16.725  0.00  0.00    +0.000 A 
ATOM     14  C   UNL     1       6.137   4.295  17.544  0.00  0.00    +0.000 A 
ATOM     15  C   UNL     1       4.941   3.811  16.990  0.00  0.00    +0.000 A 
ATOM     16  C   UNL     1       4.751   3.915  15.601  0.00  0.00    +0.000 A 
ATOM     17  C   UNL     1       5.749   4.444  14.781  0.00  0.00    +0.000 A 
ENDBRANCH   1  15
BRANCH   7  18
ATOM     18  C   UNL     1       1.651   6.858  20.570  0.00  0.00    +0.000 C 
ATOM     19  C   UNL     1       0.484   7.397  20.955  0.00  0.00    +0.000 C 
BRANCH  19  20
ATOM     20  C   UNL     1       0.340   8.805  21.362  0.00  0.00    +0.000 A 
ATOM     21  C   UNL     1       0.857   9.863  20.610  0.00  0.00    +0.000 A 
ATOM     22  C   UNL     1       0.672  11.158  21.062  0.00  0.00    +0.000 A 
ATOM     23  N   UNL     1      -0.000  11.469  22.189  0.00  0.00    +0.000 NA
ATOM     24  C   UNL     1      -0.510  10.437  22.893  0.00  0.00    +0.000 A 
ATOM     25  C   UNL     1      -0.374   9.107  22.525  0.00  0.00    +0.000 A 
ENDBRANCH  19  20
ENDBRANCH   7  18
TORSDOF 3
ENDMDL
MODEL 4
REMARK VINA RESULT:      -8.6      0.453      1.005
REMARK  Name = 
REMARK  3 active torsions:
REMARK  status: ('A' for Active; 'I' for Inactive)
REMARK    1  A    between atoms: C_5  and  C_6
REMARK    2  A    between atoms: C_12  and  C_13
REMARK    3  A    between atoms: C_14  and  C_15
REMARK                            x       y       z     vdW  Elec       q    Type
REMARK                         _______ _______ _______ _____ _____    ______ ____
ROOT
ATOM      1  C   UNL     1       4.768   4.574  18.688  0.00  0.00    +0.000 A 
ATOM      2  N   UNL     1       4.912   3.286  18.330  0.00  0.00    +0.000 NA
ATOM      3  N   UNL     1       3.814   2.680  18.809  0.00  0.00    +0.000 N 
ATOM      4  C   UNL     1       2.941   3.515  19.448  0.00  0.00    +0.000 A 
ATOM      5  C   UNL     1       1.706   3.281  20.058  0.00  0.00    +0.000 A 
ATOM      6  C   UNL     1       1.049   4.384  20.622  0.00  0.00    +0.000 A 
ATOM      7  C   UNL     1       1.606   5.668  20.581  0.00  0.00    +0.000 A 
ATOM      8  C   UNL     1       2.834   5.864  19.934  0.00  0.00    +0.000 A 
ATOM      9  C   UNL     1       3.528   4.771  19.377  0.00  0.00    +0.000 A 
ATOM     10  H   UNL     1       3.715   1.683  18.661  0.00  0.00    +0.000 HD
ENDROOT
BRANCH   1  15
ATOM     11  F   UNL     1       8.610   8.470  17.480  0.00  0.00    +0.000 F 
ATOM     12  C   UNL     1       7.699   7.528  17.758  0.00  0.00    +0.000 A 
ATOM     13  C   UNL     1       6.500   7.503  17.056  0.00  0.00    +0.000 A 
ATOM     14  C   UNL     1       5.546   6.527  17.353  0.00  0.00    +0.000 A 
ATOM     15  C   UNL     1       5.788   5.572  18.353  0.00  0.00    +0.000 A 
ATOM     16  C   UNL     1       7.023   5.599  19.025  0.00  0.00    +0.000 A 
ATOM     17  C   UNL     1       7.971   6.584  18.739  0.00  0.00    +0.000 A 
ENDBRANCH   1  15
BRANCH   7  18
ATOM     18  C   UNL     1       0.937   6.855  21.134  0.00  0.00    +0.000 C 
ATOM     19  C   UNL     1       1.328   8.124  20.941  0.00  0.00    +0.000 C 
BRANCH  19  20
ATOM     20  C   UNL     1       0.606   9.285  21.489  0.00  0.00    +0.000 A 
ATOM     21  C   UNL     1      -0.193   9.202  22.632  0.00  0.00    +0.000 A 
ATOM     22  C   UNL     1      -0.833  10.344  23.083  0.00  0.00    +0.000 A 
ATOM     23  N   UNL     1      -0.719  11.550  22.491  0.00  0.00    +0.000 NA
ATOM     24  C   UNL     1       0.072  11.616  21.401  0.00  0.00    +0.000 A 
ATOM     25  C   UNL     1       0.751  10.529  20.871  0.00  0.00    +0.000 A 
ENDBRANCH  19  20
ENDBRANCH   7  18
TORSDOF 3
ENDMDL
MODEL 5
REMARK VINA RESULT:      -8.5      1.844      2.246
REMARK  Name = 
REMARK  3 active torsions:
REMARK  status: ('A' for Active; 'I' for Inactive)
REMARK    1  A    between atoms: C_5  and  C_6
REMARK    2  A    between atoms: C_12  and  C_13
REMARK    3  A    between atoms: C_14  and  C_15
REMARK                            x       y       z     vdW  Elec       q    Type
REMARK                         _______ _______ _______ _____ _____    ______ ____
ROOT
ATOM      1  C   UNL     1       3.945   3.168  17.839  0.00  0.00    +0.000 A 
ATOM      2  N   UNL     1       3.753   1.838  17.872  0.00  0.00    +0.000 NA
ATOM      3  N   UNL     1       2.782   1.662  18.782  0.00  0.00    +0.000 N 
ATOM      4  C   UNL     1       2.308   2.819  19.334  0.00  0.00    +0.000 A 
ATOM      5  C   UNL     1       1.312   3.058  20.284  0.00  0.00    +0.000 A 
ATOM      6  C   UNL     1       1.061   4.393  20.629  0.00  0.00    +0.000 A 
ATOM      7  C   UNL     1       1.778   5.447  20.051  0.00  0.00    +0.000 A 
ATOM      8  C   UNL     1       2.750   5.165  19.081  0.00  0.00    +0.000 A 
ATOM      9  C   UNL     1       3.040   3.831  18.729  0.00  0.00    +0.000 A 
ATOM     10  H   UNL     1       2.478   0.716  18.980  0.00  0.00    +0.000 HD
ENDROOT
BRANCH   1  15
ATOM     11  F   UNL     1       7.740   5.560  14.482  0.00  0.00    +0.000 F 
ATOM     12  C   UNL     1       6.841   4.973  15.282  0.00  0.00    +0.000 A 
ATOM     13  C   UNL     1       5.684   4.431  14.737  0.00  0.00    +0.000 A 
ATOM     14  C   UNL     1       4.742   3.829  15.574  0.00  0.00    +0.000 A 
ATOM     15  C   UNL     1       4.954   3.766  16.960  0.00  0.00    +0.000 A 
ATOM     16  C   UNL     1       6.149   4.292  17.483  0.00  0.00    +0.000 A 
ATOM     17  C   UNL     1       7.084   4.908  16.648  0.00  0.00    +0.000 A 
ENDBRANCH   1  15
BRANCH   7  18
ATOM     18  C   UNL     1       1.526   6.861  20.363  0.00  0.00    +0.000 C 
ATOM     19  C   UNL     1       0.581   7.311  21.204  0.00  0.00    +0.000 C 
BRANCH  19  20
ATOM     20  C   UNL     1       0.388   8.738  21.513  0.00  0.00    +0.000 A 
ATOM     21  C   UNL     1      -0.351   9.176  22.615  0.00  0.00    +0.000 A 
ATOM     22  C   UNL     1      -0.479  10.537  22.835  0.00  0.00    +0.000 A 
ATOM     23  N   UNL     1       0.086  11.479  22.052  0.00  0.00    +0.000 NA
ATOM     24  C   UNL     1       0.812  11.038  21.004  0.00  0.00    +0.000 A 
ATOM     25  C   UNL     1       0.995   9.698  20.698  0.00  0.00    +0.000 A 
ENDBRANCH  19  20
ENDBRANCH   7  18
TORSDOF 3
ENDMDL
MODEL 6
REMARK VINA RESULT:      -8.2      2.422      2.940
REMARK  Name = 
REMARK  3 active torsions:
REMARK  status: ('A' for Active; 'I' for Inactive)
REMARK    1  A    between atoms: C_5  and  C_6
REMARK    2  A    between atoms: C_12  and  C_13
REMARK    3  A    between atoms: C_14  and  C_15
REMARK                            x       y       z     vdW  Elec       q    Type
REMARK                         _______ _______ _______ _____ _____    ______ ____
ROOT
ATOM      1  C   UNL     1       4.262   3.850  18.283  0.00  0.00    +0.000 A 
ATOM      2  N   UNL     1       4.129   2.588  18.726  0.00  0.00    +0.000 NA
ATOM      3  N   UNL     1       3.233   2.675  19.722  0.00  0.00    +0.000 N 
ATOM      4  C   UNL     1       2.752   3.936  19.941  0.00  0.00    +0.000 A 
ATOM      5  C   UNL     1       1.817   4.430  20.853  0.00  0.00    +0.000 A 
ATOM      6  C   UNL     1       1.535   5.803  20.804  0.00  0.00    +0.000 A 
ATOM      7  C   UNL     1       2.165   6.648  19.882  0.00  0.00    +0.000 A 
ATOM      8  C   UNL     1       3.077   6.106  18.966  0.00  0.00    +0.000 A 
ATOM      9  C   UNL     1       3.396   4.734  19.005  0.00  0.00    +0.000 A 
ATOM     10  H   UNL     1       2.983   1.827  20.216  0.00  0.00    +0.000 HD
ENDROOT
BRANCH   1  15
ATOM     11  F   UNL     1       7.728   5.208  14.095  0.00  0.00    +0.000 F 
ATOM     12  C   UNL     1       6.905   4.868  15.095  0.00  0.00    +0.000 A 
ATOM     13  C   UNL     1       5.604   4.473  14.811  0.00  0.00    +0.000 A 
ATOM     14  C   UNL     1       4.743   4.128  15.855  0.00  0.00    +0.000 A 
ATOM     15  C   UNL     1       5.181   4.176  17.188  0.00  0.00    +0.000 A 
ATOM     16  C   UNL     1       6.513   4.546  17.446  0.00  0.00    +0.000 A 
ATOM     17  C   UNL     1       7.369   4.906  16.404  0.00  0.00    +0.000 A 
ENDBRANCH   1  15
BRANCH   7  18
ATOM     18  C   UNL     1       1.878   8.086  19.779  0.00  0.00    +0.000 C 
ATOM     19  C   UNL     1       1.700   8.759  18.631  0.00  0.00    +0.000 C 
BRANCH  19  20
ATOM     20  C   UNL     1       1.380  10.195  18.578  0.00  0.00    +0.000 A 
ATOM     21  C   UNL     1       0.137  10.704  18.961  0.00  0.00    +0.000 A 
ATOM     22  C   UNL     1      -0.079  12.069  18.886  0.00  0.00    +0.000 A 
ATOM     23  N   UNL     1       0.853  12.953  18.475  0.00  0.00    +0.000 NA
ATOM     24  C   UNL     1       2.054  12.447  18.128  0.00  0.00    +0.000 A 
ATOM     25  C   UNL     1       2.365  11.096  18.166  0.00  0.00    +0.000 A 
ENDBRANCH  19  20
ENDBRANCH   7  18
TORSDOF 3
ENDMDL
MODEL 7
REMARK VINA RESULT:      -8.2      2.406      3.016
REMARK  Name = 
REMARK  3 active torsions:
REMARK  status: ('A' for Active; 'I' for Inactive)
REMARK    1  A    between atoms: C_5  and  C_6
REMARK    2  A    between atoms: C_12  and  C_13
REMARK    3  A    between atoms: C_14  and  C_15
REMARK                            x       y       z     vdW  Elec       q    Type
REMARK                         _______ _______ _______ _____ _____    ______ ____
ROOT
ATOM      1  C   UNL     1       4.318   3.953  18.284  0.00  0.00    +0.000 A 
ATOM      2  N   UNL     1       4.224   2.692  18.740  0.00  0.00    +0.000 NA
ATOM      3  N   UNL     1       3.343   2.765  19.750  0.00  0.00    +0.000 N 
ATOM      4  C   UNL     1       2.834   4.015  19.967  0.00  0.00    +0.000 A 
ATOM      5  C   UNL     1       1.903   4.494  20.891  0.00  0.00    +0.000 A 
ATOM      6  C   UNL     1       1.586   5.859  20.836  0.00  0.00    +0.000 A 
ATOM      7  C   UNL     1       2.179   6.711  19.896  0.00  0.00    +0.000 A 
ATOM      8  C   UNL     1       3.088   6.184  18.968  0.00  0.00    +0.000 A 
ATOM      9  C   UNL     1       3.442   4.821  19.014  0.00  0.00    +0.000 A 
ATOM     10  H   UNL     1       3.123   1.915  20.256  0.00  0.00    +0.000 HD
ENDROOT
BRANCH   1  15
ATOM     11  F   UNL     1       7.761   5.133  14.024  0.00  0.00    +0.000 F 
ATOM     12  C   UNL     1       6.934   4.867  15.044  0.00  0.00    +0.000 A 
ATOM     13  C   UNL     1       7.423   4.869  16.344  0.00  0.00    +0.000 A 
ATOM     14  C   UNL     1       6.562   4.581  17.406  0.00  0.00    +0.000 A 
ATOM     15  C   UNL     1       5.209   4.292  17.170  0.00  0.00    +0.000 A 
ATOM     16  C   UNL     1       4.732   4.330  15.848  0.00  0.00    +0.000 A 
ATOM     17  C   UNL     1       5.595   4.602  14.785  0.00  0.00    +0.000 A 
ENDBRANCH   1  15
BRANCH   7  18
ATOM     18  C   UNL     1       1.853   8.141  19.786  0.00  0.00    +0.000 C 
ATOM     19  C   UNL     1       1.657   8.803  18.635  0.00  0.00    +0.000 C 
BRANCH  19  20
ATOM     20  C   UNL     1       1.299  10.230  18.574  0.00  0.00    +0.000 A 
ATOM     21  C   UNL     1       2.232  11.228  18.283  0.00  0.00    +0.000 A 
ATOM     22  C   UNL     1       1.809  12.546  18.241  0.00  0.00    +0.000 A 
ATOM     23  N   UNL     1       0.534  12.930  18.450  0.00  0.00    +0.000 NA
ATOM     24  C   UNL     1      -0.358  11.952  18.710  0.00  0.00    +0.000 A 
ATOM     25  C   UNL     1      -0.031  10.606  18.778  0.00  0.00    +0.000 A 
ENDBRANCH  19  20
ENDBRANCH   7  18
TORSDOF 3
ENDMDL
MODEL 8
REMARK VINA RESULT:      -8.2      1.869      2.300
REMARK  Name = 
REMARK  3 active torsions:
REMARK  status: ('A' for Active; 'I' for Inactive)
REMARK    1  A    between atoms: C_5  and  C_6
REMARK    2  A    between atoms: C_12  and  C_13
REMARK    3  A    between atoms: C_14  and  C_15
REMARK                            x       y       z     vdW  Elec       q    Type
REMARK                         _______ _______ _______ _____ _____    ______ ____
ROOT
ATOM      1  C   UNL     1       4.283   3.740  18.310  0.00  0.00    +0.000 A 
ATOM      2  N   UNL     1       4.195   2.451  18.680  0.00  0.00    +0.000 NA
ATOM      3  N   UNL     1       3.316   2.452  19.695  0.00  0.00    +0.000 N 
ATOM      4  C   UNL     1       2.803   3.683  19.996  0.00  0.00    +0.000 A 
ATOM      5  C   UNL     1       1.872   4.095  20.952  0.00  0.00    +0.000 A 
ATOM      6  C   UNL     1       1.549   5.459  20.989  0.00  0.00    +0.000 A 
ATOM      7  C   UNL     1       2.136   6.375  20.107  0.00  0.00    +0.000 A 
ATOM      8  C   UNL     1       3.045   5.915  19.144  0.00  0.00    +0.000 A 
ATOM      9  C   UNL     1       3.405   4.553  19.097  0.00  0.00    +0.000 A 
ATOM     10  H   UNL     1       3.102   1.570  20.144  0.00  0.00    +0.000 HD
ENDROOT
BRANCH   1  15
ATOM     11  F   UNL     1       7.717   5.219  14.137  0.00  0.00    +0.000 F 
ATOM     12  C   UNL     1       6.891   4.881  15.135  0.00  0.00    +0.000 A 
ATOM     13  C   UNL     1       7.359   4.879  16.443  0.00  0.00    +0.000 A 
ATOM     14  C   UNL     1       6.500   4.517  17.484  0.00  0.00    +0.000 A 
ATOM     15  C   UNL     1       5.170   4.156  17.219  0.00  0.00    +0.000 A 
ATOM     16  C   UNL     1       4.712   4.199  15.890  0.00  0.00    +0.000 A 
ATOM     17  C   UNL     1       5.574   4.546  14.849  0.00  0.00    +0.000 A 
ENDBRANCH   1  15
BRANCH   7  18
ATOM     18  C   UNL     1       1.804   7.807  20.093  0.00  0.00    +0.000 C 
ATOM     19  C   UNL     1       0.908   8.401  20.896  0.00  0.00    +0.000 C 
BRANCH  19  20
ATOM     20  C   UNL     1       0.632   9.848  20.869  0.00  0.00    +0.000 A 
ATOM     21  C   UNL     1       0.976  10.658  19.784  0.00  0.00    +0.000 A 
ATOM     22  C   UNL     1       0.675  12.009  19.838  0.00  0.00    +0.000 A 
ATOM     23  N   UNL     1       0.048  12.596  20.878  0.00  0.00    +0.000 NA
ATOM     24  C   UNL     1      -0.294  11.795  21.908  0.00  0.00    +0.000 A 
ATOM     25  C   UNL     1      -0.032  10.433  21.949  0.00  0.00    +0.000 A 
ENDBRANCH  19  20
ENDBRANCH   7  18
TORSDOF 3
ENDMDL
MODEL 9
REMARK VINA RESULT:      -8.2      1.989      2.471
REMARK  Name = 
REMARK  3 active torsions:
REMARK  status: ('A' for Active; 'I' for Inactive)
REMARK    1  A    between atoms: C_5  and  C_6
REMARK    2  A    between atoms: C_12  and  C_13
REMARK    3  A    between atoms: C_14  and  C_15
REMARK                            x       y       z     vdW  Elec       q    Type
REMARK                         _______ _______ _______ _____ _____    ______ ____
ROOT
ATOM      1  C   UNL     1       4.347   3.856  18.374  0.00  0.00    +0.000 A 
ATOM      2  N   UNL     1       4.271   2.606  18.861  0.00  0.00    +0.000 NA
ATOM      3  N   UNL     1       3.389   2.692  19.869  0.00  0.00    +0.000 N 
ATOM      4  C   UNL     1       2.861   3.939  20.054  0.00  0.00    +0.000 A 
ATOM      5  C   UNL     1       1.922   4.428  20.965  0.00  0.00    +0.000 A 
ATOM      6  C   UNL     1       1.585   5.786  20.875  0.00  0.00    +0.000 A 
ATOM      7  C   UNL     1       2.166   6.623  19.914  0.00  0.00    +0.000 A 
ATOM      8  C   UNL     1       3.084   6.086  19.001  0.00  0.00    +0.000 A 
ATOM      9  C   UNL     1       3.458   4.729  19.081  0.00  0.00    +0.000 A 
ATOM     10  H   UNL     1       3.181   1.852  20.396  0.00  0.00    +0.000 HD
ENDROOT
BRANCH   1  15
ATOM     11  F   UNL     1       7.691   5.206  14.085  0.00  0.00    +0.000 F 
ATOM     12  C   UNL     1       6.897   4.867  15.109  0.00  0.00    +0.000 A 
ATOM     13  C   UNL     1       5.599   4.439  14.861  0.00  0.00    +0.000 A 
ATOM     14  C   UNL     1       4.769   4.096  15.931  0.00  0.00    +0.000 A 
ATOM     15  C   UNL     1       5.235   4.180  17.252  0.00  0.00    +0.000 A 
ATOM     16  C   UNL     1       6.563   4.584  17.474  0.00  0.00    +0.000 A 
ATOM     17  C   UNL     1       7.389   4.941  16.406  0.00  0.00    +0.000 A 
ENDBRANCH   1  15
BRANCH   7  18
ATOM     18  C   UNL     1       1.820   8.044  19.768  0.00  0.00    +0.000 C 
ATOM     19  C   UNL     1       1.057   8.746  20.620  0.00  0.00    +0.000 C 
BRANCH  19  20
ATOM     20  C   UNL     1       0.764  10.179  20.449  0.00  0.00    +0.000 A 
ATOM     21  C   UNL     1       0.257  10.971  21.482  0.00  0.00    +0.000 A 
ATOM     22  C   UNL     1       0.015  12.313  21.238  0.00  0.00    +0.000 A 
ATOM     23  N   UNL     1       0.257  12.914  20.055  0.00  0.00    +0.000 NA
ATOM     24  C   UNL     1       0.765  12.139  19.076  0.00  0.00    +0.000 A 
ATOM     25  C   UNL     1       1.037  10.787  19.221  0.00  0.00    +0.000 A 
ENDBRANCH  19  20
ENDBRANCH   7  18
TORSDOF 3
ENDMDL
