MODEL 1
REMARK VINA RESULT:      -8.6      0.000      0.000
REMARK  Name = 
REMARK  1 active torsions:
REMARK  status: ('A' for Active; 'I' for Inactive)
REMARK    1  A    between atoms: C_4  and  N_5
REMARK                            x       y       z     vdW  Elec       q    Type
REMARK                         _______ _______ _______ _____ _____    ______ ____
ROOT
ATOM      1  N   UNL     1       2.795   4.177  18.189  0.00  0.00    +0.000 N 
ATOM      2  C   UNL     1       3.903   5.011  17.936  0.00  0.00    +0.000 A 
ATOM      3  N   UNL     1       5.044   4.365  17.569  0.00  0.00    +0.000 NA
ATOM      4  C   UNL     1       5.996   5.217  17.114  0.00  0.00    +0.000 A 
ATOM      5  N   UNL     1       7.206   4.885  16.662  0.00  0.00    +0.000 NA
ATOM      6  O   UNL     1       7.791   6.099  16.303  0.00  0.00    +0.000 OA
ATOM      7  N   UNL     1       6.946   7.181  16.542  0.00  0.00    +0.000 NA
ATOM      8  C   UNL     1       5.836   6.636  17.044  0.00  0.00    +0.000 A 
ATOM      9  N   UNL     1       4.723   7.299  17.441  0.00  0.00    +0.000 NA
ATOM     10  C   UNL     1       3.745   6.471  17.905  0.00  0.00    +0.000 A 
ATOM     11  N   UNL     1       2.596   7.119  18.373  0.00  0.00    +0.000 N 
ATOM     12  C   UNL     1       2.209   8.385  17.729  0.00  0.00    +0.000 C 
ATOM     13  C   UNL     1       2.001   9.510  18.736  0.00  0.00    +0.000 C 
ATOM     14  C   UNL     1       1.036   9.072  19.827  0.00  0.00    +0.000 C 
ATOM     15  C   UNL     1       1.654   7.894  20.566  0.00  0.00    +0.000 C 
ATOM     16  C   UNL     1       1.970   6.728  19.638  0.00  0.00    +0.000 C 
ATOM     17  H   UNL     1       2.023   4.686  18.586  0.00  0.00    +0.000 HD
ENDROOT
BRANCH   1  21
ATOM     18  C   UNL     1       1.162   2.835  21.119  0.00  0.00    +0.000 C 
ATOM     19  C   UNL     1       2.457   3.640  21.170  0.00  0.00    +0.000 C 
ATOM     20  C   UNL     1       3.537   3.066  20.253  0.00  0.00    +0.000 C 
ATOM     21  C   UNL     1       3.052   2.866  18.806  0.00  0.00    +0.000 C 
ATOM     22  C   UNL     1       1.786   1.998  18.814  0.00  0.00    +0.000 C 
ATOM     23  C   UNL     1       0.683   2.585  19.692  0.00  0.00    +0.000 C 
ENDBRANCH   1  21
TORSDOF 1
ENDMDL
MODEL 2
REMARK VINA RESULT:      -8.0      2.348      4.684
REMARK  Name = 
REMARK  1 active torsions:
REMARK  status: ('A' for Active; 'I' for Inactive)
REMARK    1  A    between atoms: C_4  and  N_5
REMARK                            x       y       z     vdW  Elec       q    Type
REMARK                         _______ _______ _______ _____ _____    ______ ____
ROOT
ATOM      1  N   UNL     1       3.088   5.358  20.297  0.00  0.00    +0.000 N 
ATOM      2  C   UNL     1       2.749   6.447  19.467  0.00  0.00    +0.000 A 
ATOM      3  N   UNL     1       1.789   7.277  19.961  0.00  0.00    +0.000 NA
ATOM      4  C   UNL     1       1.675   8.420  19.241  0.00  0.00    +0.000 A 
ATOM      5  N   UNL     1       0.844   9.433  19.488  0.00  0.00    +0.000 NA
ATOM      6  O   UNL     1       1.117  10.364  18.486  0.00  0.00    +0.000 OA
ATOM      7  N   UNL     1       2.110   9.920  17.614  0.00  0.00    +0.000 NA
ATOM      8  C   UNL     1       2.455   8.718  18.080  0.00  0.00    +0.000 A 
ATOM      9  N   UNL     1       3.386   7.888  17.552  0.00  0.00    +0.000 NA
ATOM     10  C   UNL     1       3.526   6.727  18.252  0.00  0.00    +0.000 A 
ATOM     11  N   UNL     1       4.442   5.818  17.712  0.00  0.00    +0.000 N 
ATOM     12  C   UNL     1       5.607   6.360  16.994  0.00  0.00    +0.000 C 
ATOM     13  C   UNL     1       5.763   5.761  15.601  0.00  0.00    +0.000 C 
ATOM     14  C   UNL     1       5.755   4.242  15.674  0.00  0.00    +0.000 C 
ATOM     15  C   UNL     1       4.408   3.798  16.225  0.00  0.00    +0.000 C 
ATOM     16  C   UNL     1       4.116   4.395  17.595  0.00  0.00    +0.000 C 
ATOM     17  H   UNL     1       3.695   4.704  19.832  0.00  0.00    +0.000 HD
ENDROOT
BRANCH   1  21
ATOM     18  C   UNL     1       1.695   2.059  19.822  0.00  0.00    +0.000 C 
ATOM     19  C   UNL     1       1.131   3.314  19.163  0.00  0.00    +0.000 C 
ATOM     20  C   UNL     1       0.819   4.416  20.177  0.00  0.00    +0.000 C 
ATOM     21  C   UNL     1       2.013   4.744  21.092  0.00  0.00    +0.000 C 
ATOM     22  C   UNL     1       2.494   3.456  21.776  0.00  0.00    +0.000 C 
ATOM     23  C   UNL     1       2.851   2.362  20.770  0.00  0.00    +0.000 C 
ENDBRANCH   1  21
TORSDOF 1
ENDMDL
MODEL 3
REMARK VINA RESULT:      -7.7      2.534      5.198
REMARK  Name = 
REMARK  1 active torsions:
REMARK  status: ('A' for Active; 'I' for Inactive)
REMARK    1  A    between atoms: C_4  and  N_5
REMARK                            x       y       z     vdW  Elec       q    Type
REMARK                         _______ _______ _______ _____ _____    ______ ____
ROOT
ATOM      1  N   UNL     1       4.747   6.263  18.820  0.00  0.00    +0.000 N 
ATOM      2  C   UNL     1       3.643   5.509  19.268  0.00  0.00    +0.000 A 
ATOM      3  N   UNL     1       3.835   4.161  19.300  0.00  0.00    +0.000 NA
ATOM      4  C   UNL     1       2.839   3.514  19.954  0.00  0.00    +0.000 A 
ATOM      5  N   UNL     1       2.757   2.201  20.171  0.00  0.00    +0.000 NA
ATOM      6  O   UNL     1       1.573   2.037  20.890  0.00  0.00    +0.000 OA
ATOM      7  N   UNL     1       0.920   3.249  21.108  0.00  0.00    +0.000 NA
ATOM      8  C   UNL     1       1.703   4.162  20.529  0.00  0.00    +0.000 A 
ATOM      9  N   UNL     1       1.475   5.497  20.473  0.00  0.00    +0.000 NA
ATOM     10  C   UNL     1       2.458   6.179  19.820  0.00  0.00    +0.000 A 
ATOM     11  N   UNL     1       2.238   7.555  19.695  0.00  0.00    +0.000 N 
ATOM     12  C   UNL     1       1.494   8.234  20.769  0.00  0.00    +0.000 C 
ATOM     13  C   UNL     1       0.316   9.043  20.239  0.00  0.00    +0.000 C 
ATOM     14  C   UNL     1       0.775   9.986  19.137  0.00  0.00    +0.000 C 
ATOM     15  C   UNL     1       1.320   9.149  17.989  0.00  0.00    +0.000 C 
ATOM     16  C   UNL     1       2.465   8.244  18.423  0.00  0.00    +0.000 C 
ATOM     17  H   UNL     1       4.511   7.232  18.684  0.00  0.00    +0.000 HD
ENDROOT
BRANCH   1  21
ATOM     18  C   UNL     1       8.137   7.222  18.020  0.00  0.00    +0.000 C 
ATOM     19  C   UNL     1       6.908   7.834  17.353  0.00  0.00    +0.000 C 
ATOM     20  C   UNL     1       5.981   6.774  16.755  0.00  0.00    +0.000 C 
ATOM     21  C   UNL     1       5.591   5.680  17.765  0.00  0.00    +0.000 C 
ATOM     22  C   UNL     1       6.866   5.059  18.353  0.00  0.00    +0.000 C 
ATOM     23  C   UNL     1       7.780   6.103  18.993  0.00  0.00    +0.000 C 
ENDBRANCH   1  21
TORSDOF 1
ENDMDL
MODEL 4
REMARK VINA RESULT:      -7.1      2.653      5.233
REMARK  Name = 
REMARK  1 active torsions:
REMARK  status: ('A' for Active; 'I' for Inactive)
REMARK    1  A    between atoms: C_4  and  N_5
REMARK                            x       y       z     vdW  Elec       q    Type
REMARK                         _______ _______ _______ _____ _____    ______ ____
ROOT
ATOM      1  N   UNL     1       4.977   5.510  18.938  0.00  0.00    +0.000 N 
ATOM      2  C   UNL     1       3.867   4.923  19.578  0.00  0.00    +0.000 A 
ATOM      3  N   UNL     1       3.998   3.600  19.869  0.00  0.00    +0.000 NA
ATOM      4  C   UNL     1       3.011   3.151  20.685  0.00  0.00    +0.000 A 
ATOM      5  N   UNL     1       2.880   1.913  21.163  0.00  0.00    +0.000 NA
ATOM      6  O   UNL     1       1.733   1.962  21.954  0.00  0.00    +0.000 OA
ATOM      7  N   UNL     1       1.150   3.229  21.956  0.00  0.00    +0.000 NA
ATOM      8  C   UNL     1       1.940   3.963  21.171  0.00  0.00    +0.000 A 
ATOM      9  N   UNL     1       1.772   5.271  20.859  0.00  0.00    +0.000 NA
ATOM     10  C   UNL     1       2.747   5.755  20.039  0.00  0.00    +0.000 A 
ATOM     11  N   UNL     1       2.585   7.090  19.652  0.00  0.00    +0.000 N 
ATOM     12  C   UNL     1       1.935   8.008  20.601  0.00  0.00    +0.000 C 
ATOM     13  C   UNL     1       0.768   8.762  19.976  0.00  0.00    +0.000 C 
ATOM     14  C   UNL     1       1.207   9.442  18.688  0.00  0.00    +0.000 C 
ATOM     15  C   UNL     1       1.647   8.366  17.706  0.00  0.00    +0.000 C 
ATOM     16  C   UNL     1       2.771   7.501  18.258  0.00  0.00    +0.000 C 
ATOM     17  H   UNL     1       4.779   6.446  18.622  0.00  0.00    +0.000 HD
ENDROOT
BRANCH   1  21
ATOM     18  C   UNL     1       6.856   6.707  16.093  0.00  0.00    +0.000 C 
ATOM     19  C   UNL     1       5.391   6.288  16.019  0.00  0.00    +0.000 C 
ATOM     20  C   UNL     1       5.159   4.879  16.568  0.00  0.00    +0.000 C 
ATOM     21  C   UNL     1       5.733   4.684  17.983  0.00  0.00    +0.000 C 
ATOM     22  C   UNL     1       7.221   5.059  17.979  0.00  0.00    +0.000 C 
ATOM     23  C   UNL     1       7.462   6.481  17.475  0.00  0.00    +0.000 C 
ENDBRANCH   1  21
TORSDOF 1
ENDMDL
MODEL 5
REMARK VINA RESULT:      -7.0      2.918      4.018
REMARK  Name = 
REMARK  1 active torsions:
REMARK  status: ('A' for Active; 'I' for Inactive)
REMARK    1  A    between atoms: C_4  and  N_5
REMARK                            x       y       z     vdW  Elec       q    Type
REMARK                         _______ _______ _______ _____ _____    ______ ____
ROOT
ATOM      1  N   UNL     1       4.360   4.324  17.205  0.00  0.00    +0.000 N 
ATOM      2  C   UNL     1       5.330   4.428  16.187  0.00  0.00    +0.000 A 
ATOM      3  N   UNL     1       5.104   3.656  15.089  0.00  0.00    +0.000 NA
ATOM      4  C   UNL     1       5.929   3.970  14.059  0.00  0.00    +0.000 A 
ATOM      5  N   UNL     1       5.934   3.410  12.849  0.00  0.00    +0.000 NA
ATOM      6  O   UNL     1       6.941   4.082  12.156  0.00  0.00    +0.000 OA
ATOM      7  N   UNL     1       7.563   5.050  12.942  0.00  0.00    +0.000 NA
ATOM      8  C   UNL     1       6.938   4.981  14.118  0.00  0.00    +0.000 A 
ATOM      9  N   UNL     1       7.203   5.731  15.215  0.00  0.00    +0.000 NA
ATOM     10  C   UNL     1       6.392   5.440  16.271  0.00  0.00    +0.000 A 
ATOM     11  N   UNL     1       6.665   6.158  17.441  0.00  0.00    +0.000 N 
ATOM     12  C   UNL     1       7.188   7.527  17.303  0.00  0.00    +0.000 C 
ATOM     13  C   UNL     1       8.468   7.744  18.100  0.00  0.00    +0.000 C 
ATOM     14  C   UNL     1       8.268   7.320  19.547  0.00  0.00    +0.000 C 
ATOM     15  C   UNL     1       7.951   5.832  19.570  0.00  0.00    +0.000 C 
ATOM     16  C   UNL     1       6.720   5.488  18.742  0.00  0.00    +0.000 C 
ATOM     17  H   UNL     1       4.642   4.803  18.044  0.00  0.00    +0.000 HD
ENDROOT
BRANCH   1  21
ATOM     18  C   UNL     1       1.807   3.547  19.640  0.00  0.00    +0.000 C 
ATOM     19  C   UNL     1       3.302   3.410  19.913  0.00  0.00    +0.000 C 
ATOM     20  C   UNL     1       4.009   2.547  18.868  0.00  0.00    +0.000 C 
ATOM     21  C   UNL     1       3.738   3.009  17.425  0.00  0.00    +0.000 C 
ATOM     22  C   UNL     1       2.222   3.066  17.190  0.00  0.00    +0.000 C 
ATOM     23  C   UNL     1       1.509   3.961  18.202  0.00  0.00    +0.000 C 
ENDBRANCH   1  21
TORSDOF 1
ENDMDL
MODEL 6
REMARK VINA RESULT:      -6.8      9.037     10.692
REMARK  Name = 
REMARK  1 active torsions:
REMARK  status: ('A' for Active; 'I' for Inactive)
REMARK    1  A    between atoms: C_4  and  N_5
REMARK                            x       y       z     vdW  Elec       q    Type
REMARK                         _______ _______ _______ _____ _____    ______ ____
ROOT
ATOM      1  N   UNL     1       9.857  12.941  20.932  0.00  0.00    +0.000 N 
ATOM      2  C   UNL     1       8.598  12.955  21.566  0.00  0.00    +0.000 A 
ATOM      3  N   UNL     1       8.354  11.903  22.396  0.00  0.00    +0.000 NA
ATOM      4  C   UNL     1       7.242  12.088  23.149  0.00  0.00    +0.000 A 
ATOM      5  N   UNL     1       6.760  11.250  24.068  0.00  0.00    +0.000 NA
ATOM      6  O   UNL     1       5.627  11.892  24.567  0.00  0.00    +0.000 OA
ATOM      7  N   UNL     1       5.404  13.122  23.949  0.00  0.00    +0.000 NA
ATOM      8  C   UNL     1       6.403  13.242  23.073  0.00  0.00    +0.000 A 
ATOM      9  N   UNL     1       6.608  14.280  22.225  0.00  0.00    +0.000 NA
ATOM     10  C   UNL     1       7.719  14.126  21.451  0.00  0.00    +0.000 A 
ATOM     11  N   UNL     1       7.940  15.152  20.525  0.00  0.00    +0.000 N 
ATOM     12  C   UNL     1       7.510  16.512  20.889  0.00  0.00    +0.000 C 
ATOM     13  C   UNL     1       6.622  17.146  19.825  0.00  0.00    +0.000 C 
ATOM     14  C   UNL     1       7.294  17.073  18.463  0.00  0.00    +0.000 C 
ATOM     15  C   UNL     1       7.482  15.607  18.101  0.00  0.00    +0.000 C 
ATOM     16  C   UNL     1       8.303  14.854  19.138  0.00  0.00    +0.000 C 
ATOM     17  H   UNL     1       9.934  13.659  20.230  0.00  0.00    +0.000 HD
ENDROOT
BRANCH   1  21
ATOM     18  C   UNL     1      10.964  11.988  17.628  0.00  0.00    +0.000 C 
ATOM     19  C   UNL     1       9.545  11.759  18.140  0.00  0.00    +0.000 C 
ATOM     20  C   UNL     1       9.519  10.997  19.465  0.00  0.00    +0.000 C 
ATOM     21  C   UNL     1      10.413  11.636  20.543  0.00  0.00    +0.000 C 
ATOM     22  C   UNL     1      11.839  11.781  19.993  0.00  0.00    +0.000 C 
ATOM     23  C   UNL     1      11.883  12.579  18.691  0.00  0.00    +0.000 C 
ENDBRANCH   1  21
TORSDOF 1
ENDMDL
MODEL 7
REMARK VINA RESULT:      -6.8      2.379      5.455
REMARK  Name = 
REMARK  1 active torsions:
REMARK  status: ('A' for Active; 'I' for Inactive)
REMARK    1  A    between atoms: C_4  and  N_5
REMARK                            x       y       z     vdW  Elec       q    Type
REMARK                         _______ _______ _______ _____ _____    ______ ____
ROOT
ATOM      1  N   UNL     1       4.003   5.894  16.869  0.00  0.00    +0.000 N 
ATOM      2  C   UNL     1       3.337   6.736  17.783  0.00  0.00    +0.000 A 
ATOM      3  N   UNL     1       3.340   8.059  17.462  0.00  0.00    +0.000 NA
ATOM      4  C   UNL     1       2.494   8.780  18.239  0.00  0.00    +0.000 A 
ATOM      5  N   UNL     1       2.260  10.090  18.152  0.00  0.00    +0.000 NA
ATOM      6  O   UNL     1       1.316  10.345  19.145  0.00  0.00    +0.000 OA
ATOM      7  N   UNL     1       0.973   9.193  19.852  0.00  0.00    +0.000 NA
ATOM      8  C   UNL     1       1.702   8.226  19.292  0.00  0.00    +0.000 A 
ATOM      9  N   UNL     1       1.716   6.920  19.652  0.00  0.00    +0.000 NA
ATOM     10  C   UNL     1       2.557   6.165  18.890  0.00  0.00    +0.000 A 
ATOM     11  N   UNL     1       2.640   4.818  19.259  0.00  0.00    +0.000 N 
ATOM     12  C   UNL     1       1.440   4.186  19.831  0.00  0.00    +0.000 C 
ATOM     13  C   UNL     1       1.722   3.500  21.163  0.00  0.00    +0.000 C 
ATOM     14  C   UNL     1       2.898   2.545  21.028  0.00  0.00    +0.000 C 
ATOM     15  C   UNL     1       4.130   3.354  20.650  0.00  0.00    +0.000 C 
ATOM     16  C   UNL     1       3.935   4.140  19.360  0.00  0.00    +0.000 C 
ATOM     17  H   UNL     1       4.091   4.954  17.218  0.00  0.00    +0.000 HD
ENDROOT
BRANCH   1  21
ATOM     18  C   UNL     1       7.325   4.484  17.028  0.00  0.00    +0.000 C 
ATOM     19  C   UNL     1       6.816   5.552  17.991  0.00  0.00    +0.000 C 
ATOM     20  C   UNL     1       6.263   6.779  17.264  0.00  0.00    +0.000 C 
ATOM     21  C   UNL     1       5.205   6.421  16.204  0.00  0.00    +0.000 C 
ATOM     22  C   UNL     1       5.796   5.394  15.228  0.00  0.00    +0.000 C 
ATOM     23  C   UNL     1       6.312   4.144  15.940  0.00  0.00    +0.000 C 
ENDBRANCH   1  21
TORSDOF 1
ENDMDL
MODEL 8
REMARK VINA RESULT:      -6.6      5.751      9.280
REMARK  Name = 
REMARK  1 active torsions:
REMARK  status: ('A' for Active; 'I' for Inactive)
REMARK    1  A    between atoms: C_4  and  N_5
REMARK                            x       y       z     vdW  Elec       q    Type
REMARK                         _______ _______ _______ _____ _____    ______ ____
ROOT
ATOM      1  N   UNL     1      -1.612  12.339  20.177  0.00  0.00    +0.000 N 
ATOM      2  C   UNL     1      -1.974  11.532  19.078  0.00  0.00    +0.000 A 
ATOM      3  N   UNL     1      -3.109  11.912  18.428  0.00  0.00    +0.000 NA
ATOM      4  C   UNL     1      -3.276  11.253  17.255  0.00  0.00    +0.000 A 
ATOM      5  N   UNL     1      -4.273  11.422  16.386  0.00  0.00    +0.000 NA
ATOM      6  O   UNL     1      -3.987  10.538  15.347  0.00  0.00    +0.000 OA
ATOM      7  N   UNL     1      -2.818   9.815  15.579  0.00  0.00    +0.000 NA
ATOM      8  C   UNL     1      -2.379  10.257  16.759  0.00  0.00    +0.000 A 
ATOM      9  N   UNL     1      -1.266   9.839  17.410  0.00  0.00    +0.000 NA
ATOM     10  C   UNL     1      -1.069  10.481  18.596  0.00  0.00    +0.000 A 
ATOM     11  N   UNL     1       0.042  10.044  19.326  0.00  0.00    +0.000 N 
ATOM     12  C   UNL     1       1.213   9.561  18.575  0.00  0.00    +0.000 C 
ATOM     13  C   UNL     1       1.666   8.179  19.029  0.00  0.00    +0.000 C 
ATOM     14  C   UNL     1       1.868   8.156  20.536  0.00  0.00    +0.000 C 
ATOM     15  C   UNL     1       0.532   8.451  21.201  0.00  0.00    +0.000 C 
ATOM     16  C   UNL     1      -0.051   9.788  20.765  0.00  0.00    +0.000 C 
ATOM     17  H   UNL     1      -0.852  11.940  20.703  0.00  0.00    +0.000 HD
ENDROOT
BRANCH   1  21
ATOM     18  C   UNL     1      -1.229  14.108  23.303  0.00  0.00    +0.000 C 
ATOM     19  C   UNL     1      -1.454  12.602  23.210  0.00  0.00    +0.000 C 
ATOM     20  C   UNL     1      -2.692  12.248  22.385  0.00  0.00    +0.000 C 
ATOM     21  C   UNL     1      -2.695  12.908  20.994  0.00  0.00    +0.000 C 
ATOM     22  C   UNL     1      -2.530  14.426  21.156  0.00  0.00    +0.000 C 
ATOM     23  C   UNL     1      -1.273  14.794  21.941  0.00  0.00    +0.000 C 
ENDBRANCH   1  21
TORSDOF 1
ENDMDL
MODEL 9
REMARK VINA RESULT:      -6.5      6.378      9.675
REMARK  Name = 
REMARK  1 active torsions:
REMARK  status: ('A' for Active; 'I' for Inactive)
REMARK    1  A    between atoms: C_4  and  N_5
REMARK                            x       y       z     vdW  Elec       q    Type
REMARK                         _______ _______ _______ _____ _____    ______ ____
ROOT
ATOM      1  N   UNL     1      -2.220  12.860  20.412  0.00  0.00    +0.000 N 
ATOM      2  C   UNL     1      -2.386  11.896  19.397  0.00  0.00    +0.000 A 
ATOM      3  N   UNL     1      -3.399  12.144  18.521  0.00  0.00    +0.000 NA
ATOM      4  C   UNL     1      -3.362  11.322  17.443  0.00  0.00    +0.000 A 
ATOM      5  N   UNL     1      -4.201  11.335  16.407  0.00  0.00    +0.000 NA
ATOM      6  O   UNL     1      -3.739  10.322  15.568  0.00  0.00    +0.000 OA
ATOM      7  N   UNL     1      -2.620   9.676  16.091  0.00  0.00    +0.000 NA
ATOM      8  C   UNL     1      -2.388  10.294  17.251  0.00  0.00    +0.000 A 
ATOM      9  N   UNL     1      -1.397  10.007  18.130  0.00  0.00    +0.000 NA
ATOM     10  C   UNL     1      -1.405  10.816  19.227  0.00  0.00    +0.000 A 
ATOM     11  N   UNL     1      -0.429  10.521  20.185  0.00  0.00    +0.000 N 
ATOM     12  C   UNL     1       0.854   9.974  19.715  0.00  0.00    +0.000 C 
ATOM     13  C   UNL     1       1.235   8.685  20.431  0.00  0.00    +0.000 C 
ATOM     14  C   UNL     1       1.182   8.881  21.938  0.00  0.00    +0.000 C 
ATOM     15  C   UNL     1      -0.249   9.224  22.325  0.00  0.00    +0.000 C 
ATOM     16  C   UNL     1      -0.761  10.467  21.611  0.00  0.00    +0.000 C 
ATOM     17  H   UNL     1      -1.555  12.563  21.108  0.00  0.00    +0.000 HD
ENDROOT
BRANCH   1  21
ATOM     18  C   UNL     1      -2.733  13.939  23.821  0.00  0.00    +0.000 C 
ATOM     19  C   UNL     1      -3.127  12.558  23.306  0.00  0.00    +0.000 C 
ATOM     20  C   UNL     1      -4.023  12.631  22.069  0.00  0.00    +0.000 C 
ATOM     21  C   UNL     1      -3.428  13.504  20.948  0.00  0.00    +0.000 C 
ATOM     22  C   UNL     1      -3.113  14.898  21.510  0.00  0.00    +0.000 C 
ATOM     23  C   UNL     1      -2.183  14.841  22.720  0.00  0.00    +0.000 C 
ENDBRANCH   1  21
TORSDOF 1
ENDMDL
