MODEL 1
REMARK VINA RESULT:      -9.6      0.000      0.000
REMARK  Name = 
REMARK  6 active torsions:
REMARK  status: ('A' for Active; 'I' for Inactive)
REMARK    1  A    between atoms: C_5  and  C_6
REMARK    2  A    between atoms: C_6  and  C_7
REMARK    3  A    between atoms: C_6  and  N_19
REMARK    4  A    between atoms: N_11  and  C_12
REMARK    5  A    between atoms: C_12  and  C_13
REMARK    6  A    between atoms: N_25  and  C_26
REMARK                            x       y       z     vdW  Elec       q    Type
REMARK                         _______ _______ _______ _____ _____    ______ ____
ROOT
ATOM      1  C   UNL     1       3.766   5.714  17.470  0.00  0.00    +0.000 C 
ENDROOT
BRANCH   1   6
ATOM      2  F   UNL     1       0.626   9.886  19.767  0.00  0.00    +0.000 F 
ATOM      3  C   UNL     1       1.461   8.968  19.259  0.00  0.00    +0.000 A 
ATOM      4  C   UNL     1       1.823   7.866  20.021  0.00  0.00    +0.000 A 
ATOM      5  C   UNL     1       2.657   6.876  19.464  0.00  0.00    +0.000 A 
ATOM      6  C   UNL     1       3.134   6.970  18.133  0.00  0.00    +0.000 A 
ATOM      7  C   UNL     1       2.771   8.119  17.403  0.00  0.00    +0.000 A 
ATOM      8  C   UNL     1       1.936   9.108  17.960  0.00  0.00    +0.000 A 
ENDBRANCH   1   6
BRANCH   1   9
ATOM      9  N   UNL     1       3.397   4.380  17.936  0.00  0.00    +0.000 NA
ATOM     10  C   UNL     1       4.047   3.708  19.056  0.00  0.00    +0.000 C 
ATOM     11  C   UNL     1       3.560   2.232  18.879  0.00  0.00    +0.000 C 
ATOM     12  C   UNL     1       3.513   2.156  17.350  0.00  0.00    +0.000 C 
ATOM     13  C   UNL     1       2.597   3.370  17.235  0.00  0.00    +0.000 C 
ATOM     14  C   UNL     1       1.435   2.895  18.174  0.00  0.00    +0.000 C 
ATOM     15  N   UNL     1       2.114   1.986  19.140  0.00  0.00    +0.000 NA
BRANCH  15  16
ATOM     16  C   UNL     1       1.687   2.169  20.529  0.00  0.00    +0.000 C 
ATOM     17  C   UNL     1       2.916   2.601  21.381  0.00  0.00    +0.000 C 
ATOM     18  C   UNL     1       2.051   3.729  21.979  0.00  0.00    +0.000 C 
ATOM     19  C   UNL     1       1.155   3.617  20.727  0.00  0.00    +0.000 C 
ENDBRANCH  15  16
ENDBRANCH   1   9
BRANCH   1  20
ATOM     20  C   UNL     1       5.265   5.886  17.424  0.00  0.00    +0.000 A 
ATOM     21  N   UNL     1       5.940   6.917  17.909  0.00  0.00    +0.000 NA
ATOM     22  N   UNL     1       7.249   6.727  17.574  0.00  0.00    +0.000 NA
ATOM     23  N   UNL     1       7.407   5.593  16.915  0.00  0.00    +0.000 NA
ATOM     24  N   UNL     1       6.174   5.052  16.812  0.00  0.00    +0.000 N 
BRANCH  24  25
ATOM     25  C   UNL     1       5.975   3.972  15.859  0.00  0.00    +0.000 C 
BRANCH  25  26
ATOM     26  C   UNL     1       6.402   4.210  14.426  0.00  0.00    +0.000 A 
ATOM     27  C   UNL     1       7.448   5.065  14.039  0.00  0.00    +0.000 A 
ATOM     28  C   UNL     1       7.813   5.180  12.693  0.00  0.00    +0.000 A 
ATOM     29  C   UNL     1       7.151   4.433  11.708  0.00  0.00    +0.000 A 
ATOM     30  C   UNL     1       6.122   3.573  12.080  0.00  0.00    +0.000 A 
ATOM     31  C   UNL     1       5.754   3.464  13.421  0.00  0.00    +0.000 A 
ENDBRANCH  25  26
ENDBRANCH  24  25
ENDBRANCH   1  20
TORSDOF 6
ENDMDL
MODEL 2
REMARK VINA RESULT:      -9.1      0.763      1.157
REMARK  Name = 
REMARK  6 active torsions:
REMARK  status: ('A' for Active; 'I' for Inactive)
REMARK    1  A    between atoms: C_5  and  C_6
REMARK    2  A    between atoms: C_6  and  C_7
REMARK    3  A    between atoms: C_6  and  N_19
REMARK    4  A    between atoms: N_11  and  C_12
REMARK    5  A    between atoms: C_12  and  C_13
REMARK    6  A    between atoms: N_25  and  C_26
REMARK                            x       y       z     vdW  Elec       q    Type
REMARK                         _______ _______ _______ _____ _____    ______ ____
ROOT
ATOM      1  C   UNL     1       3.957   5.530  17.699  0.00  0.00    +0.000 C 
ENDROOT
BRANCH   1   6
ATOM      2  F   UNL     1       0.768   9.882  19.550  0.00  0.00    +0.000 F 
ATOM      3  C   UNL     1       1.612   8.917  19.161  0.00  0.00    +0.000 A 
ATOM      4  C   UNL     1       1.797   7.796  19.960  0.00  0.00    +0.000 A 
ATOM      5  C   UNL     1       2.643   6.759  19.522  0.00  0.00    +0.000 A 
ATOM      6  C   UNL     1       3.311   6.822  18.274  0.00  0.00    +0.000 A 
ATOM      7  C   UNL     1       3.124   7.989  17.507  0.00  0.00    +0.000 A 
ATOM      8  C   UNL     1       2.276   9.026  17.945  0.00  0.00    +0.000 A 
ENDBRANCH   1   6
BRANCH   1   9
ATOM      9  N   UNL     1       3.401   4.224  18.041  0.00  0.00    +0.000 NA
ATOM     10  C   UNL     1       4.023   3.305  18.988  0.00  0.00    +0.000 C 
ATOM     11  C   UNL     1       3.267   1.968  18.692  0.00  0.00    +0.000 C 
ATOM     12  C   UNL     1       3.065   2.113  17.181  0.00  0.00    +0.000 C 
ATOM     13  C   UNL     1       2.373   3.466  17.320  0.00  0.00    +0.000 C 
ATOM     14  C   UNL     1       1.237   3.062  18.322  0.00  0.00    +0.000 C 
ATOM     15  N   UNL     1       1.831   1.929  19.086  0.00  0.00    +0.000 NA
BRANCH  15  16
ATOM     16  C   UNL     1       1.573   1.986  20.527  0.00  0.00    +0.000 C 
ATOM     17  C   UNL     1       2.898   2.347  21.262  0.00  0.00    +0.000 C 
ATOM     18  C   UNL     1       2.116   3.412  22.056  0.00  0.00    +0.000 C 
ATOM     19  C   UNL     1       1.075   3.407  20.915  0.00  0.00    +0.000 C 
ENDBRANCH  15  16
ENDBRANCH   1   9
BRANCH   1  20
ATOM     20  C   UNL     1       5.446   5.577  17.945  0.00  0.00    +0.000 A 
ATOM     21  N   UNL     1       6.038   5.494  19.126  0.00  0.00    +0.000 NA
ATOM     22  N   UNL     1       7.373   5.677  18.915  0.00  0.00    +0.000 NA
ATOM     23  N   UNL     1       7.627   5.848  17.629  0.00  0.00    +0.000 NA
ATOM     24  N   UNL     1       6.431   5.787  17.006  0.00  0.00    +0.000 N 
BRANCH  24  25
ATOM     25  C   UNL     1       6.346   6.263  15.634  0.00  0.00    +0.000 C 
BRANCH  25  26
ATOM     26  C   UNL     1       6.338   5.229  14.529  0.00  0.00    +0.000 A 
ATOM     27  C   UNL     1       5.301   4.307  14.308  0.00  0.00    +0.000 A 
ATOM     28  C   UNL     1       5.351   3.424  13.225  0.00  0.00    +0.000 A 
ATOM     29  C   UNL     1       6.431   3.453  12.331  0.00  0.00    +0.000 A 
ATOM     30  C   UNL     1       7.459   4.369  12.531  0.00  0.00    +0.000 A 
ATOM     31  C   UNL     1       7.412   5.245  13.615  0.00  0.00    +0.000 A 
ENDBRANCH  25  26
ENDBRANCH  24  25
ENDBRANCH   1  20
TORSDOF 6
ENDMDL
MODEL 3
REMARK VINA RESULT:      -8.4      3.193      6.388
REMARK  Name = 
REMARK  6 active torsions:
REMARK  status: ('A' for Active; 'I' for Inactive)
REMARK    1  A    between atoms: C_5  and  C_6
REMARK    2  A    between atoms: C_6  and  C_7
REMARK    3  A    between atoms: C_6  and  N_19
REMARK    4  A    between atoms: N_11  and  C_12
REMARK    5  A    between atoms: C_12  and  C_13
REMARK    6  A    between atoms: N_25  and  C_26
REMARK                            x       y       z     vdW  Elec       q    Type
REMARK                         _______ _______ _______ _____ _____    ______ ____
ROOT
ATOM      1  C   UNL     1       2.657   7.076  19.102  0.00  0.00    +0.000 C 
ENDROOT
BRANCH   1   6
ATOM      2  F   UNL     1       0.429   1.826  19.200  0.00  0.00    +0.000 F 
ATOM      3  C   UNL     1       0.841   3.101  19.168  0.00  0.00    +0.000 A 
ATOM      4  C   UNL     1       1.092   3.776  20.355  0.00  0.00    +0.000 A 
ATOM      5  C   UNL     1       1.577   5.098  20.318  0.00  0.00    +0.000 A 
ATOM      6  C   UNL     1       1.826   5.763  19.091  0.00  0.00    +0.000 A 
ATOM      7  C   UNL     1       1.528   5.057  17.909  0.00  0.00    +0.000 A 
ATOM      8  C   UNL     1       1.044   3.733  17.947  0.00  0.00    +0.000 A 
ENDBRANCH   1   6
BRANCH   1   9
ATOM      9  N   UNL     1       1.980   8.368  19.037  0.00  0.00    +0.000 NA
ATOM     10  C   UNL     1       1.160   8.905  20.117  0.00  0.00    +0.000 C 
ATOM     11  C   UNL     1       0.395  10.067  19.402  0.00  0.00    +0.000 C 
ATOM     12  C   UNL     1       0.220   9.446  18.013  0.00  0.00    +0.000 C 
ATOM     13  C   UNL     1       1.715   9.188  17.849  0.00  0.00    +0.000 C 
ATOM     14  C   UNL     1       2.247  10.641  18.100  0.00  0.00    +0.000 C 
ATOM     15  N   UNL     1       1.219  11.240  18.998  0.00  0.00    +0.000 NA
BRANCH  15  16
ATOM     16  C   UNL     1       1.780  12.023  20.101  0.00  0.00    +0.000 C 
ATOM     17  C   UNL     1       2.171  13.434  19.570  0.00  0.00    +0.000 C 
ATOM     18  C   UNL     1       1.440  14.045  20.782  0.00  0.00    +0.000 C 
ATOM     19  C   UNL     1       0.633  12.733  20.877  0.00  0.00    +0.000 C 
ENDBRANCH  15  16
ENDBRANCH   1   9
BRANCH   1  20
ATOM     20  C   UNL     1       3.749   6.973  18.064  0.00  0.00    +0.000 A 
ATOM     21  N   UNL     1       3.702   7.476  16.840  0.00  0.00    +0.000 NA
ATOM     22  N   UNL     1       4.840   7.076  16.203  0.00  0.00    +0.000 NA
ATOM     23  N   UNL     1       5.603   6.357  17.008  0.00  0.00    +0.000 NA
ATOM     24  N   UNL     1       4.935   6.283  18.179  0.00  0.00    +0.000 N 
BRANCH  24  25
ATOM     25  C   UNL     1       5.362   5.290  19.152  0.00  0.00    +0.000 C 
BRANCH  25  26
ATOM     26  C   UNL     1       4.866   3.870  18.972  0.00  0.00    +0.000 A 
ATOM     27  C   UNL     1       4.626   2.971  20.024  0.00  0.00    +0.000 A 
ATOM     28  C   UNL     1       4.112   1.695  19.769  0.00  0.00    +0.000 A 
ATOM     29  C   UNL     1       3.813   1.297  18.457  0.00  0.00    +0.000 A 
ATOM     30  C   UNL     1       4.034   2.183  17.407  0.00  0.00    +0.000 A 
ATOM     31  C   UNL     1       4.553   3.452  17.662  0.00  0.00    +0.000 A 
ENDBRANCH  25  26
ENDBRANCH  24  25
ENDBRANCH   1  20
TORSDOF 6
ENDMDL
MODEL 4
REMARK VINA RESULT:      -8.3      8.349     11.877
REMARK  Name = 
REMARK  6 active torsions:
REMARK  status: ('A' for Active; 'I' for Inactive)
REMARK    1  A    between atoms: C_5  and  C_6
REMARK    2  A    between atoms: C_6  and  C_7
REMARK    3  A    between atoms: C_6  and  N_19
REMARK    4  A    between atoms: N_11  and  C_12
REMARK    5  A    between atoms: C_12  and  C_13
REMARK    6  A    between atoms: N_25  and  C_26
REMARK                            x       y       z     vdW  Elec       q    Type
REMARK                         _______ _______ _______ _____ _____    ______ ____
ROOT
ATOM      1  C   UNL     1      -0.995  12.100  20.027  0.00  0.00    +0.000 C 
ENDROOT
BRANCH   1   6
ATOM      2  F   UNL     1      -3.609   9.758  15.530  0.00  0.00    +0.000 F 
ATOM      3  C   UNL     1      -3.043  10.222  16.653  0.00  0.00    +0.000 A 
ATOM      4  C   UNL     1      -1.741   9.860  16.970  0.00  0.00    +0.000 A 
ATOM      5  C   UNL     1      -1.130  10.393  18.123  0.00  0.00    +0.000 A 
ATOM      6  C   UNL     1      -1.811  11.300  18.972  0.00  0.00    +0.000 A 
ATOM      7  C   UNL     1      -3.141  11.617  18.635  0.00  0.00    +0.000 A 
ATOM      8  C   UNL     1      -3.751  11.085  17.480  0.00  0.00    +0.000 A 
ENDBRANCH   1   6
BRANCH   1   9
ATOM      9  N   UNL     1       0.247  12.762  19.639  0.00  0.00    +0.000 NA
ATOM     10  C   UNL     1       0.317  13.829  18.646  0.00  0.00    +0.000 C 
ATOM     11  C   UNL     1       1.850  13.894  18.343  0.00  0.00    +0.000 C 
ATOM     12  C   UNL     1       2.205  12.410  18.477  0.00  0.00    +0.000 C 
ATOM     13  C   UNL     1       1.622  12.313  19.884  0.00  0.00    +0.000 C 
ATOM     14  C   UNL     1       2.426  13.473  20.567  0.00  0.00    +0.000 C 
ATOM     15  N   UNL     1       2.712  14.409  19.444  0.00  0.00    +0.000 NA
BRANCH  15  16
ATOM     16  C   UNL     1       2.518  15.820  19.785  0.00  0.00    +0.000 C 
ATOM     17  C   UNL     1       2.052  15.922  21.267  0.00  0.00    +0.000 C 
ATOM     18  C   UNL     1       3.119  17.013  21.483  0.00  0.00    +0.000 C 
ATOM     19  C   UNL     1       3.865  16.435  20.261  0.00  0.00    +0.000 C 
ENDBRANCH  15  16
ENDBRANCH   1   9
BRANCH   1  20
ATOM     20  C   UNL     1      -0.802  11.238  21.252  0.00  0.00    +0.000 A 
ATOM     21  N   UNL     1      -0.496   9.950  21.250  0.00  0.00    +0.000 NA
ATOM     22  N   UNL     1      -0.512   9.537  22.550  0.00  0.00    +0.000 NA
ATOM     23  N   UNL     1      -0.797  10.542  23.360  0.00  0.00    +0.000 NA
ATOM     24  N   UNL     1      -0.981  11.616  22.563  0.00  0.00    +0.000 N 
BRANCH  24  25
ATOM     25  C   UNL     1      -1.625  12.790  23.131  0.00  0.00    +0.000 C 
BRANCH  25  26
ATOM     26  C   UNL     1      -3.138  12.836  23.121  0.00  0.00    +0.000 A 
ATOM     27  C   UNL     1      -3.921  13.025  21.969  0.00  0.00    +0.000 A 
ATOM     28  C   UNL     1      -5.318  12.995  22.044  0.00  0.00    +0.000 A 
ATOM     29  C   UNL     1      -5.961  12.763  23.268  0.00  0.00    +0.000 A 
ATOM     30  C   UNL     1      -5.198  12.562  24.414  0.00  0.00    +0.000 A 
ATOM     31  C   UNL     1      -3.806  12.598  24.340  0.00  0.00    +0.000 A 
ENDBRANCH  25  26
ENDBRANCH  24  25
ENDBRANCH   1  20
TORSDOF 6
ENDMDL
MODEL 5
REMARK VINA RESULT:      -8.2      3.075      7.141
REMARK  Name = 
REMARK  6 active torsions:
REMARK  status: ('A' for Active; 'I' for Inactive)
REMARK    1  A    between atoms: C_5  and  C_6
REMARK    2  A    between atoms: C_6  and  C_7
REMARK    3  A    between atoms: C_6  and  N_19
REMARK    4  A    between atoms: N_11  and  C_12
REMARK    5  A    between atoms: C_12  and  C_13
REMARK    6  A    between atoms: N_25  and  C_26
REMARK                            x       y       z     vdW  Elec       q    Type
REMARK                         _______ _______ _______ _____ _____    ______ ____
ROOT
ATOM      1  C   UNL     1       3.568   6.514  18.808  0.00  0.00    +0.000 C 
ENDROOT
BRANCH   1   6
ATOM      2  F   UNL     1       7.743   5.068  15.200  0.00  0.00    +0.000 F 
ATOM      3  C   UNL     1       6.739   5.501  15.976  0.00  0.00    +0.000 A 
ATOM      4  C   UNL     1       5.466   4.970  15.820  0.00  0.00    +0.000 A 
ATOM      5  C   UNL     1       4.427   5.388  16.674  0.00  0.00    +0.000 A 
ATOM      6  C   UNL     1       4.647   6.337  17.703  0.00  0.00    +0.000 A 
ATOM      7  C   UNL     1       5.944   6.877  17.808  0.00  0.00    +0.000 A 
ATOM      8  C   UNL     1       6.984   6.457  16.954  0.00  0.00    +0.000 A 
ENDBRANCH   1   6
BRANCH   1   9
ATOM      9  N   UNL     1       2.788   5.363  19.255  0.00  0.00    +0.000 NA
ATOM     10  C   UNL     1       1.850   4.643  18.401  0.00  0.00    +0.000 C 
ATOM     11  C   UNL     1       1.041   3.800  19.442  0.00  0.00    +0.000 C 
ATOM     12  C   UNL     1       1.020   4.785  20.614  0.00  0.00    +0.000 C 
ATOM     13  C   UNL     1       2.539   4.923  20.632  0.00  0.00    +0.000 C 
ATOM     14  C   UNL     1       2.925   3.409  20.765  0.00  0.00    +0.000 C 
ATOM     15  N   UNL     1       1.788   2.700  20.114  0.00  0.00    +0.000 NA
BRANCH  15  16
ATOM     16  C   UNL     1       2.198   1.597  19.243  0.00  0.00    +0.000 C 
ATOM     17  C   UNL     1       2.287   2.117  17.777  0.00  0.00    +0.000 C 
ATOM     18  C   UNL     1       3.669   1.444  17.668  0.00  0.00    +0.000 C 
ATOM     19  C   UNL     1       3.751   1.505  19.208  0.00  0.00    +0.000 C 
ENDBRANCH  15  16
ENDBRANCH   1   9
BRANCH   1  20
ATOM     20  C   UNL     1       2.675   7.675  18.440  0.00  0.00    +0.000 A 
ATOM     21  N   UNL     1       2.659   8.297  17.272  0.00  0.00    +0.000 NA
ATOM     22  N   UNL     1       1.788   9.340  17.391  0.00  0.00    +0.000 NA
ATOM     23  N   UNL     1       1.245   9.366  18.596  0.00  0.00    +0.000 NA
ATOM     24  N   UNL     1       1.790   8.329  19.267  0.00  0.00    +0.000 N 
BRANCH  24  25
ATOM     25  C   UNL     1       1.640   8.292  20.713  0.00  0.00    +0.000 C 
BRANCH  25  26
ATOM     26  C   UNL     1       0.849   9.405  21.367  0.00  0.00    +0.000 A 
ATOM     27  C   UNL     1       0.814  10.734  20.909  0.00  0.00    +0.000 A 
ATOM     28  C   UNL     1       0.008  11.685  21.542  0.00  0.00    +0.000 A 
ATOM     29  C   UNL     1      -0.792  11.327  22.637  0.00  0.00    +0.000 A 
ATOM     30  C   UNL     1      -0.777  10.012  23.092  0.00  0.00    +0.000 A 
ATOM     31  C   UNL     1       0.032   9.065  22.465  0.00  0.00    +0.000 A 
ENDBRANCH  25  26
ENDBRANCH  24  25
ENDBRANCH   1  20
TORSDOF 6
ENDMDL
MODEL 6
REMARK VINA RESULT:      -8.1      7.021     10.569
REMARK  Name = 
REMARK  6 active torsions:
REMARK  status: ('A' for Active; 'I' for Inactive)
REMARK    1  A    between atoms: C_5  and  C_6
REMARK    2  A    between atoms: C_6  and  C_7
REMARK    3  A    between atoms: C_6  and  N_19
REMARK    4  A    between atoms: N_11  and  C_12
REMARK    5  A    between atoms: C_12  and  C_13
REMARK    6  A    between atoms: N_25  and  C_26
REMARK                            x       y       z     vdW  Elec       q    Type
REMARK                         _______ _______ _______ _____ _____    ______ ____
ROOT
ATOM      1  C   UNL     1      -2.145  12.121  20.187  0.00  0.00    +0.000 C 
ENDROOT
BRANCH   1   6
ATOM      2  F   UNL     1      -4.274  10.351  15.200  0.00  0.00    +0.000 F 
ATOM      3  C   UNL     1      -3.760  10.874  16.322  0.00  0.00    +0.000 A 
ATOM      4  C   UNL     1      -4.606  11.355  17.311  0.00  0.00    +0.000 A 
ATOM      5  C   UNL     1      -4.063  11.854  18.511  0.00  0.00    +0.000 A 
ATOM      6  C   UNL     1      -2.665  11.873  18.743  0.00  0.00    +0.000 A 
ATOM      7  C   UNL     1      -1.838  11.407  17.702  0.00  0.00    +0.000 A 
ATOM      8  C   UNL     1      -2.382  10.905  16.502  0.00  0.00    +0.000 A 
ENDBRANCH   1   6
BRANCH   1   9
ATOM      9  N   UNL     1      -2.868  13.025  21.077  0.00  0.00    +0.000 NA
ATOM     10  C   UNL     1      -3.711  12.570  22.178  0.00  0.00    +0.000 C 
ATOM     11  C   UNL     1      -4.515  13.865  22.531  0.00  0.00    +0.000 C 
ATOM     12  C   UNL     1      -4.662  14.469  21.130  0.00  0.00    +0.000 C 
ATOM     13  C   UNL     1      -3.159  14.448  20.873  0.00  0.00    +0.000 C 
ATOM     14  C   UNL     1      -2.680  15.253  22.131  0.00  0.00    +0.000 C 
ATOM     15  N   UNL     1      -3.732  14.972  23.148  0.00  0.00    +0.000 NA
BRANCH  15  16
ATOM     16  C   UNL     1      -3.205  14.697  24.486  0.00  0.00    +0.000 C 
ATOM     17  C   UNL     1      -1.649  14.746  24.435  0.00  0.00    +0.000 C 
ATOM     18  C   UNL     1      -1.679  15.650  25.683  0.00  0.00    +0.000 C 
ATOM     19  C   UNL     1      -3.129  16.019  25.302  0.00  0.00    +0.000 C 
ENDBRANCH  15  16
ENDBRANCH   1   9
BRANCH   1  20
ATOM     20  C   UNL     1      -0.676  12.465  20.126  0.00  0.00    +0.000 A 
ATOM     21  N   UNL     1      -0.160  13.557  19.582  0.00  0.00    +0.000 NA
ATOM     22  N   UNL     1       1.196  13.431  19.650  0.00  0.00    +0.000 NA
ATOM     23  N   UNL     1       1.535  12.300  20.244  0.00  0.00    +0.000 NA
ATOM     24  N   UNL     1       0.374  11.682  20.550  0.00  0.00    +0.000 N 
BRANCH  24  25
ATOM     25  C   UNL     1       0.419  10.274  20.911  0.00  0.00    +0.000 C 
BRANCH  25  26
ATOM     26  C   UNL     1       1.060   9.316  19.930  0.00  0.00    +0.000 A 
ATOM     27  C   UNL     1       1.192   9.558  18.552  0.00  0.00    +0.000 A 
ATOM     28  C   UNL     1       1.852   8.640  17.727  0.00  0.00    +0.000 A 
ATOM     29  C   UNL     1       2.406   7.468  18.265  0.00  0.00    +0.000 A 
ATOM     30  C   UNL     1       2.293   7.223  19.630  0.00  0.00    +0.000 A 
ATOM     31  C   UNL     1       1.629   8.135  20.450  0.00  0.00    +0.000 A 
ENDBRANCH  25  26
ENDBRANCH  24  25
ENDBRANCH   1  20
TORSDOF 6
ENDMDL
MODEL 7
REMARK VINA RESULT:      -7.9      7.207     10.849
REMARK  Name = 
REMARK  6 active torsions:
REMARK  status: ('A' for Active; 'I' for Inactive)
REMARK    1  A    between atoms: C_5  and  C_6
REMARK    2  A    between atoms: C_6  and  C_7
REMARK    3  A    between atoms: C_6  and  N_19
REMARK    4  A    between atoms: N_11  and  C_12
REMARK    5  A    between atoms: C_12  and  C_13
REMARK    6  A    between atoms: N_25  and  C_26
REMARK                            x       y       z     vdW  Elec       q    Type
REMARK                         _______ _______ _______ _____ _____    ______ ____
ROOT
ATOM      1  C   UNL     1      -2.356  11.757  19.479  0.00  0.00    +0.000 C 
ENDROOT
BRANCH   1   6
ATOM      2  F   UNL     1      -3.605  10.002  14.197  0.00  0.00    +0.000 F 
ATOM      3  C   UNL     1      -3.389  10.332  15.478  0.00  0.00    +0.000 A 
ATOM      4  C   UNL     1      -2.321   9.773  16.166  0.00  0.00    +0.000 A 
ATOM      5  C   UNL     1      -2.065  10.164  17.495  0.00  0.00    +0.000 A 
ATOM      6  C   UNL     1      -2.869  11.127  18.154  0.00  0.00    +0.000 A 
ATOM      7  C   UNL     1      -3.963  11.647  17.434  0.00  0.00    +0.000 A 
ATOM      8  C   UNL     1      -4.217  11.257  16.103  0.00  0.00    +0.000 A 
ENDBRANCH   1   6
BRANCH   1   9
ATOM      9  N   UNL     1      -3.195  12.702  20.210  0.00  0.00    +0.000 NA
ATOM     10  C   UNL     1      -2.668  13.838  20.959  0.00  0.00    +0.000 C 
ATOM     11  C   UNL     1      -3.901  14.259  21.825  0.00  0.00    +0.000 C 
ATOM     12  C   UNL     1      -4.516  12.881  22.089  0.00  0.00    +0.000 C 
ATOM     13  C   UNL     1      -4.599  12.542  20.604  0.00  0.00    +0.000 C 
ATOM     14  C   UNL     1      -5.415  13.787  20.110  0.00  0.00    +0.000 C 
ATOM     15  N   UNL     1      -5.047  14.854  21.084  0.00  0.00    +0.000 NA
BRANCH  15  16
ATOM     16  C   UNL     1      -4.787  16.156  20.466  0.00  0.00    +0.000 C 
ATOM     17  C   UNL     1      -6.147  16.852  20.163  0.00  0.00    +0.000 C 
ATOM     18  C   UNL     1      -5.589  18.131  20.818  0.00  0.00    +0.000 C 
ATOM     19  C   UNL     1      -4.586  17.232  21.572  0.00  0.00    +0.000 C 
ENDBRANCH  15  16
ENDBRANCH   1   9
BRANCH   1  20
ATOM     20  C   UNL     1      -0.970  12.311  19.253  0.00  0.00    +0.000 A 
ATOM     21  N   UNL     1      -0.653  13.281  18.410  0.00  0.00    +0.000 NA
ATOM     22  N   UNL     1       0.705  13.406  18.441  0.00  0.00    +0.000 NA
ATOM     23  N   UNL     1       1.237  12.554  19.300  0.00  0.00    +0.000 NA
ATOM     24  N   UNL     1       0.202  11.860  19.819  0.00  0.00    +0.000 N 
BRANCH  24  25
ATOM     25  C   UNL     1       0.492  10.633  20.545  0.00  0.00    +0.000 C 
BRANCH  25  26
ATOM     26  C   UNL     1       1.118   9.491  19.773  0.00  0.00    +0.000 A 
ATOM     27  C   UNL     1       1.407   9.522  18.398  0.00  0.00    +0.000 A 
ATOM     28  C   UNL     1       2.040   8.440  17.778  0.00  0.00    +0.000 A 
ATOM     29  C   UNL     1       2.410   7.309  18.521  0.00  0.00    +0.000 A 
ATOM     30  C   UNL     1       2.141   7.271  19.886  0.00  0.00    +0.000 A 
ATOM     31  C   UNL     1       1.504   8.347  20.502  0.00  0.00    +0.000 A 
ENDBRANCH  25  26
ENDBRANCH  24  25
ENDBRANCH   1  20
TORSDOF 6
ENDMDL
MODEL 8
REMARK VINA RESULT:      -7.9      3.076      6.265
REMARK  Name = 
REMARK  6 active torsions:
REMARK  status: ('A' for Active; 'I' for Inactive)
REMARK    1  A    between atoms: C_5  and  C_6
REMARK    2  A    between atoms: C_6  and  C_7
REMARK    3  A    between atoms: C_6  and  N_19
REMARK    4  A    between atoms: N_11  and  C_12
REMARK    5  A    between atoms: C_12  and  C_13
REMARK    6  A    between atoms: N_25  and  C_26
REMARK                            x       y       z     vdW  Elec       q    Type
REMARK                         _______ _______ _______ _____ _____    ______ ____
ROOT
ATOM      1  C   UNL     1       3.069   7.156  18.925  0.00  0.00    +0.000 C 
ENDROOT
BRANCH   1   6
ATOM      2  F   UNL     1      -0.110   2.471  19.623  0.00  0.00    +0.000 F 
ATOM      3  C   UNL     1       0.733   3.501  19.464  0.00  0.00    +0.000 A 
ATOM      4  C   UNL     1       1.035   3.957  18.188  0.00  0.00    +0.000 A 
ATOM      5  C   UNL     1       1.878   5.074  18.027  0.00  0.00    +0.000 A 
ATOM      6  C   UNL     1       2.427   5.757  19.142  0.00  0.00    +0.000 A 
ATOM      7  C   UNL     1       2.124   5.244  20.418  0.00  0.00    +0.000 A 
ATOM      8  C   UNL     1       1.278   4.128  20.579  0.00  0.00    +0.000 A 
ENDBRANCH   1   6
BRANCH   1   9
ATOM      9  N   UNL     1       2.225   8.346  18.880  0.00  0.00    +0.000 NA
ATOM     10  C   UNL     1       1.303   8.723  19.947  0.00  0.00    +0.000 C 
ATOM     11  C   UNL     1       0.412   9.799  19.245  0.00  0.00    +0.000 C 
ATOM     12  C   UNL     1       0.370   9.217  17.828  0.00  0.00    +0.000 C 
ATOM     13  C   UNL     1       1.891   9.170  17.714  0.00  0.00    +0.000 C 
ATOM     14  C   UNL     1       2.211  10.671  18.038  0.00  0.00    +0.000 C 
ATOM     15  N   UNL     1       1.081  11.088  18.915  0.00  0.00    +0.000 NA
BRANCH  15  16
ATOM     16  C   UNL     1       1.492  11.894  20.067  0.00  0.00    +0.000 C 
ATOM     17  C   UNL     1       1.447  13.399  19.672  0.00  0.00    +0.000 C 
ATOM     18  C   UNL     1       0.672  13.674  20.976  0.00  0.00    +0.000 C 
ATOM     19  C   UNL     1       0.259  12.187  20.969  0.00  0.00    +0.000 C 
ENDBRANCH  15  16
ENDBRANCH   1   9
BRANCH   1  20
ATOM     20  C   UNL     1       3.995   7.091  17.734  0.00  0.00    +0.000 A 
ATOM     21  N   UNL     1       3.783   7.663  16.559  0.00  0.00    +0.000 NA
ATOM     22  N   UNL     1       4.804   7.278  15.741  0.00  0.00    +0.000 NA
ATOM     23  N   UNL     1       5.657   6.501  16.386  0.00  0.00    +0.000 NA
ATOM     24  N   UNL     1       5.166   6.374  17.637  0.00  0.00    +0.000 N 
BRANCH  24  25
ATOM     25  C   UNL     1       5.703   5.319  18.481  0.00  0.00    +0.000 C 
BRANCH  25  26
ATOM     26  C   UNL     1       4.996   3.980  18.471  0.00  0.00    +0.000 A 
ATOM     27  C   UNL     1       4.533   3.333  17.313  0.00  0.00    +0.000 A 
ATOM     28  C   UNL     1       3.941   2.068  17.393  0.00  0.00    +0.000 A 
ATOM     29  C   UNL     1       3.813   1.417  18.629  0.00  0.00    +0.000 A 
ATOM     30  C   UNL     1       4.279   2.041  19.781  0.00  0.00    +0.000 A 
ATOM     31  C   UNL     1       4.863   3.305  19.703  0.00  0.00    +0.000 A 
ENDBRANCH  25  26
ENDBRANCH  24  25
ENDBRANCH   1  20
TORSDOF 6
ENDMDL
MODEL 9
REMARK VINA RESULT:      -7.9      2.874      7.347
REMARK  Name = 
REMARK  6 active torsions:
REMARK  status: ('A' for Active; 'I' for Inactive)
REMARK    1  A    between atoms: C_5  and  C_6
REMARK    2  A    between atoms: C_6  and  C_7
REMARK    3  A    between atoms: C_6  and  N_19
REMARK    4  A    between atoms: N_11  and  C_12
REMARK    5  A    between atoms: C_12  and  C_13
REMARK    6  A    between atoms: N_25  and  C_26
REMARK                            x       y       z     vdW  Elec       q    Type
REMARK                         _______ _______ _______ _____ _____    ______ ____
ROOT
ATOM      1  C   UNL     1       2.628   5.916  17.897  0.00  0.00    +0.000 C 
ENDROOT
BRANCH   1   6
ATOM      2  F   UNL     1       1.165   0.668  19.588  0.00  0.00    +0.000 F 
ATOM      3  C   UNL     1       1.411   1.901  19.122  0.00  0.00    +0.000 A 
ATOM      4  C   UNL     1       0.998   3.010  19.849  0.00  0.00    +0.000 A 
ATOM      5  C   UNL     1       1.306   4.303  19.383  0.00  0.00    +0.000 A 
ATOM      6  C   UNL     1       2.039   4.507  18.187  0.00  0.00    +0.000 A 
ATOM      7  C   UNL     1       2.411   3.359  17.462  0.00  0.00    +0.000 A 
ATOM      8  C   UNL     1       2.105   2.065  17.929  0.00  0.00    +0.000 A 
ENDBRANCH   1   6
BRANCH   1   9
ATOM      9  N   UNL     1       4.010   6.049  17.447  0.00  0.00    +0.000 NA
ATOM     10  C   UNL     1       5.101   5.208  17.929  0.00  0.00    +0.000 C 
ATOM     11  C   UNL     1       6.362   5.998  17.447  0.00  0.00    +0.000 C 
ATOM     12  C   UNL     1       5.846   7.432  17.605  0.00  0.00    +0.000 C 
ATOM     13  C   UNL     1       4.621   7.176  16.733  0.00  0.00    +0.000 C 
ATOM     14  C   UNL     1       5.340   6.638  15.447  0.00  0.00    +0.000 C 
ATOM     15  N   UNL     1       6.591   6.026  15.975  0.00  0.00    +0.000 NA
BRANCH  15  16
ATOM     16  C   UNL     1       6.923   4.736  15.367  0.00  0.00    +0.000 C 
ATOM     17  C   UNL     1       5.614   4.075  14.841  0.00  0.00    +0.000 C 
ATOM     18  C   UNL     1       6.340   3.800  13.509  0.00  0.00    +0.000 C 
ATOM     19  C   UNL     1       7.311   4.943  13.875  0.00  0.00    +0.000 C 
ENDBRANCH  15  16
ENDBRANCH   1   9
BRANCH   1  20
ATOM     20  C   UNL     1       2.342   6.819  19.073  0.00  0.00    +0.000 A 
ATOM     21  N   UNL     1       2.266   6.438  20.339  0.00  0.00    +0.000 NA
ATOM     22  N   UNL     1       1.895   7.534  21.061  0.00  0.00    +0.000 NA
ATOM     23  N   UNL     1       1.762   8.591  20.279  0.00  0.00    +0.000 NA
ATOM     24  N   UNL     1       2.039   8.161  19.029  0.00  0.00    +0.000 N 
BRANCH  24  25
ATOM     25  C   UNL     1       1.659   9.010  17.911  0.00  0.00    +0.000 C 
BRANCH  25  26
ATOM     26  C   UNL     1       0.627  10.088  18.166  0.00  0.00    +0.000 A 
ATOM     27  C   UNL     1       0.921  11.374  18.651  0.00  0.00    +0.000 A 
ATOM     28  C   UNL     1      -0.091  12.328  18.800  0.00  0.00    +0.000 A 
ATOM     29  C   UNL     1      -1.415  12.022  18.455  0.00  0.00    +0.000 A 
ATOM     30  C   UNL     1      -1.718  10.757  17.962  0.00  0.00    +0.000 A 
ATOM     31  C   UNL     1      -0.710   9.804  17.819  0.00  0.00    +0.000 A 
ENDBRANCH  25  26
ENDBRANCH  24  25
ENDBRANCH   1  20
TORSDOF 6
ENDMDL
