MODEL 1
REMARK VINA RESULT:      -8.3      0.000      0.000
REMARK  Name = 
REMARK  6 active torsions:
REMARK  status: ('A' for Active; 'I' for Inactive)
REMARK    1  A    between atoms: C_1  and  O_2
REMARK    2  A    between atoms: O_2  and  C_3
REMARK    3  A    between atoms: C_6  and  S_7
REMARK    4  A    between atoms: S_7  and  N_10
REMARK    5  A    between atoms: N_10  and  C_11
REMARK    6  A    between atoms: C_16  and  C_17
REMARK                            x       y       z     vdW  Elec       q    Type
REMARK                         _______ _______ _______ _____ _____    ______ ____
ROOT
ATOM      1  C   UNL     1       2.787   4.825  19.780  0.00  0.00    +0.000 A 
ATOM      2  C   UNL     1       1.724   4.455  20.619  0.00  0.00    +0.000 A 
ATOM      3  C   UNL     1       1.304   3.131  20.701  0.00  0.00    +0.000 A 
ATOM      4  C   UNL     1       1.947   2.160  19.948  0.00  0.00    +0.000 A 
ATOM      5  C   UNL     1       3.004   2.521  19.108  0.00  0.00    +0.000 A 
ATOM      6  C   UNL     1       3.464   3.856  18.997  0.00  0.00    +0.000 A 
ENDROOT
BRANCH   6   7
ATOM      7  C   UNL     1       4.594   4.129  18.067  0.00  0.00    +0.000 A 
ATOM      8  C   UNL     1       5.879   4.440  18.570  0.00  0.00    +0.000 A 
ATOM      9  C   UNL     1       6.981   4.616  17.725  0.00  0.00    +0.000 A 
ATOM     10  C   UNL     1       6.810   4.528  16.352  0.00  0.00    +0.000 A 
ATOM     11  F   UNL     1       7.875   4.701  15.555  0.00  0.00    +0.000 F 
ATOM     12  C   UNL     1       5.559   4.242  15.821  0.00  0.00    +0.000 A 
ATOM     13 CL   UNL     1       5.330   4.138  14.116  0.00  0.00    +0.000 Cl
ATOM     14  C   UNL     1       4.470   4.013  16.672  0.00  0.00    +0.000 A 
ENDBRANCH   6   7
BRANCH   1  15
ATOM     15  N   UNL     1       3.154   6.212  19.834  0.00  0.00    +0.000 N 
ATOM     16  H   UNL     1       2.938   6.679  20.710  0.00  0.00    +0.000 HD
BRANCH  15  17
ATOM     17  S   UNL     1       2.587   7.207  18.583  0.00  0.00    +0.000 S 
ATOM     18  O   UNL     1       1.658   6.393  17.827  0.00  0.00    +0.000 OA
ATOM     19  O   UNL     1       3.677   7.913  17.947  0.00  0.00    +0.000 OA
BRANCH  17  23
ATOM     20  C   UNL     1       0.213  10.296  20.983  0.00  0.00    +0.000 A 
ATOM     21  C   UNL     1       0.632   9.102  21.580  0.00  0.00    +0.000 A 
ATOM     22  C   UNL     1       1.350   8.152  20.848  0.00  0.00    +0.000 A 
ATOM     23  C   UNL     1       1.625   8.393  19.503  0.00  0.00    +0.000 A 
ATOM     24  C   UNL     1       1.203   9.578  18.892  0.00  0.00    +0.000 A 
ATOM     25  C   UNL     1       0.491  10.528  19.631  0.00  0.00    +0.000 A 
BRANCH  20  27
ATOM     26  C   UNL     1      -0.915  10.587  23.042  0.00  0.00    +0.000 C 
ATOM     27  O   UNL     1      -0.482  11.140  21.804  0.00  0.00    +0.000 OA
ENDBRANCH  20  27
ENDBRANCH  17  23
ENDBRANCH  15  17
ENDBRANCH   1  15
TORSDOF 5
ENDMDL
MODEL 2
REMARK VINA RESULT:      -8.1      0.884      1.439
REMARK  Name = 
REMARK  6 active torsions:
REMARK  status: ('A' for Active; 'I' for Inactive)
REMARK    1  A    between atoms: C_1  and  O_2
REMARK    2  A    between atoms: O_2  and  C_3
REMARK    3  A    between atoms: C_6  and  S_7
REMARK    4  A    between atoms: S_7  and  N_10
REMARK    5  A    between atoms: N_10  and  C_11
REMARK    6  A    between atoms: C_16  and  C_17
REMARK                            x       y       z     vdW  Elec       q    Type
REMARK                         _______ _______ _______ _____ _____    ______ ____
ROOT
ATOM      1  C   UNL     1       3.211   4.931  19.995  0.00  0.00    +0.000 A 
ATOM      2  C   UNL     1       2.285   4.568  20.987  0.00  0.00    +0.000 A 
ATOM      3  C   UNL     1       2.076   3.232  21.316  0.00  0.00    +0.000 A 
ATOM      4  C   UNL     1       2.796   2.244  20.661  0.00  0.00    +0.000 A 
ATOM      5  C   UNL     1       3.715   2.597  19.670  0.00  0.00    +0.000 A 
ATOM      6  C   UNL     1       3.960   3.944  19.307  0.00  0.00    +0.000 A 
ENDROOT
BRANCH   6   7
ATOM      7  C   UNL     1       4.959   4.206  18.234  0.00  0.00    +0.000 A 
ATOM      8  C   UNL     1       6.286   4.571  18.562  0.00  0.00    +0.000 A 
ATOM      9  C   UNL     1       7.270   4.740  17.581  0.00  0.00    +0.000 A 
ATOM     10  C   UNL     1       6.935   4.588  16.244  0.00  0.00    +0.000 A 
ATOM     11  F   UNL     1       7.888   4.755  15.315  0.00  0.00    +0.000 F 
ATOM     12  C   UNL     1       5.638   4.248  15.883  0.00  0.00    +0.000 A 
ATOM     13 CL   UNL     1       5.205   4.066  14.225  0.00  0.00    +0.000 Cl
ATOM     14  C   UNL     1       4.669   4.028  16.870  0.00  0.00    +0.000 A 
ENDBRANCH   6   7
BRANCH   1  15
ATOM     15  N   UNL     1       3.368   6.344  19.795  0.00  0.00    +0.000 N 
ATOM     16  H   UNL     1       3.017   6.926  20.549  0.00  0.00    +0.000 HD
BRANCH  15  17
ATOM     17  S   UNL     1       2.768   6.987  18.345  0.00  0.00    +0.000 S 
ATOM     18  O   UNL     1       1.852   5.993  17.826  0.00  0.00    +0.000 OA
ATOM     19  O   UNL     1       3.835   7.538  17.540  0.00  0.00    +0.000 OA
BRANCH  17  23
ATOM     20  C   UNL     1       0.155  10.413  19.887  0.00  0.00    +0.000 A 
ATOM     21  C   UNL     1       0.528  10.355  18.540  0.00  0.00    +0.000 A 
ATOM     22  C   UNL     1       1.332   9.315  18.067  0.00  0.00    +0.000 A 
ATOM     23  C   UNL     1       1.786   8.343  18.958  0.00  0.00    +0.000 A 
ATOM     24  C   UNL     1       1.428   8.396  20.309  0.00  0.00    +0.000 A 
ATOM     25  C   UNL     1       0.617   9.435  20.775  0.00  0.00    +0.000 A 
BRANCH  20  27
ATOM     26  C   UNL     1      -0.926  12.392  19.172  0.00  0.00    +0.000 C 
ATOM     27  O   UNL     1      -0.631  11.480  20.224  0.00  0.00    +0.000 OA
ENDBRANCH  20  27
ENDBRANCH  17  23
ENDBRANCH  15  17
ENDBRANCH   1  15
TORSDOF 5
ENDMDL
MODEL 3
REMARK VINA RESULT:      -8.0      1.324      1.966
REMARK  Name = 
REMARK  6 active torsions:
REMARK  status: ('A' for Active; 'I' for Inactive)
REMARK    1  A    between atoms: C_1  and  O_2
REMARK    2  A    between atoms: O_2  and  C_3
REMARK    3  A    between atoms: C_6  and  S_7
REMARK    4  A    between atoms: S_7  and  N_10
REMARK    5  A    between atoms: N_10  and  C_11
REMARK    6  A    between atoms: C_16  and  C_17
REMARK                            x       y       z     vdW  Elec       q    Type
REMARK                         _______ _______ _______ _____ _____    ______ ____
ROOT
ATOM      1  C   UNL     1       2.542   4.823  19.875  0.00  0.00    +0.000 A 
ATOM      2  C   UNL     1       1.416   4.522  20.659  0.00  0.00    +0.000 A 
ATOM      3  C   UNL     1       0.972   3.211  20.800  0.00  0.00    +0.000 A 
ATOM      4  C   UNL     1       1.653   2.184  20.163  0.00  0.00    +0.000 A 
ATOM      5  C   UNL     1       2.771   2.476  19.378  0.00  0.00    +0.000 A 
ATOM      6  C   UNL     1       3.258   3.796  19.211  0.00  0.00    +0.000 A 
ENDROOT
BRANCH   6   7
ATOM      7  C   UNL     1       4.455   3.993  18.348  0.00  0.00    +0.000 A 
ATOM      8  C   UNL     1       4.408   3.677  16.970  0.00  0.00    +0.000 A 
ATOM      9  C   UNL     1       5.487   3.932  16.116  0.00  0.00    +0.000 A 
ATOM     10  C   UNL     1       6.656   4.470  16.632  0.00  0.00    +0.000 A 
ATOM     11  F   UNL     1       7.681   4.707  15.802  0.00  0.00    +0.000 F 
ATOM     12  C   UNL     1       6.745   4.776  17.984  0.00  0.00    +0.000 A 
ATOM     13 CL   UNL     1       8.194   5.437  18.642  0.00  0.00    +0.000 Cl
ATOM     14  C   UNL     1       5.645   4.570  18.826  0.00  0.00    +0.000 A 
ENDBRANCH   6   7
BRANCH   1  15
ATOM     15  N   UNL     1       2.924   6.207  19.861  0.00  0.00    +0.000 N 
ATOM     16  H   UNL     1       2.549   6.763  20.624  0.00  0.00    +0.000 HD
BRANCH  15  17
ATOM     17  S   UNL     1       2.642   7.068  18.428  0.00  0.00    +0.000 S 
ATOM     18  O   UNL     1       1.728   6.253  17.656  0.00  0.00    +0.000 OA
ATOM     19  O   UNL     1       3.880   7.567  17.871  0.00  0.00    +0.000 OA
BRANCH  17  23
ATOM     20  C   UNL     1       0.173  10.593  19.984  0.00  0.00    +0.000 A 
ATOM     21  C   UNL     1       0.554  10.532  18.640  0.00  0.00    +0.000 A 
ATOM     22  C   UNL     1       1.316   9.462  18.162  0.00  0.00    +0.000 A 
ATOM     23  C   UNL     1       1.717   8.461  19.047  0.00  0.00    +0.000 A 
ATOM     24  C   UNL     1       1.350   8.516  20.395  0.00  0.00    +0.000 A 
ATOM     25  C   UNL     1       0.582   9.586  20.866  0.00  0.00    +0.000 A 
BRANCH  20  27
ATOM     26  C   UNL     1      -1.514  12.129  19.358  0.00  0.00    +0.000 C 
ATOM     27  O   UNL     1      -0.567  11.690  20.326  0.00  0.00    +0.000 OA
ENDBRANCH  20  27
ENDBRANCH  17  23
ENDBRANCH  15  17
ENDBRANCH   1  15
TORSDOF 5
ENDMDL
MODEL 4
REMARK VINA RESULT:      -8.0      1.226      1.552
REMARK  Name = 
REMARK  6 active torsions:
REMARK  status: ('A' for Active; 'I' for Inactive)
REMARK    1  A    between atoms: C_1  and  O_2
REMARK    2  A    between atoms: O_2  and  C_3
REMARK    3  A    between atoms: C_6  and  S_7
REMARK    4  A    between atoms: S_7  and  N_10
REMARK    5  A    between atoms: N_10  and  C_11
REMARK    6  A    between atoms: C_16  and  C_17
REMARK                            x       y       z     vdW  Elec       q    Type
REMARK                         _______ _______ _______ _____ _____    ______ ____
ROOT
ATOM      1  C   UNL     1       2.546   4.811  19.859  0.00  0.00    +0.000 A 
ATOM      2  C   UNL     1       1.423   4.509  20.647  0.00  0.00    +0.000 A 
ATOM      3  C   UNL     1       0.977   3.197  20.785  0.00  0.00    +0.000 A 
ATOM      4  C   UNL     1       1.654   2.172  20.142  0.00  0.00    +0.000 A 
ATOM      5  C   UNL     1       2.770   2.465  19.354  0.00  0.00    +0.000 A 
ATOM      6  C   UNL     1       3.258   3.785  19.189  0.00  0.00    +0.000 A 
ENDROOT
BRANCH   6   7
ATOM      7  C   UNL     1       4.453   3.983  18.323  0.00  0.00    +0.000 A 
ATOM      8  C   UNL     1       4.394   3.689  16.940  0.00  0.00    +0.000 A 
ATOM      9  C   UNL     1       5.471   3.946  16.084  0.00  0.00    +0.000 A 
ATOM     10  C   UNL     1       6.648   4.464  16.602  0.00  0.00    +0.000 A 
ATOM     11  F   UNL     1       7.671   4.703  15.769  0.00  0.00    +0.000 F 
ATOM     12  C   UNL     1       6.748   4.749  17.958  0.00  0.00    +0.000 A 
ATOM     13 CL   UNL     1       8.207   5.385  18.617  0.00  0.00    +0.000 Cl
ATOM     14  C   UNL     1       5.651   4.541  18.802  0.00  0.00    +0.000 A 
ENDBRANCH   6   7
BRANCH   1  15
ATOM     15  N   UNL     1       2.930   6.194  19.849  0.00  0.00    +0.000 N 
ATOM     16  H   UNL     1       2.564   6.747  20.618  0.00  0.00    +0.000 HD
BRANCH  15  17
ATOM     17  S   UNL     1       2.635   7.063  18.423  0.00  0.00    +0.000 S 
ATOM     18  O   UNL     1       1.662   6.285  17.685  0.00  0.00    +0.000 OA
ATOM     19  O   UNL     1       3.872   7.508  17.821  0.00  0.00    +0.000 OA
BRANCH  17  23
ATOM     20  C   UNL     1       0.565  10.775  20.118  0.00  0.00    +0.000 A 
ATOM     21  C   UNL     1       0.765   9.646  20.919  0.00  0.00    +0.000 A 
ATOM     22  C   UNL     1       1.389   8.507  20.402  0.00  0.00    +0.000 A 
ATOM     23  C   UNL     1       1.790   8.495  19.067  0.00  0.00    +0.000 A 
ATOM     24  C   UNL     1       1.587   9.614  18.254  0.00  0.00    +0.000 A 
ATOM     25  C   UNL     1       0.968  10.754  18.778  0.00  0.00    +0.000 A 
BRANCH  20  27
ATOM     26  C   UNL     1      -0.879  11.485  21.853  0.00  0.00    +0.000 C 
ATOM     27  O   UNL     1      -0.058  11.821  20.739  0.00  0.00    +0.000 OA
ENDBRANCH  20  27
ENDBRANCH  17  23
ENDBRANCH  15  17
ENDBRANCH   1  15
TORSDOF 5
ENDMDL
MODEL 5
REMARK VINA RESULT:      -7.8      1.450      1.661
REMARK  Name = 
REMARK  6 active torsions:
REMARK  status: ('A' for Active; 'I' for Inactive)
REMARK    1  A    between atoms: C_1  and  O_2
REMARK    2  A    between atoms: O_2  and  C_3
REMARK    3  A    between atoms: C_6  and  S_7
REMARK    4  A    between atoms: S_7  and  N_10
REMARK    5  A    between atoms: N_10  and  C_11
REMARK    6  A    between atoms: C_16  and  C_17
REMARK                            x       y       z     vdW  Elec       q    Type
REMARK                         _______ _______ _______ _____ _____    ______ ____
ROOT
ATOM      1  C   UNL     1       2.421   4.268  17.999  0.00  0.00    +0.000 A 
ATOM      2  C   UNL     1       1.384   3.747  18.790  0.00  0.00    +0.000 A 
ATOM      3  C   UNL     1       1.416   2.429  19.235  0.00  0.00    +0.000 A 
ATOM      4  C   UNL     1       2.490   1.618  18.899  0.00  0.00    +0.000 A 
ATOM      5  C   UNL     1       3.524   2.128  18.109  0.00  0.00    +0.000 A 
ATOM      6  C   UNL     1       3.531   3.464  17.638  0.00  0.00    +0.000 A 
ENDROOT
BRANCH   6   7
ATOM      7  C   UNL     1       4.682   3.902  16.800  0.00  0.00    +0.000 A 
ATOM      8  C   UNL     1       5.833   4.466  17.398  0.00  0.00    +0.000 A 
ATOM      9  C   UNL     1       6.963   4.806  16.647  0.00  0.00    +0.000 A 
ATOM     10  C   UNL     1       6.951   4.629  15.272  0.00  0.00    +0.000 A 
ATOM     11  F   UNL     1       8.041   4.962  14.567  0.00  0.00    +0.000 F 
ATOM     12  C   UNL     1       5.831   4.094  14.649  0.00  0.00    +0.000 A 
ATOM     13 CL   UNL     1       5.797   3.877  12.939  0.00  0.00    +0.000 Cl
ATOM     14  C   UNL     1       4.721   3.705  15.409  0.00  0.00    +0.000 A 
ENDBRANCH   6   7
BRANCH   1  15
ATOM     15  N   UNL     1       2.290   5.656  17.657  0.00  0.00    +0.000 N 
ATOM     16  H   UNL     1       2.395   5.867  16.669  0.00  0.00    +0.000 HD
BRANCH  15  17
ATOM     17  S   UNL     1       3.261   6.754  18.510  0.00  0.00    +0.000 S 
ATOM     18  O   UNL     1       4.132   7.354  17.522  0.00  0.00    +0.000 OA
ATOM     19  O   UNL     1       3.778   6.157  19.722  0.00  0.00    +0.000 OA
BRANCH  17  23
ATOM     20  C   UNL     1       0.253   9.978  19.732  0.00  0.00    +0.000 A 
ATOM     21  C   UNL     1       0.724   9.054  20.671  0.00  0.00    +0.000 A 
ATOM     22  C   UNL     1       1.637   8.063  20.300  0.00  0.00    +0.000 A 
ATOM     23  C   UNL     1       2.057   7.984  18.973  0.00  0.00    +0.000 A 
ATOM     24  C   UNL     1       1.585   8.896  18.023  0.00  0.00    +0.000 A 
ATOM     25  C   UNL     1       0.677   9.890  18.401  0.00  0.00    +0.000 A 
BRANCH  20  27
ATOM     26  C   UNL     1      -1.384  11.615  19.245  0.00  0.00    +0.000 C 
ATOM     27  O   UNL     1      -0.636  10.895  20.219  0.00  0.00    +0.000 OA
ENDBRANCH  20  27
ENDBRANCH  17  23
ENDBRANCH  15  17
ENDBRANCH   1  15
TORSDOF 5
ENDMDL
MODEL 6
REMARK VINA RESULT:      -7.6      4.042      6.258
REMARK  Name = 
REMARK  6 active torsions:
REMARK  status: ('A' for Active; 'I' for Inactive)
REMARK    1  A    between atoms: C_1  and  O_2
REMARK    2  A    between atoms: O_2  and  C_3
REMARK    3  A    between atoms: C_6  and  S_7
REMARK    4  A    between atoms: S_7  and  N_10
REMARK    5  A    between atoms: N_10  and  C_11
REMARK    6  A    between atoms: C_16  and  C_17
REMARK                            x       y       z     vdW  Elec       q    Type
REMARK                         _______ _______ _______ _____ _____    ______ ____
ROOT
ATOM      1  C   UNL     1       3.993   4.093  18.882  0.00  0.00    +0.000 A 
ATOM      2  C   UNL     1       4.147   2.706  18.724  0.00  0.00    +0.000 A 
ATOM      3  C   UNL     1       3.048   1.886  18.484  0.00  0.00    +0.000 A 
ATOM      4  C   UNL     1       1.783   2.446  18.392  0.00  0.00    +0.000 A 
ATOM      5  C   UNL     1       1.621   3.825  18.552  0.00  0.00    +0.000 A 
ATOM      6  C   UNL     1       2.713   4.694  18.795  0.00  0.00    +0.000 A 
ENDROOT
BRANCH   6   7
ATOM      7  C   UNL     1       2.425   6.147  18.954  0.00  0.00    +0.000 A 
ATOM      8  C   UNL     1       2.515   7.022  17.847  0.00  0.00    +0.000 A 
ATOM      9  C   UNL     1       2.168   8.374  17.944  0.00  0.00    +0.000 A 
ATOM     10  C   UNL     1       1.763   8.891  19.165  0.00  0.00    +0.000 A 
ATOM     11  F   UNL     1       1.435  10.188  19.243  0.00  0.00    +0.000 F 
ATOM     12  C   UNL     1       1.680   8.064  20.279  0.00  0.00    +0.000 A 
ATOM     13 CL   UNL     1       1.187   8.694  21.805  0.00  0.00    +0.000 Cl
ATOM     14  C   UNL     1       1.977   6.701  20.166  0.00  0.00    +0.000 A 
ENDBRANCH   6   7
BRANCH   1  15
ATOM     15  N   UNL     1       5.214   4.825  19.068  0.00  0.00    +0.000 N 
ATOM     16  H   UNL     1       5.095   5.787  19.373  0.00  0.00    +0.000 HD
BRANCH  15  17
ATOM     17  S   UNL     1       6.306   4.842  17.771  0.00  0.00    +0.000 S 
ATOM     18  O   UNL     1       5.492   4.806  16.575  0.00  0.00    +0.000 OA
ATOM     19  O   UNL     1       7.385   3.904  17.990  0.00  0.00    +0.000 OA
BRANCH  17  23
ATOM     20  C   UNL     1       8.093   9.045  18.052  0.00  0.00    +0.000 A 
ATOM     21  C   UNL     1       8.629   7.994  18.803  0.00  0.00    +0.000 A 
ATOM     22  C   UNL     1       8.081   6.711  18.727  0.00  0.00    +0.000 A 
ATOM     23  C   UNL     1       6.972   6.489  17.911  0.00  0.00    +0.000 A 
ATOM     24  C   UNL     1       6.421   7.535  17.163  0.00  0.00    +0.000 A 
ATOM     25  C   UNL     1       6.978   8.816  17.238  0.00  0.00    +0.000 A 
BRANCH  20  27
ATOM     26  C   UNL     1       9.420  10.425  19.443  0.00  0.00    +0.000 C 
ATOM     27  O   UNL     1       8.716  10.251  18.217  0.00  0.00    +0.000 OA
ENDBRANCH  20  27
ENDBRANCH  17  23
ENDBRANCH  15  17
ENDBRANCH   1  15
TORSDOF 5
ENDMDL
MODEL 7
REMARK VINA RESULT:      -7.6      1.620      2.175
REMARK  Name = 
REMARK  6 active torsions:
REMARK  status: ('A' for Active; 'I' for Inactive)
REMARK    1  A    between atoms: C_1  and  O_2
REMARK    2  A    between atoms: O_2  and  C_3
REMARK    3  A    between atoms: C_6  and  S_7
REMARK    4  A    between atoms: S_7  and  N_10
REMARK    5  A    between atoms: N_10  and  C_11
REMARK    6  A    between atoms: C_16  and  C_17
REMARK                            x       y       z     vdW  Elec       q    Type
REMARK                         _______ _______ _______ _____ _____    ______ ____
ROOT
ATOM      1  C   UNL     1       2.074   4.260  18.016  0.00  0.00    +0.000 A 
ATOM      2  C   UNL     1       0.926   3.783  18.671  0.00  0.00    +0.000 A 
ATOM      3  C   UNL     1       0.817   2.445  19.040  0.00  0.00    +0.000 A 
ATOM      4  C   UNL     1       1.858   1.571  18.764  0.00  0.00    +0.000 A 
ATOM      5  C   UNL     1       3.001   2.038  18.110  0.00  0.00    +0.000 A 
ATOM      6  C   UNL     1       3.153   3.391  17.720  0.00  0.00    +0.000 A 
ENDROOT
BRANCH   6   7
ATOM      7  C   UNL     1       4.411   3.778  17.024  0.00  0.00    +0.000 A 
ATOM      8  C   UNL     1       4.418   4.012  15.629  0.00  0.00    +0.000 A 
ATOM      9  C   UNL     1       5.563   4.461  14.961  0.00  0.00    +0.000 A 
ATOM     10  C   UNL     1       6.741   4.645  15.669  0.00  0.00    +0.000 A 
ATOM     11  F   UNL     1       7.829   5.074  15.015  0.00  0.00    +0.000 F 
ATOM     12  C   UNL     1       6.776   4.407  17.038  0.00  0.00    +0.000 A 
ATOM     13 CL   UNL     1       8.235   4.622  17.929  0.00  0.00    +0.000 Cl
ATOM     14  C   UNL     1       5.615   4.010  17.712  0.00  0.00    +0.000 A 
ENDBRANCH   6   7
BRANCH   1  15
ATOM     15  N   UNL     1       2.079   5.669  17.743  0.00  0.00    +0.000 N 
ATOM     16  H   UNL     1       2.209   5.917  16.767  0.00  0.00    +0.000 HD
BRANCH  15  17
ATOM     17  S   UNL     1       3.148   6.624  18.650  0.00  0.00    +0.000 S 
ATOM     18  O   UNL     1       4.085   7.175  17.694  0.00  0.00    +0.000 OA
ATOM     19  O   UNL     1       3.588   5.926  19.837  0.00  0.00    +0.000 OA
BRANCH  17  23
ATOM     20  C   UNL     1       0.293   9.968  19.918  0.00  0.00    +0.000 A 
ATOM     21  C   UNL     1       0.794   9.919  18.613  0.00  0.00    +0.000 A 
ATOM     22  C   UNL     1       1.672   8.904  18.224  0.00  0.00    +0.000 A 
ATOM     23  C   UNL     1       2.070   7.949  19.159  0.00  0.00    +0.000 A 
ATOM     24  C   UNL     1       1.583   7.994  20.470  0.00  0.00    +0.000 A 
ATOM     25  C   UNL     1       0.699   9.007  20.851  0.00  0.00    +0.000 A 
BRANCH  20  27
ATOM     26  C   UNL     1      -0.532  11.519  21.502  0.00  0.00    +0.000 C 
ATOM     27  O   UNL     1      -0.555  11.009  20.173  0.00  0.00    +0.000 OA
ENDBRANCH  20  27
ENDBRANCH  17  23
ENDBRANCH  15  17
ENDBRANCH   1  15
TORSDOF 5
ENDMDL
MODEL 8
REMARK VINA RESULT:      -7.5      1.690      2.089
REMARK  Name = 
REMARK  6 active torsions:
REMARK  status: ('A' for Active; 'I' for Inactive)
REMARK    1  A    between atoms: C_1  and  O_2
REMARK    2  A    between atoms: O_2  and  C_3
REMARK    3  A    between atoms: C_6  and  S_7
REMARK    4  A    between atoms: S_7  and  N_10
REMARK    5  A    between atoms: N_10  and  C_11
REMARK    6  A    between atoms: C_16  and  C_17
REMARK                            x       y       z     vdW  Elec       q    Type
REMARK                         _______ _______ _______ _____ _____    ______ ____
ROOT
ATOM      1  C   UNL     1       2.068   4.251  18.057  0.00  0.00    +0.000 A 
ATOM      2  C   UNL     1       0.916   3.784  18.712  0.00  0.00    +0.000 A 
ATOM      3  C   UNL     1       0.816   2.460  19.128  0.00  0.00    +0.000 A 
ATOM      4  C   UNL     1       1.870   1.588  18.900  0.00  0.00    +0.000 A 
ATOM      5  C   UNL     1       3.018   2.044  18.247  0.00  0.00    +0.000 A 
ATOM      6  C   UNL     1       3.162   3.384  17.809  0.00  0.00    +0.000 A 
ENDROOT
BRANCH   6   7
ATOM      7  C   UNL     1       4.426   3.761  17.119  0.00  0.00    +0.000 A 
ATOM      8  C   UNL     1       4.458   3.921  15.714  0.00  0.00    +0.000 A 
ATOM      9  C   UNL     1       5.606   4.358  15.046  0.00  0.00    +0.000 A 
ATOM     10  C   UNL     1       6.765   4.603  15.767  0.00  0.00    +0.000 A 
ATOM     11  F   UNL     1       7.859   5.020  15.112  0.00  0.00    +0.000 F 
ATOM     12  C   UNL     1       6.777   4.439  17.146  0.00  0.00    +0.000 A 
ATOM     13 CL   UNL     1       8.213   4.730  18.054  0.00  0.00    +0.000 Cl
ATOM     14  C   UNL     1       5.611   4.053  17.818  0.00  0.00    +0.000 A 
ENDBRANCH   6   7
BRANCH   1  15
ATOM     15  N   UNL     1       2.061   5.649  17.733  0.00  0.00    +0.000 N 
ATOM     16  H   UNL     1       2.215   5.863  16.752  0.00  0.00    +0.000 HD
BRANCH  15  17
ATOM     17  S   UNL     1       3.093   6.651  18.632  0.00  0.00    +0.000 S 
ATOM     18  O   UNL     1       4.063   7.162  17.686  0.00  0.00    +0.000 OA
ATOM     19  O   UNL     1       3.492   6.012  19.866  0.00  0.00    +0.000 OA
BRANCH  17  23
ATOM     20  C   UNL     1       0.354  10.156  19.709  0.00  0.00    +0.000 A 
ATOM     21  C   UNL     1       0.746   9.234  20.686  0.00  0.00    +0.000 A 
ATOM     22  C   UNL     1       1.575   8.158  20.359  0.00  0.00    +0.000 A 
ATOM     23  C   UNL     1       1.992   7.993  19.039  0.00  0.00    +0.000 A 
ATOM     24  C   UNL     1       1.598   8.902  18.051  0.00  0.00    +0.000 A 
ATOM     25  C   UNL     1       0.773   9.981  18.385  0.00  0.00    +0.000 A 
BRANCH  20  27
ATOM     26  C   UNL     1      -0.471  12.346  19.366  0.00  0.00    +0.000 C 
ATOM     27  O   UNL     1      -0.459  11.160  20.154  0.00  0.00    +0.000 OA
ENDBRANCH  20  27
ENDBRANCH  17  23
ENDBRANCH  15  17
ENDBRANCH   1  15
TORSDOF 5
ENDMDL
MODEL 9
REMARK VINA RESULT:      -7.4      4.069      7.201
REMARK  Name = 
REMARK  6 active torsions:
REMARK  status: ('A' for Active; 'I' for Inactive)
REMARK    1  A    between atoms: C_1  and  O_2
REMARK    2  A    between atoms: O_2  and  C_3
REMARK    3  A    between atoms: C_6  and  S_7
REMARK    4  A    between atoms: S_7  and  N_10
REMARK    5  A    between atoms: N_10  and  C_11
REMARK    6  A    between atoms: C_16  and  C_17
REMARK                            x       y       z     vdW  Elec       q    Type
REMARK                         _______ _______ _______ _____ _____    ______ ____
ROOT
ATOM      1  C   UNL     1       4.432   4.835  18.771  0.00  0.00    +0.000 A 
ATOM      2  C   UNL     1       4.786   3.503  18.500  0.00  0.00    +0.000 A 
ATOM      3  C   UNL     1       3.881   2.629  17.905  0.00  0.00    +0.000 A 
ATOM      4  C   UNL     1       2.613   3.080  17.568  0.00  0.00    +0.000 A 
ATOM      5  C   UNL     1       2.253   4.402  17.839  0.00  0.00    +0.000 A 
ATOM      6  C   UNL     1       3.144   5.324  18.440  0.00  0.00    +0.000 A 
ENDROOT
BRANCH   6   7
ATOM      7  C   UNL     1       2.654   6.709  18.687  0.00  0.00    +0.000 A 
ATOM      8  C   UNL     1       2.659   7.669  17.648  0.00  0.00    +0.000 A 
ATOM      9  C   UNL     1       2.126   8.950  17.824  0.00  0.00    +0.000 A 
ATOM     10  C   UNL     1       1.613   9.314  19.060  0.00  0.00    +0.000 A 
ATOM     11  F   UNL     1       1.107  10.547  19.213  0.00  0.00    +0.000 F 
ATOM     12  C   UNL     1       1.608   8.404  20.108  0.00  0.00    +0.000 A 
ATOM     13 CL   UNL     1       0.982   8.845  21.652  0.00  0.00    +0.000 Cl
ATOM     14  C   UNL     1       2.093   7.105  19.914  0.00  0.00    +0.000 A 
ENDBRANCH   6   7
BRANCH   1  15
ATOM     15  N   UNL     1       5.478   5.641  19.334  0.00  0.00    +0.000 N 
ATOM     16  H   UNL     1       5.203   6.585  19.588  0.00  0.00    +0.000 HD
BRANCH  15  17
ATOM     17  S   UNL     1       6.919   5.760  18.448  0.00  0.00    +0.000 S 
ATOM     18  O   UNL     1       7.785   4.724  18.970  0.00  0.00    +0.000 OA
ATOM     19  O   UNL     1       7.351   7.136  18.342  0.00  0.00    +0.000 OA
BRANCH  17  23
ATOM     20  C   UNL     1       5.590   4.464  14.265  0.00  0.00    +0.000 A 
ATOM     21  C   UNL     1       5.110   5.651  14.827  0.00  0.00    +0.000 A 
ATOM     22  C   UNL     1       5.507   6.047  16.107  0.00  0.00    +0.000 A 
ATOM     23  C   UNL     1       6.370   5.231  16.836  0.00  0.00    +0.000 A 
ATOM     24  C   UNL     1       6.850   4.036  16.290  0.00  0.00    +0.000 A 
ATOM     25  C   UNL     1       6.455   3.649  15.005  0.00  0.00    +0.000 A 
BRANCH  20  27
ATOM     26  C   UNL     1       5.887   3.251  12.256  0.00  0.00    +0.000 C 
ATOM     27  O   UNL     1       5.126   4.188  13.009  0.00  0.00    +0.000 OA
ENDBRANCH  20  27
ENDBRANCH  17  23
ENDBRANCH  15  17
ENDBRANCH   1  15
TORSDOF 5
ENDMDL
