MODEL 1
REMARK VINA RESULT:      -6.0      0.000      0.000
REMARK  Name = 
REMARK  4 active torsions:
REMARK  status: ('A' for Active; 'I' for Inactive)
REMARK    1  A    between atoms: C_1  and  C_2
REMARK    2  A    between atoms: C_7  and  C_8
REMARK    3  A    between atoms: C_8  and  C_9
REMARK    4  A    between atoms: C_8  and  C_10
REMARK                            x       y       z     vdW  Elec       q    Type
REMARK                         _______ _______ _______ _____ _____    ______ ____
ROOT
ATOM      1  C   UNL     1       7.791   7.841  17.480  0.00  0.00    +0.000 C 
ATOM      2  C   UNL     1       6.936   6.659  17.746  0.00  0.00    +0.000 C 
ATOM      3  C   UNL     1       7.023   5.789  18.763  0.00  0.00    +0.000 C 
ATOM      4  C   UNL     1       5.913   4.822  18.711  0.00  0.00    +0.000 C 
ATOM      5  O   UNL     1       5.782   3.882  19.468  0.00  0.00    +0.000 OA
ATOM      6  C   UNL     1       5.061   5.235  17.583  0.00  0.00    +0.000 C 
ATOM      7  C   UNL     1       3.826   4.827  17.254  0.00  0.00    +0.000 C 
ATOM      8  C   UNL     1       5.764   6.338  16.898  0.00  0.00    +0.000 C 
ATOM      9  O   UNL     1       5.442   6.907  15.874  0.00  0.00    +0.000 OA
ENDROOT
BRANCH   7  10
ATOM     10  C   UNL     1       2.969   3.863  18.038  0.00  0.00    +0.000 C 
ATOM     11  C   UNL     1       1.494   4.224  17.846  0.00  0.00    +0.000 C 
ATOM     12  C   UNL     1       3.229   2.419  17.620  0.00  0.00    +0.000 C 
ENDBRANCH   7  10
TORSDOF 1
ENDMDL
MODEL 2
REMARK VINA RESULT:      -6.0      2.499      5.235
REMARK  Name = 
REMARK  4 active torsions:
REMARK  status: ('A' for Active; 'I' for Inactive)
REMARK    1  A    between atoms: C_1  and  C_2
REMARK    2  A    between atoms: C_7  and  C_8
REMARK    3  A    between atoms: C_8  and  C_9
REMARK    4  A    between atoms: C_8  and  C_10
REMARK                            x       y       z     vdW  Elec       q    Type
REMARK                         _______ _______ _______ _____ _____    ______ ____
ROOT
ATOM      1  C   UNL     1       1.524   2.539  21.785  0.00  0.00    +0.000 C 
ATOM      2  C   UNL     1       1.868   2.892  20.386  0.00  0.00    +0.000 C 
ATOM      3  C   UNL     1       1.073   3.428  19.450  0.00  0.00    +0.000 C 
ATOM      4  C   UNL     1       1.840   3.719  18.227  0.00  0.00    +0.000 C 
ATOM      5  O   UNL     1       1.358   4.145  17.197  0.00  0.00    +0.000 OA
ATOM      6  C   UNL     1       3.240   3.380  18.529  0.00  0.00    +0.000 C 
ATOM      7  C   UNL     1       4.354   3.665  17.839  0.00  0.00    +0.000 C 
ATOM      8  C   UNL     1       3.248   2.750  19.866  0.00  0.00    +0.000 C 
ATOM      9  O   UNL     1       4.189   2.254  20.451  0.00  0.00    +0.000 OA
ENDROOT
BRANCH   7  10
ATOM     10  C   UNL     1       4.433   4.494  16.580  0.00  0.00    +0.000 C 
ATOM     11  C   UNL     1       4.579   5.972  16.952  0.00  0.00    +0.000 C 
ATOM     12  C   UNL     1       5.590   4.046  15.691  0.00  0.00    +0.000 C 
ENDBRANCH   7  10
TORSDOF 1
ENDMDL
MODEL 3
REMARK VINA RESULT:      -5.9      2.182      4.588
REMARK  Name = 
REMARK  4 active torsions:
REMARK  status: ('A' for Active; 'I' for Inactive)
REMARK    1  A    between atoms: C_1  and  C_2
REMARK    2  A    between atoms: C_7  and  C_8
REMARK    3  A    between atoms: C_8  and  C_9
REMARK    4  A    between atoms: C_8  and  C_10
REMARK                            x       y       z     vdW  Elec       q    Type
REMARK                         _______ _______ _______ _____ _____    ______ ____
ROOT
ATOM      1  C   UNL     1       0.960   2.680  19.770  0.00  0.00    +0.000 C 
ATOM      2  C   UNL     1       2.257   3.212  19.285  0.00  0.00    +0.000 C 
ATOM      3  C   UNL     1       3.446   3.178  19.903  0.00  0.00    +0.000 C 
ATOM      4  C   UNL     1       4.498   3.722  19.027  0.00  0.00    +0.000 C 
ATOM      5  O   UNL     1       5.657   3.874  19.356  0.00  0.00    +0.000 OA
ATOM      6  C   UNL     1       3.846   4.031  17.745  0.00  0.00    +0.000 C 
ATOM      7  C   UNL     1       4.397   4.335  16.560  0.00  0.00    +0.000 C 
ATOM      8  C   UNL     1       2.398   3.811  17.937  0.00  0.00    +0.000 C 
ATOM      9  O   UNL     1       1.499   4.027  17.150  0.00  0.00    +0.000 OA
ENDROOT
BRANCH   7  10
ATOM     10  C   UNL     1       5.873   4.361  16.246  0.00  0.00    +0.000 C 
ATOM     11  C   UNL     1       6.097   3.875  14.812  0.00  0.00    +0.000 C 
ATOM     12  C   UNL     1       6.458   5.758  16.438  0.00  0.00    +0.000 C 
ENDBRANCH   7  10
TORSDOF 1
ENDMDL
MODEL 4
REMARK VINA RESULT:      -5.8      2.268      3.388
REMARK  Name = 
REMARK  4 active torsions:
REMARK  status: ('A' for Active; 'I' for Inactive)
REMARK    1  A    between atoms: C_1  and  C_2
REMARK    2  A    between atoms: C_7  and  C_8
REMARK    3  A    between atoms: C_8  and  C_9
REMARK    4  A    between atoms: C_8  and  C_10
REMARK                            x       y       z     vdW  Elec       q    Type
REMARK                         _______ _______ _______ _____ _____    ______ ____
ROOT
ATOM      1  C   UNL     1       6.958   4.479  16.536  0.00  0.00    +0.000 C 
ATOM      2  C   UNL     1       5.598   4.319  17.104  0.00  0.00    +0.000 C 
ATOM      3  C   UNL     1       4.483   3.921  16.476  0.00  0.00    +0.000 C 
ATOM      4  C   UNL     1       3.369   3.795  17.432  0.00  0.00    +0.000 C 
ATOM      5  O   UNL     1       2.227   3.517  17.126  0.00  0.00    +0.000 OA
ATOM      6  C   UNL     1       3.934   4.081  18.760  0.00  0.00    +0.000 C 
ATOM      7  C   UNL     1       3.398   3.887  19.975  0.00  0.00    +0.000 C 
ATOM      8  C   UNL     1       5.328   4.522  18.547  0.00  0.00    +0.000 C 
ATOM      9  O   UNL     1       6.117   4.928  19.375  0.00  0.00    +0.000 OA
ENDROOT
BRANCH   7  10
ATOM     10  C   UNL     1       2.066   3.237  20.265  0.00  0.00    +0.000 C 
ATOM     11  C   UNL     1       2.136   2.517  21.614  0.00  0.00    +0.000 C 
ATOM     12  C   UNL     1       0.935   4.261  20.259  0.00  0.00    +0.000 C 
ENDBRANCH   7  10
TORSDOF 1
ENDMDL
MODEL 5
REMARK VINA RESULT:      -5.8      2.172      4.776
REMARK  Name = 
REMARK  4 active torsions:
REMARK  status: ('A' for Active; 'I' for Inactive)
REMARK    1  A    between atoms: C_1  and  C_2
REMARK    2  A    between atoms: C_7  and  C_8
REMARK    3  A    between atoms: C_8  and  C_9
REMARK    4  A    between atoms: C_8  and  C_10
REMARK                            x       y       z     vdW  Elec       q    Type
REMARK                         _______ _______ _______ _____ _____    ______ ____
ROOT
ATOM      1  C   UNL     1       1.067   3.406  19.907  0.00  0.00    +0.000 C 
ATOM      2  C   UNL     1       1.985   4.059  18.943  0.00  0.00    +0.000 C 
ATOM      3  C   UNL     1       2.358   5.346  18.898  0.00  0.00    +0.000 C 
ATOM      4  C   UNL     1       3.368   5.555  17.847  0.00  0.00    +0.000 C 
ATOM      5  O   UNL     1       3.830   6.635  17.541  0.00  0.00    +0.000 OA
ATOM      6  C   UNL     1       3.654   4.226  17.282  0.00  0.00    +0.000 C 
ATOM      7  C   UNL     1       4.645   3.844  16.463  0.00  0.00    +0.000 C 
ATOM      8  C   UNL     1       2.698   3.284  17.900  0.00  0.00    +0.000 C 
ATOM      9  O   UNL     1       2.544   2.106  17.650  0.00  0.00    +0.000 OA
ENDROOT
BRANCH   7  10
ATOM     10  C   UNL     1       5.778   4.711  15.972  0.00  0.00    +0.000 C 
ATOM     11  C   UNL     1       6.975   4.567  16.916  0.00  0.00    +0.000 C 
ATOM     12  C   UNL     1       6.174   4.353  14.542  0.00  0.00    +0.000 C 
ENDBRANCH   7  10
TORSDOF 1
ENDMDL
MODEL 6
REMARK VINA RESULT:      -5.7      1.845      2.849
REMARK  Name = 
REMARK  4 active torsions:
REMARK  status: ('A' for Active; 'I' for Inactive)
REMARK    1  A    between atoms: C_1  and  C_2
REMARK    2  A    between atoms: C_7  and  C_8
REMARK    3  A    between atoms: C_8  and  C_9
REMARK    4  A    between atoms: C_8  and  C_10
REMARK                            x       y       z     vdW  Elec       q    Type
REMARK                         _______ _______ _______ _____ _____    ______ ____
ROOT
ATOM      1  C   UNL     1       7.115   6.348  17.127  0.00  0.00    +0.000 C 
ATOM      2  C   UNL     1       5.750   6.223  17.692  0.00  0.00    +0.000 C 
ATOM      3  C   UNL     1       4.639   6.873  17.320  0.00  0.00    +0.000 C 
ATOM      4  C   UNL     1       3.473   6.374  18.069  0.00  0.00    +0.000 C 
ATOM      5  O   UNL     1       2.351   6.832  17.983  0.00  0.00    +0.000 OA
ATOM      6  C   UNL     1       3.965   5.267  18.905  0.00  0.00    +0.000 C 
ATOM      7  C   UNL     1       3.273   4.349  19.596  0.00  0.00    +0.000 C 
ATOM      8  C   UNL     1       5.434   5.236  18.752  0.00  0.00    +0.000 C 
ATOM      9  O   UNL     1       6.230   4.526  19.332  0.00  0.00    +0.000 OA
ENDROOT
BRANCH   7  10
ATOM     10  C   UNL     1       1.772   4.195  19.616  0.00  0.00    +0.000 C 
ATOM     11  C   UNL     1       1.325   3.407  18.382  0.00  0.00    +0.000 C 
ATOM     12  C   UNL     1       1.301   3.507  20.894  0.00  0.00    +0.000 C 
ENDBRANCH   7  10
TORSDOF 1
ENDMDL
MODEL 7
REMARK VINA RESULT:      -5.6      2.308      4.674
REMARK  Name = 
REMARK  4 active torsions:
REMARK  status: ('A' for Active; 'I' for Inactive)
REMARK    1  A    between atoms: C_1  and  C_2
REMARK    2  A    between atoms: C_7  and  C_8
REMARK    3  A    between atoms: C_8  and  C_9
REMARK    4  A    between atoms: C_8  and  C_10
REMARK                            x       y       z     vdW  Elec       q    Type
REMARK                         _______ _______ _______ _____ _____    ______ ____
ROOT
ATOM      1  C   UNL     1       1.017   3.018  20.745  0.00  0.00    +0.000 C 
ATOM      2  C   UNL     1       2.053   3.750  19.977  0.00  0.00    +0.000 C 
ATOM      3  C   UNL     1       3.082   4.466  20.453  0.00  0.00    +0.000 C 
ATOM      4  C   UNL     1       3.935   4.940  19.350  0.00  0.00    +0.000 C 
ATOM      5  O   UNL     1       4.898   5.667  19.487  0.00  0.00    +0.000 OA
ATOM      6  C   UNL     1       3.369   4.367  18.118  0.00  0.00    +0.000 C 
ATOM      7  C   UNL     1       3.893   4.313  16.884  0.00  0.00    +0.000 C 
ATOM      8  C   UNL     1       2.108   3.698  18.497  0.00  0.00    +0.000 C 
ATOM      9  O   UNL     1       1.294   3.171  17.767  0.00  0.00    +0.000 OA
ENDROOT
BRANCH   7  10
ATOM     10  C   UNL     1       5.270   4.784  16.480  0.00  0.00    +0.000 C 
ATOM     11  C   UNL     1       5.852   3.821  15.442  0.00  0.00    +0.000 C 
ATOM     12  C   UNL     1       5.232   6.207  15.933  0.00  0.00    +0.000 C 
ENDBRANCH   7  10
TORSDOF 1
ENDMDL
MODEL 8
REMARK VINA RESULT:      -5.6      1.263      1.426
REMARK  Name = 
REMARK  4 active torsions:
REMARK  status: ('A' for Active; 'I' for Inactive)
REMARK    1  A    between atoms: C_1  and  C_2
REMARK    2  A    between atoms: C_7  and  C_8
REMARK    3  A    between atoms: C_8  and  C_9
REMARK    4  A    between atoms: C_8  and  C_10
REMARK                            x       y       z     vdW  Elec       q    Type
REMARK                         _______ _______ _______ _____ _____    ______ ____
ROOT
ATOM      1  C   UNL     1       7.340   7.200  17.445  0.00  0.00    +0.000 C 
ATOM      2  C   UNL     1       6.371   6.160  17.867  0.00  0.00    +0.000 C 
ATOM      3  C   UNL     1       6.589   5.098  18.654  0.00  0.00    +0.000 C 
ATOM      4  C   UNL     1       5.330   4.377  18.909  0.00  0.00    +0.000 C 
ATOM      5  O   UNL     1       5.246   3.339  19.534  0.00  0.00    +0.000 OA
ATOM      6  C   UNL     1       4.269   5.159  18.256  0.00  0.00    +0.000 C 
ATOM      7  C   UNL     1       2.937   5.055  18.375  0.00  0.00    +0.000 C 
ATOM      8  C   UNL     1       4.937   6.237  17.498  0.00  0.00    +0.000 C 
ATOM      9  O   UNL     1       4.430   7.054  16.757  0.00  0.00    +0.000 OA
ENDROOT
BRANCH   7  10
ATOM     10  C   UNL     1       2.197   4.119  19.300  0.00  0.00    +0.000 C 
ATOM     11  C   UNL     1       1.537   4.928  20.419  0.00  0.00    +0.000 C 
ATOM     12  C   UNL     1       1.157   3.298  18.544  0.00  0.00    +0.000 C 
ENDBRANCH   7  10
TORSDOF 1
ENDMDL
MODEL 9
REMARK VINA RESULT:      -5.5      2.503      5.013
REMARK  Name = 
REMARK  4 active torsions:
REMARK  status: ('A' for Active; 'I' for Inactive)
REMARK    1  A    between atoms: C_1  and  C_2
REMARK    2  A    between atoms: C_7  and  C_8
REMARK    3  A    between atoms: C_8  and  C_9
REMARK    4  A    between atoms: C_8  and  C_10
REMARK                            x       y       z     vdW  Elec       q    Type
REMARK                         _______ _______ _______ _____ _____    ______ ____
ROOT
ATOM      1  C   UNL     1       1.459   2.785  21.547  0.00  0.00    +0.000 C 
ATOM      2  C   UNL     1       1.970   3.767  20.560  0.00  0.00    +0.000 C 
ATOM      3  C   UNL     1       1.960   5.104  20.644  0.00  0.00    +0.000 C 
ATOM      4  C   UNL     1       2.665   5.699  19.496  0.00  0.00    +0.000 C 
ATOM      5  O   UNL     1       2.748   6.891  19.281  0.00  0.00    +0.000 OA
ATOM      6  C   UNL     1       3.199   4.572  18.713  0.00  0.00    +0.000 C 
ATOM      7  C   UNL     1       4.091   4.577  17.712  0.00  0.00    +0.000 C 
ATOM      8  C   UNL     1       2.668   3.337  19.326  0.00  0.00    +0.000 C 
ATOM      9  O   UNL     1       2.802   2.195  18.937  0.00  0.00    +0.000 OA
ENDROOT
BRANCH   7  10
ATOM     10  C   UNL     1       4.833   5.783  17.187  0.00  0.00    +0.000 C 
ATOM     11  C   UNL     1       6.087   6.016  18.033  0.00  0.00    +0.000 C 
ATOM     12  C   UNL     1       5.200   5.613  15.716  0.00  0.00    +0.000 C 
ENDBRANCH   7  10
TORSDOF 1
ENDMDL
