MODEL 1
REMARK VINA RESULT:      -8.5      0.000      0.000
REMARK  Name = 
REMARK  4 active torsions:
REMARK  status: ('A' for Active; 'I' for Inactive)
REMARK    1  A    between atoms: C_5  and  N_6
REMARK    2  A    between atoms: N_6  and  C_7
REMARK    3  A    between atoms: C_10  and  C_11
REMARK    4  A    between atoms: C_11  and  C_12
REMARK                            x       y       z     vdW  Elec       q    Type
REMARK                         _______ _______ _______ _____ _____    ______ ____
ROOT
ATOM      1  C   UNL     1       1.675   8.573  19.789  0.00  0.00    +0.000 A 
ATOM      2  N   UNL     1       1.611   8.984  18.505  0.00  0.00    +0.000 NA
ATOM      3  N   UNL     1       0.837  10.037  18.148  0.00  0.00    +0.000 NA
ATOM      4  C   UNL     1       0.070  10.659  19.072  0.00  0.00    +0.000 A 
ATOM      5  C   UNL     1       0.068  10.263  20.423  0.00  0.00    +0.000 A 
ATOM      6  C   UNL     1      -0.777  10.825  21.411  0.00  0.00    +0.000 A 
ATOM      7  C   UNL     1      -0.716  10.419  22.745  0.00  0.00    +0.000 A 
ATOM      8  C   UNL     1       0.210   9.463  23.133  0.00  0.00    +0.000 A 
ATOM      9  C   UNL     1       1.029   8.869  22.173  0.00  0.00    +0.000 A 
ATOM     10  C   UNL     1       0.952   9.228  20.805  0.00  0.00    +0.000 A 
ENDROOT
BRANCH   1  11
ATOM     11  N   UNL     1       2.449   7.421  20.095  0.00  0.00    +0.000 N 
ATOM     12  H   UNL     1       3.437   7.632  20.054  0.00  0.00    +0.000 HD
BRANCH  11  17
ATOM     13 CL   UNL     1       0.726   1.928  18.633  0.00  0.00    +0.000 Cl
ATOM     14  C   UNL     1       1.246   3.511  19.061  0.00  0.00    +0.000 A 
ATOM     15  C   UNL     1       1.054   3.984  20.357  0.00  0.00    +0.000 A 
ATOM     16  C   UNL     1       1.467   5.276  20.699  0.00  0.00    +0.000 A 
ATOM     17  C   UNL     1       2.102   6.097  19.762  0.00  0.00    +0.000 A 
ATOM     18  C   UNL     1       2.268   5.605  18.452  0.00  0.00    +0.000 A 
ATOM     19  C   UNL     1       1.854   4.316  18.104  0.00  0.00    +0.000 A 
ENDBRANCH  11  17
ENDBRANCH   1  11
BRANCH   4  20
ATOM     20  C   UNL     1      -0.675  11.858  18.544  0.00  0.00    +0.000 C 
BRANCH  20  21
ATOM     21  C   UNL     1      -2.082  11.518  18.104  0.00  0.00    +0.000 A 
ATOM     22  C   UNL     1      -2.304  10.829  16.911  0.00  0.00    +0.000 A 
ATOM     23  C   UNL     1      -3.613  10.582  16.507  0.00  0.00    +0.000 A 
ATOM     24  C   UNL     1      -4.663  11.012  17.307  0.00  0.00    +0.000 A 
ATOM     25  C   UNL     1      -4.357  11.668  18.488  0.00  0.00    +0.000 A 
ATOM     26  N   UNL     1      -3.097  11.934  18.902  0.00  0.00    +0.000 NA
ENDBRANCH  20  21
ENDBRANCH   4  20
TORSDOF 4
ENDMDL
MODEL 2
REMARK VINA RESULT:      -8.3      0.569      1.366
REMARK  Name = 
REMARK  4 active torsions:
REMARK  status: ('A' for Active; 'I' for Inactive)
REMARK    1  A    between atoms: C_5  and  N_6
REMARK    2  A    between atoms: N_6  and  C_7
REMARK    3  A    between atoms: C_10  and  C_11
REMARK    4  A    between atoms: C_11  and  C_12
REMARK                            x       y       z     vdW  Elec       q    Type
REMARK                         _______ _______ _______ _____ _____    ______ ____
ROOT
ATOM      1  C   UNL     1       1.587   8.685  19.869  0.00  0.00    +0.000 A 
ATOM      2  N   UNL     1       1.546   9.131  18.596  0.00  0.00    +0.000 NA
ATOM      3  N   UNL     1       0.800  10.212  18.260  0.00  0.00    +0.000 NA
ATOM      4  C   UNL     1       0.037  10.825  19.192  0.00  0.00    +0.000 A 
ATOM      5  C   UNL     1       0.011  10.394  20.533  0.00  0.00    +0.000 A 
ATOM      6  C   UNL     1      -0.832  10.948  21.527  0.00  0.00    +0.000 A 
ATOM      7  C   UNL     1      -0.795  10.504  22.850  0.00  0.00    +0.000 A 
ATOM      8  C   UNL     1       0.105   9.518  23.221  0.00  0.00    +0.000 A 
ATOM      9  C   UNL     1       0.921   8.931  22.254  0.00  0.00    +0.000 A 
ATOM     10  C   UNL     1       0.867   9.329  20.895  0.00  0.00    +0.000 A 
ENDROOT
BRANCH   1  11
ATOM     11  N   UNL     1       2.331   7.508  20.151  0.00  0.00    +0.000 N 
ATOM     12  H   UNL     1       3.324   7.699  20.131  0.00  0.00    +0.000 HD
BRANCH  11  17
ATOM     13 CL   UNL     1       1.029   1.919  18.620  0.00  0.00    +0.000 Cl
ATOM     14  C   UNL     1       1.385   3.543  19.058  0.00  0.00    +0.000 A 
ATOM     15  C   UNL     1       1.951   4.411  18.128  0.00  0.00    +0.000 A 
ATOM     16  C   UNL     1       2.250   5.729  18.490  0.00  0.00    +0.000 A 
ATOM     17  C   UNL     1       1.960   6.202  19.774  0.00  0.00    +0.000 A 
ATOM     18  C   UNL     1       1.405   5.302  20.704  0.00  0.00    +0.000 A 
ATOM     19  C   UNL     1       1.108   3.984  20.348  0.00  0.00    +0.000 A 
ENDBRANCH  11  17
ENDBRANCH   1  11
BRANCH   4  20
ATOM     20  C   UNL     1      -0.675  12.056  18.690  0.00  0.00    +0.000 C 
BRANCH  20  21
ATOM     21  C   UNL     1      -2.051  11.745  18.144  0.00  0.00    +0.000 A 
ATOM     22  C   UNL     1      -3.183  11.898  18.947  0.00  0.00    +0.000 A 
ATOM     23  C   UNL     1      -4.429  11.549  18.432  0.00  0.00    +0.000 A 
ATOM     24  C   UNL     1      -4.516  11.075  17.130  0.00  0.00    +0.000 A 
ATOM     25  C   UNL     1      -3.349  10.977  16.392  0.00  0.00    +0.000 A 
ATOM     26  N   UNL     1      -2.124  11.295  16.866  0.00  0.00    +0.000 NA
ENDBRANCH  20  21
ENDBRANCH   4  20
TORSDOF 4
ENDMDL
MODEL 3
REMARK VINA RESULT:      -8.2      4.311      8.550
REMARK  Name = 
REMARK  4 active torsions:
REMARK  status: ('A' for Active; 'I' for Inactive)
REMARK    1  A    between atoms: C_5  and  N_6
REMARK    2  A    between atoms: N_6  and  C_7
REMARK    3  A    between atoms: C_10  and  C_11
REMARK    4  A    between atoms: C_11  and  C_12
REMARK                            x       y       z     vdW  Elec       q    Type
REMARK                         _______ _______ _______ _____ _____    ______ ____
ROOT
ATOM      1  C   UNL     1       3.147   6.965  17.518  0.00  0.00    +0.000 A 
ATOM      2  N   UNL     1       4.327   7.544  17.210  0.00  0.00    +0.000 NA
ATOM      3  N   UNL     1       5.423   6.794  16.943  0.00  0.00    +0.000 NA
ATOM      4  C   UNL     1       5.362   5.446  17.039  0.00  0.00    +0.000 A 
ATOM      5  C   UNL     1       4.171   4.779  17.383  0.00  0.00    +0.000 A 
ATOM      6  C   UNL     1       4.075   3.379  17.577  0.00  0.00    +0.000 A 
ATOM      7  C   UNL     1       2.861   2.764  17.887  0.00  0.00    +0.000 A 
ATOM      8  C   UNL     1       1.706   3.525  17.980  0.00  0.00    +0.000 A 
ATOM      9  C   UNL     1       1.780   4.909  17.828  0.00  0.00    +0.000 A 
ATOM     10  C   UNL     1       3.009   5.564  17.563  0.00  0.00    +0.000 A 
ENDROOT
BRANCH   1  11
ATOM     11  N   UNL     1       2.049   7.800  17.856  0.00  0.00    +0.000 N 
ATOM     12  H   UNL     1       1.874   8.475  17.122  0.00  0.00    +0.000 HD
BRANCH  11  17
ATOM     13 CL   UNL     1       0.412   9.515  23.301  0.00  0.00    +0.000 Cl
ATOM     14  C   UNL     1       0.907   9.026  21.729  0.00  0.00    +0.000 A 
ATOM     15  C   UNL     1       0.737   9.882  20.643  0.00  0.00    +0.000 A 
ATOM     16  C   UNL     1       1.130   9.478  19.363  0.00  0.00    +0.000 A 
ATOM     17  C   UNL     1       1.723   8.228  19.158  0.00  0.00    +0.000 A 
ATOM     18  C   UNL     1       1.868   7.371  20.267  0.00  0.00    +0.000 A 
ATOM     19  C   UNL     1       1.474   7.770  21.547  0.00  0.00    +0.000 A 
ENDBRANCH  11  17
ENDBRANCH   1  11
BRANCH   4  20
ATOM     20  C   UNL     1       6.635   4.745  16.639  0.00  0.00    +0.000 C 
BRANCH  20  21
ATOM     21  C   UNL     1       6.790   4.638  15.138  0.00  0.00    +0.000 A 
ATOM     22  C   UNL     1       5.997   3.753  14.404  0.00  0.00    +0.000 A 
ATOM     23  C   UNL     1       6.205   3.638  13.033  0.00  0.00    +0.000 A 
ATOM     24  C   UNL     1       7.181   4.418  12.426  0.00  0.00    +0.000 A 
ATOM     25  C   UNL     1       7.907   5.289  13.221  0.00  0.00    +0.000 A 
ATOM     26  N   UNL     1       7.739   5.414  14.557  0.00  0.00    +0.000 NA
ENDBRANCH  20  21
ENDBRANCH   4  20
TORSDOF 4
ENDMDL
MODEL 4
REMARK VINA RESULT:      -8.2      2.559      6.770
REMARK  Name = 
REMARK  4 active torsions:
REMARK  status: ('A' for Active; 'I' for Inactive)
REMARK    1  A    between atoms: C_5  and  N_6
REMARK    2  A    between atoms: N_6  and  C_7
REMARK    3  A    between atoms: C_10  and  C_11
REMARK    4  A    between atoms: C_11  and  C_12
REMARK                            x       y       z     vdW  Elec       q    Type
REMARK                         _______ _______ _______ _____ _____    ______ ____
ROOT
ATOM      1  C   UNL     1       0.567   9.823  18.395  0.00  0.00    +0.000 A 
ATOM      2  N   UNL     1       1.294   9.121  17.500  0.00  0.00    +0.000 NA
ATOM      3  N   UNL     1       2.080   8.091  17.896  0.00  0.00    +0.000 NA
ATOM      4  C   UNL     1       2.189   7.788  19.210  0.00  0.00    +0.000 A 
ATOM      5  C   UNL     1       1.480   8.498  20.198  0.00  0.00    +0.000 A 
ATOM      6  C   UNL     1       1.623   8.275  21.589  0.00  0.00    +0.000 A 
ATOM      7  C   UNL     1       0.871   8.985  22.526  0.00  0.00    +0.000 A 
ATOM      8  C   UNL     1      -0.065   9.915  22.098  0.00  0.00    +0.000 A 
ATOM      9  C   UNL     1      -0.199  10.178  20.735  0.00  0.00    +0.000 A 
ATOM     10  C   UNL     1       0.588   9.506  19.767  0.00  0.00    +0.000 A 
ENDROOT
BRANCH   1  11
ATOM     11  N   UNL     1      -0.186  10.936  17.932  0.00  0.00    +0.000 N 
ATOM     12  H   UNL     1       0.280  11.804  18.162  0.00  0.00    +0.000 HD
BRANCH  11  17
ATOM     13 CL   UNL     1      -6.125  11.020  17.930  0.00  0.00    +0.000 Cl
ATOM     14  C   UNL     1      -4.405  11.011  17.914  0.00  0.00    +0.000 A 
ATOM     15  C   UNL     1      -3.717  10.094  17.125  0.00  0.00    +0.000 A 
ATOM     16  C   UNL     1      -2.318  10.082  17.122  0.00  0.00    +0.000 A 
ATOM     17  C   UNL     1      -1.593  11.003  17.885  0.00  0.00    +0.000 A 
ATOM     18  C   UNL     1      -2.310  11.909  18.690  0.00  0.00    +0.000 A 
ATOM     19  C   UNL     1      -3.707  11.923  18.698  0.00  0.00    +0.000 A 
ENDBRANCH  11  17
ENDBRANCH   1  11
BRANCH   4  20
ATOM     20  C   UNL     1       3.036   6.572  19.491  0.00  0.00    +0.000 C 
BRANCH  20  21
ATOM     21  C   UNL     1       2.233   5.291  19.472  0.00  0.00    +0.000 A 
ATOM     22  C   UNL     1       1.739   4.746  20.659  0.00  0.00    +0.000 A 
ATOM     23  C   UNL     1       1.053   3.536  20.613  0.00  0.00    +0.000 A 
ATOM     24  C   UNL     1       0.862   2.910  19.388  0.00  0.00    +0.000 A 
ATOM     25  C   UNL     1       1.362   3.529  18.254  0.00  0.00    +0.000 A 
ATOM     26  N   UNL     1       2.043   4.696  18.267  0.00  0.00    +0.000 NA
ENDBRANCH  20  21
ENDBRANCH   4  20
TORSDOF 4
ENDMDL
MODEL 5
REMARK VINA RESULT:      -8.0      0.827      1.150
REMARK  Name = 
REMARK  4 active torsions:
REMARK  status: ('A' for Active; 'I' for Inactive)
REMARK    1  A    between atoms: C_5  and  N_6
REMARK    2  A    between atoms: N_6  and  C_7
REMARK    3  A    between atoms: C_10  and  C_11
REMARK    4  A    between atoms: C_11  and  C_12
REMARK                            x       y       z     vdW  Elec       q    Type
REMARK                         _______ _______ _______ _____ _____    ______ ____
ROOT
ATOM      1  C   UNL     1       1.419   8.662  20.243  0.00  0.00    +0.000 A 
ATOM      2  N   UNL     1       1.479   8.974  18.931  0.00  0.00    +0.000 NA
ATOM      3  N   UNL     1       0.794  10.033  18.435  0.00  0.00    +0.000 NA
ATOM      4  C   UNL     1      -0.008  10.761  19.245  0.00  0.00    +0.000 A 
ATOM      5  C   UNL     1      -0.139  10.472  20.617  0.00  0.00    +0.000 A 
ATOM      6  C   UNL     1      -1.027  11.150  21.488  0.00  0.00    +0.000 A 
ATOM      7  C   UNL     1      -1.093  10.845  22.848  0.00  0.00    +0.000 A 
ATOM      8  C   UNL     1      -0.254   9.878  23.381  0.00  0.00    +0.000 A 
ATOM      9  C   UNL     1       0.604   9.172  22.538  0.00  0.00    +0.000 A 
ATOM     10  C   UNL     1       0.655   9.428  21.145  0.00  0.00    +0.000 A 
ENDROOT
BRANCH   1  11
ATOM     11  N   UNL     1       2.102   7.501  20.695  0.00  0.00    +0.000 N 
ATOM     12  H   UNL     1       2.937   7.753  21.207  0.00  0.00    +0.000 HD
BRANCH  11  17
ATOM     13 CL   UNL     1       2.131   2.397  17.658  0.00  0.00    +0.000 Cl
ATOM     14  C   UNL     1       2.142   3.869  18.548  0.00  0.00    +0.000 A 
ATOM     15  C   UNL     1       1.481   3.953  19.771  0.00  0.00    +0.000 A 
ATOM     16  C   UNL     1       1.483   5.155  20.487  0.00  0.00    +0.000 A 
ATOM     17  C   UNL     1       2.166   6.275  20.004  0.00  0.00    +0.000 A 
ATOM     18  C   UNL     1       2.812   6.172  18.756  0.00  0.00    +0.000 A 
ATOM     19  C   UNL     1       2.811   4.975  18.036  0.00  0.00    +0.000 A 
ENDBRANCH  11  17
ENDBRANCH   1  11
BRANCH   4  20
ATOM     20  C   UNL     1      -0.643  11.951  18.571  0.00  0.00    +0.000 C 
BRANCH  20  21
ATOM     21  C   UNL     1      -2.011  11.636  18.008  0.00  0.00    +0.000 A 
ATOM     22  C   UNL     1      -3.159  11.856  18.771  0.00  0.00    +0.000 A 
ATOM     23  C   UNL     1      -4.398  11.501  18.245  0.00  0.00    +0.000 A 
ATOM     24  C   UNL     1      -4.463  10.956  16.970  0.00  0.00    +0.000 A 
ATOM     25  C   UNL     1      -3.280  10.794  16.269  0.00  0.00    +0.000 A 
ATOM     26  N   UNL     1      -2.061  11.115  16.756  0.00  0.00    +0.000 NA
ENDBRANCH  20  21
ENDBRANCH   4  20
TORSDOF 4
ENDMDL
MODEL 6
REMARK VINA RESULT:      -8.0      3.606      8.061
REMARK  Name = 
REMARK  4 active torsions:
REMARK  status: ('A' for Active; 'I' for Inactive)
REMARK    1  A    between atoms: C_5  and  N_6
REMARK    2  A    between atoms: N_6  and  C_7
REMARK    3  A    between atoms: C_10  and  C_11
REMARK    4  A    between atoms: C_11  and  C_12
REMARK                            x       y       z     vdW  Elec       q    Type
REMARK                         _______ _______ _______ _____ _____    ______ ____
ROOT
ATOM      1  C   UNL     1       2.555   6.445  19.615  0.00  0.00    +0.000 A 
ATOM      2  N   UNL     1       3.257   6.846  18.533  0.00  0.00    +0.000 NA
ATOM      3  N   UNL     1       3.641   5.959  17.584  0.00  0.00    +0.000 NA
ATOM      4  C   UNL     1       3.371   4.642  17.738  0.00  0.00    +0.000 A 
ATOM      5  C   UNL     1       2.668   4.153  18.855  0.00  0.00    +0.000 A 
ATOM      6  C   UNL     1       2.434   2.779  19.104  0.00  0.00    +0.000 A 
ATOM      7  C   UNL     1       1.702   2.349  20.212  0.00  0.00    +0.000 A 
ATOM      8  C   UNL     1       1.158   3.281  21.083  0.00  0.00    +0.000 A 
ATOM      9  C   UNL     1       1.405   4.638  20.880  0.00  0.00    +0.000 A 
ATOM     10  C   UNL     1       2.186   5.097  19.791  0.00  0.00    +0.000 A 
ENDROOT
BRANCH   1  11
ATOM     11  N   UNL     1       2.239   7.407  20.612  0.00  0.00    +0.000 N 
ATOM     12  H   UNL     1       2.319   7.003  21.536  0.00  0.00    +0.000 HD
BRANCH  11  17
ATOM     13 CL   UNL     1      -1.633  11.889  20.173  0.00  0.00    +0.000 Cl
ATOM     14  C   UNL     1      -0.527  10.577  20.291  0.00  0.00    +0.000 A 
ATOM     15  C   UNL     1      -0.440   9.839  21.469  0.00  0.00    +0.000 A 
ATOM     16  C   UNL     1       0.468   8.779  21.566  0.00  0.00    +0.000 A 
ATOM     17  C   UNL     1       1.277   8.427  20.481  0.00  0.00    +0.000 A 
ATOM     18  C   UNL     1       1.185   9.199  19.306  0.00  0.00    +0.000 A 
ATOM     19  C   UNL     1       0.282  10.260  19.205  0.00  0.00    +0.000 A 
ENDBRANCH  11  17
ENDBRANCH   1  11
BRANCH   4  20
ATOM     20  C   UNL     1       3.790   3.790  16.567  0.00  0.00    +0.000 C 
BRANCH  20  21
ATOM     21  C   UNL     1       5.126   4.208  15.994  0.00  0.00    +0.000 A 
ATOM     22  C   UNL     1       5.274   4.422  14.622  0.00  0.00    +0.000 A 
ATOM     23  C   UNL     1       6.530   4.750  14.121  0.00  0.00    +0.000 A 
ATOM     24  C   UNL     1       7.599   4.873  14.999  0.00  0.00    +0.000 A 
ATOM     25  C   UNL     1       7.363   4.669  16.348  0.00  0.00    +0.000 A 
ATOM     26  N   UNL     1       6.159   4.337  16.864  0.00  0.00    +0.000 NA
ENDBRANCH  20  21
ENDBRANCH   4  20
TORSDOF 4
ENDMDL
MODEL 7
REMARK VINA RESULT:      -7.9      1.730      2.857
REMARK  Name = 
REMARK  4 active torsions:
REMARK  status: ('A' for Active; 'I' for Inactive)
REMARK    1  A    between atoms: C_5  and  N_6
REMARK    2  A    between atoms: N_6  and  C_7
REMARK    3  A    between atoms: C_10  and  C_11
REMARK    4  A    between atoms: C_11  and  C_12
REMARK                            x       y       z     vdW  Elec       q    Type
REMARK                         _______ _______ _______ _____ _____    ______ ____
ROOT
ATOM      1  C   UNL     1       1.702   8.530  19.744  0.00  0.00    +0.000 A 
ATOM      2  N   UNL     1       1.633   8.923  18.454  0.00  0.00    +0.000 NA
ATOM      3  N   UNL     1       0.861   9.974  18.087  0.00  0.00    +0.000 NA
ATOM      4  C   UNL     1       0.102  10.612  19.007  0.00  0.00    +0.000 A 
ATOM      5  C   UNL     1       0.105  10.236  20.364  0.00  0.00    +0.000 A 
ATOM      6  C   UNL     1      -0.732  10.815  21.348  0.00  0.00    +0.000 A 
ATOM      7  C   UNL     1      -0.665  10.427  22.687  0.00  0.00    +0.000 A 
ATOM      8  C   UNL     1       0.260   9.473  23.084  0.00  0.00    +0.000 A 
ATOM      9  C   UNL     1       1.070   8.862  22.128  0.00  0.00    +0.000 A 
ATOM     10  C   UNL     1       0.987   9.203  20.754  0.00  0.00    +0.000 A 
ENDROOT
BRANCH   1  11
ATOM     11  N   UNL     1       2.473   7.380  20.062  0.00  0.00    +0.000 N 
ATOM     12  H   UNL     1       3.462   7.585  20.009  0.00  0.00    +0.000 HD
BRANCH  11  17
ATOM     13 CL   UNL     1       0.711   1.873  18.702  0.00  0.00    +0.000 Cl
ATOM     14  C   UNL     1       1.242   3.459  19.101  0.00  0.00    +0.000 A 
ATOM     15  C   UNL     1       1.054   3.958  20.387  0.00  0.00    +0.000 A 
ATOM     16  C   UNL     1       1.477   5.253  20.706  0.00  0.00    +0.000 A 
ATOM     17  C   UNL     1       2.116   6.052  19.753  0.00  0.00    +0.000 A 
ATOM     18  C   UNL     1       2.279   5.534  18.454  0.00  0.00    +0.000 A 
ATOM     19  C   UNL     1       1.856   4.243  18.130  0.00  0.00    +0.000 A 
ENDBRANCH  11  17
ENDBRANCH   1  11
BRANCH   4  20
ATOM     20  C   UNL     1      -0.642  11.807  18.466  0.00  0.00    +0.000 C 
BRANCH  20  21
ATOM     21  C   UNL     1       0.119  13.100  18.663  0.00  0.00    +0.000 A 
ATOM     22  C   UNL     1      -0.543  14.256  19.079  0.00  0.00    +0.000 A 
ATOM     23  C   UNL     1       0.176  15.442  19.196  0.00  0.00    +0.000 A 
ATOM     24  C   UNL     1       1.535  15.442  18.913  0.00  0.00    +0.000 A 
ATOM     25  C   UNL     1       2.122  14.247  18.530  0.00  0.00    +0.000 A 
ATOM     26  N   UNL     1       1.449  13.083  18.395  0.00  0.00    +0.000 NA
ENDBRANCH  20  21
ENDBRANCH   4  20
TORSDOF 4
ENDMDL
MODEL 8
REMARK VINA RESULT:      -7.8      2.611      6.707
REMARK  Name = 
REMARK  4 active torsions:
REMARK  status: ('A' for Active; 'I' for Inactive)
REMARK    1  A    between atoms: C_5  and  N_6
REMARK    2  A    between atoms: N_6  and  C_7
REMARK    3  A    between atoms: C_10  and  C_11
REMARK    4  A    between atoms: C_11  and  C_12
REMARK                            x       y       z     vdW  Elec       q    Type
REMARK                         _______ _______ _______ _____ _____    ______ ____
ROOT
ATOM      1  C   UNL     1       0.490   9.870  18.392  0.00  0.00    +0.000 A 
ATOM      2  N   UNL     1       1.223   9.189  17.486  0.00  0.00    +0.000 NA
ATOM      3  N   UNL     1       2.039   8.177  17.868  0.00  0.00    +0.000 NA
ATOM      4  C   UNL     1       2.173   7.872  19.179  0.00  0.00    +0.000 A 
ATOM      5  C   UNL     1       1.459   8.561  20.179  0.00  0.00    +0.000 A 
ATOM      6  C   UNL     1       1.625   8.336  21.567  0.00  0.00    +0.000 A 
ATOM      7  C   UNL     1       0.868   9.024  22.516  0.00  0.00    +0.000 A 
ATOM      8  C   UNL     1      -0.096   9.932  22.104  0.00  0.00    +0.000 A 
ATOM      9  C   UNL     1      -0.254  10.197  20.744  0.00  0.00    +0.000 A 
ATOM     10  C   UNL     1       0.536   9.548  19.763  0.00  0.00    +0.000 A 
ENDROOT
BRANCH   1  11
ATOM     11  N   UNL     1      -0.295  10.966  17.944  0.00  0.00    +0.000 N 
ATOM     12  H   UNL     1       0.158  11.844  18.161  0.00  0.00    +0.000 HD
BRANCH  11  17
ATOM     13 CL   UNL     1      -6.218  11.346  17.703  0.00  0.00    +0.000 Cl
ATOM     14  C   UNL     1      -4.505  11.218  17.787  0.00  0.00    +0.000 A 
ATOM     15  C   UNL     1      -3.792  11.959  18.726  0.00  0.00    +0.000 A 
ATOM     16  C   UNL     1      -2.398  11.862  18.785  0.00  0.00    +0.000 A 
ATOM     17  C   UNL     1      -1.704  11.003  17.927  0.00  0.00    +0.000 A 
ATOM     18  C   UNL     1      -2.443  10.277  16.973  0.00  0.00    +0.000 A 
ATOM     19  C   UNL     1      -3.835  10.373  16.908  0.00  0.00    +0.000 A 
ENDBRANCH  11  17
ENDBRANCH   1  11
BRANCH   4  20
ATOM     20  C   UNL     1       3.052   6.676  19.444  0.00  0.00    +0.000 C 
BRANCH  20  21
ATOM     21  C   UNL     1       2.283   5.374  19.413  0.00  0.00    +0.000 A 
ATOM     22  C   UNL     1       2.076   4.702  18.207  0.00  0.00    +0.000 A 
ATOM     23  C   UNL     1       1.316   3.536  18.205  0.00  0.00    +0.000 A 
ATOM     24  C   UNL     1       0.797   3.062  19.403  0.00  0.00    +0.000 A 
ATOM     25  C   UNL     1       1.070   3.775  20.559  0.00  0.00    +0.000 A 
ATOM     26  N   UNL     1       1.793   4.916  20.592  0.00  0.00    +0.000 NA
ENDBRANCH  20  21
ENDBRANCH   4  20
TORSDOF 4
ENDMDL
MODEL 9
REMARK VINA RESULT:      -7.8      3.838      6.519
REMARK  Name = 
REMARK  4 active torsions:
REMARK  status: ('A' for Active; 'I' for Inactive)
REMARK    1  A    between atoms: C_5  and  N_6
REMARK    2  A    between atoms: N_6  and  C_7
REMARK    3  A    between atoms: C_10  and  C_11
REMARK    4  A    between atoms: C_11  and  C_12
REMARK                            x       y       z     vdW  Elec       q    Type
REMARK                         _______ _______ _______ _____ _____    ______ ____
ROOT
ATOM      1  C   UNL     1       4.419   4.310  18.322  0.00  0.00    +0.000 A 
ATOM      2  N   UNL     1       4.743   5.587  18.619  0.00  0.00    +0.000 NA
ATOM      3  N   UNL     1       3.910   6.365  19.351  0.00  0.00    +0.000 NA
ATOM      4  C   UNL     1       2.709   5.887  19.748  0.00  0.00    +0.000 A 
ATOM      5  C   UNL     1       2.296   4.574  19.448  0.00  0.00    +0.000 A 
ATOM      6  C   UNL     1       1.018   4.054  19.767  0.00  0.00    +0.000 A 
ATOM      7  C   UNL     1       0.671   2.734  19.476  0.00  0.00    +0.000 A 
ATOM      8  C   UNL     1       1.600   1.890  18.886  0.00  0.00    +0.000 A 
ATOM      9  C   UNL     1       2.853   2.388  18.529  0.00  0.00    +0.000 A 
ATOM     10  C   UNL     1       3.212   3.738  18.769  0.00  0.00    +0.000 A 
ENDROOT
BRANCH   1  11
ATOM     11  N   UNL     1       5.298   3.562  17.494  0.00  0.00    +0.000 N 
ATOM     12  H   UNL     1       5.899   2.970  18.052  0.00  0.00    +0.000 HD
BRANCH  11  17
ATOM     13 CL   UNL     1       7.819   5.249  12.387  0.00  0.00    +0.000 Cl
ATOM     14  C   UNL     1       7.077   4.780  13.866  0.00  0.00    +0.000 A 
ATOM     15  C   UNL     1       7.670   5.108  15.082  0.00  0.00    +0.000 A 
ATOM     16  C   UNL     1       7.070   4.715  16.283  0.00  0.00    +0.000 A 
ATOM     17  C   UNL     1       5.858   4.017  16.283  0.00  0.00    +0.000 A 
ATOM     18  C   UNL     1       5.286   3.680  15.041  0.00  0.00    +0.000 A 
ATOM     19  C   UNL     1       5.883   4.067  13.839  0.00  0.00    +0.000 A 
ENDBRANCH  11  17
ENDBRANCH   1  11
BRANCH   4  20
ATOM     20  C   UNL     1       1.927   6.838  20.618  0.00  0.00    +0.000 C 
BRANCH  20  21
ATOM     21  C   UNL     1       1.596   8.132  19.908  0.00  0.00    +0.000 A 
ATOM     22  C   UNL     1       1.922   8.306  18.562  0.00  0.00    +0.000 A 
ATOM     23  C   UNL     1       1.655   9.530  17.955  0.00  0.00    +0.000 A 
ATOM     24  C   UNL     1       1.056  10.539  18.697  0.00  0.00    +0.000 A 
ATOM     25  C   UNL     1       0.741  10.277  20.020  0.00  0.00    +0.000 A 
ATOM     26  N   UNL     1       0.999   9.105  20.642  0.00  0.00    +0.000 NA
ENDBRANCH  20  21
ENDBRANCH   4  20
TORSDOF 4
ENDMDL
