MODEL 1
REMARK VINA RESULT:      -8.6      0.000      0.000
REMARK  Name = 
REMARK  6 active torsions:
REMARK  status: ('A' for Active; 'I' for Inactive)
REMARK    1  A    between atoms: C_1  and  C_2
REMARK    2  A    between atoms: C_2  and  C_3
REMARK    3  A    between atoms: C_2  and  N_9
REMARK    4  A    between atoms: C_18  and  O_19
REMARK    5  A    between atoms: C_18  and  C_20
REMARK    6  A    between atoms: C_20  and  C_21
REMARK                            x       y       z     vdW  Elec       q    Type
REMARK                         _______ _______ _______ _____ _____    ______ ____
ROOT
ATOM      1  N   UNL     1       4.354   4.771  17.381  0.00  0.00    +0.000 N 
ATOM      2  C   UNL     1       4.083   3.426  17.561  0.00  0.00    +0.000 C 
ATOM      3  O   UNL     1       4.635   2.449  17.075  0.00  0.00    +0.000 OA
ATOM      4  C   UNL     1       2.933   3.334  18.454  0.00  0.00    +0.000 A 
ATOM      5  C   UNL     1       2.363   2.185  18.962  0.00  0.00    +0.000 A 
ATOM      6  C   UNL     1       1.253   2.342  19.782  0.00  0.00    +0.000 A 
ATOM      7  C   UNL     1       0.723   3.625  20.013  0.00  0.00    +0.000 A 
ATOM      8  C   UNL     1       1.349   4.785  19.512  0.00  0.00    +0.000 A 
ATOM      9  C   UNL     1       2.510   4.634  18.769  0.00  0.00    +0.000 A 
ATOM     10  C   UNL     1       3.617   5.591  18.377  0.00  0.00    +0.000 C 
ENDROOT
BRANCH   1  12
ATOM     11  C   UNL     1       4.941   6.075  15.353  0.00  0.00    +0.000 C 
ATOM     12  C   UNL     1       5.446   5.246  16.542  0.00  0.00    +0.000 C 
BRANCH  12  13
ATOM     13  C   UNL     1       6.525   5.950  17.376  0.00  0.00    +0.000 A 
ATOM     14  C   UNL     1       7.226   5.301  18.405  0.00  0.00    +0.000 A 
ATOM     15  C   UNL     1       8.174   5.980  19.183  0.00  0.00    +0.000 A 
ATOM     16  C   UNL     1       8.456   7.314  18.923  0.00  0.00    +0.000 A 
ATOM     17  C   UNL     1       7.801   7.972  17.885  0.00  0.00    +0.000 A 
ATOM     18  C   UNL     1       6.845   7.295  17.120  0.00  0.00    +0.000 A 
ENDBRANCH  12  13
ENDBRANCH   1  12
BRANCH  10  19
ATOM     19  O   UNL     1       4.489   5.674  19.514  0.00  0.00    +0.000 OA
ATOM     20  H   UNL     1       4.115   5.108  20.215  0.00  0.00    +0.000 HD
ENDBRANCH  10  19
BRANCH  10  21
ATOM     21  C   UNL     1       3.326   7.043  17.906  0.00  0.00    +0.000 C 
BRANCH  21  22
ATOM     22  C   UNL     1       2.251   7.904  18.559  0.00  0.00    +0.000 A 
ATOM     23  C   UNL     1       2.022   7.880  19.943  0.00  0.00    +0.000 A 
ATOM     24  C   UNL     1       1.155   8.802  20.545  0.00  0.00    +0.000 A 
ATOM     25  C   UNL     1       0.516   9.767  19.775  0.00  0.00    +0.000 A 
ATOM     26  C   UNL     1       0.744   9.816  18.403  0.00  0.00    +0.000 A 
ATOM     27  C   UNL     1       1.606   8.894  17.800  0.00  0.00    +0.000 A 
ENDBRANCH  21  22
ENDBRANCH  10  21
TORSDOF 5
ENDMDL
MODEL 2
REMARK VINA RESULT:      -8.6      0.356      1.005
REMARK  Name = 
REMARK  6 active torsions:
REMARK  status: ('A' for Active; 'I' for Inactive)
REMARK    1  A    between atoms: C_1  and  C_2
REMARK    2  A    between atoms: C_2  and  C_3
REMARK    3  A    between atoms: C_2  and  N_9
REMARK    4  A    between atoms: C_18  and  O_19
REMARK    5  A    between atoms: C_18  and  C_20
REMARK    6  A    between atoms: C_20  and  C_21
REMARK                            x       y       z     vdW  Elec       q    Type
REMARK                         _______ _______ _______ _____ _____    ______ ____
ROOT
ATOM      1  N   UNL     1       4.304   4.404  17.557  0.00  0.00    +0.000 N 
ATOM      2  C   UNL     1       3.945   3.093  17.815  0.00  0.00    +0.000 C 
ATOM      3  O   UNL     1       4.421   2.055  17.378  0.00  0.00    +0.000 OA
ATOM      4  C   UNL     1       2.805   3.130  18.725  0.00  0.00    +0.000 A 
ATOM      5  C   UNL     1       2.166   2.053  19.303  0.00  0.00    +0.000 A 
ATOM      6  C   UNL     1       1.083   2.331  20.127  0.00  0.00    +0.000 A 
ATOM      7  C   UNL     1       0.645   3.658  20.292  0.00  0.00    +0.000 A 
ATOM      8  C   UNL     1       1.340   4.743  19.719  0.00  0.00    +0.000 A 
ATOM      9  C   UNL     1       2.477   4.472  18.972  0.00  0.00    +0.000 A 
ATOM     10  C   UNL     1       3.641   5.327  18.514  0.00  0.00    +0.000 C 
ENDROOT
BRANCH   1  12
ATOM     11  C   UNL     1       4.929   5.296  15.328  0.00  0.00    +0.000 C 
ATOM     12  C   UNL     1       5.413   4.756  16.680  0.00  0.00    +0.000 C 
BRANCH  12  13
ATOM     13  C   UNL     1       6.418   5.671  17.391  0.00  0.00    +0.000 A 
ATOM     14  C   UNL     1       6.622   7.008  17.012  0.00  0.00    +0.000 A 
ATOM     15  C   UNL     1       7.581   7.809  17.647  0.00  0.00    +0.000 A 
ATOM     16  C   UNL     1       8.331   7.291  18.695  0.00  0.00    +0.000 A 
ATOM     17  C   UNL     1       8.125   5.979  19.114  0.00  0.00    +0.000 A 
ATOM     18  C   UNL     1       7.177   5.179  18.468  0.00  0.00    +0.000 A 
ENDBRANCH  12  13
ENDBRANCH   1  12
BRANCH  10  19
ATOM     19  O   UNL     1       4.533   5.412  19.634  0.00  0.00    +0.000 OA
ATOM     20  H   UNL     1       5.378   4.999  19.372  0.00  0.00    +0.000 HD
ENDBRANCH  10  19
BRANCH  10  21
ATOM     21  C   UNL     1       3.442   6.768  17.966  0.00  0.00    +0.000 C 
BRANCH  21  22
ATOM     22  C   UNL     1       2.378   7.705  18.525  0.00  0.00    +0.000 A 
ATOM     23  C   UNL     1       2.099   7.773  19.898  0.00  0.00    +0.000 A 
ATOM     24  C   UNL     1       1.247   8.761  20.411  0.00  0.00    +0.000 A 
ATOM     25  C   UNL     1       0.674   9.701  19.561  0.00  0.00    +0.000 A 
ATOM     26  C   UNL     1       0.953   9.659  18.199  0.00  0.00    +0.000 A 
ATOM     27  C   UNL     1       1.801   8.670  17.685  0.00  0.00    +0.000 A 
ENDBRANCH  21  22
ENDBRANCH  10  21
TORSDOF 5
ENDMDL
MODEL 3
REMARK VINA RESULT:      -8.5      1.405      2.458
REMARK  Name = 
REMARK  6 active torsions:
REMARK  status: ('A' for Active; 'I' for Inactive)
REMARK    1  A    between atoms: C_1  and  C_2
REMARK    2  A    between atoms: C_2  and  C_3
REMARK    3  A    between atoms: C_2  and  N_9
REMARK    4  A    between atoms: C_18  and  O_19
REMARK    5  A    between atoms: C_18  and  C_20
REMARK    6  A    between atoms: C_20  and  C_21
REMARK                            x       y       z     vdW  Elec       q    Type
REMARK                         _______ _______ _______ _____ _____    ______ ____
ROOT
ATOM      1  N   UNL     1       4.523   5.203  18.615  0.00  0.00    +0.000 N 
ATOM      2  C   UNL     1       4.634   3.945  19.180  0.00  0.00    +0.000 C 
ATOM      3  O   UNL     1       5.588   3.180  19.195  0.00  0.00    +0.000 OA
ATOM      4  C   UNL     1       3.339   3.622  19.768  0.00  0.00    +0.000 A 
ATOM      5  C   UNL     1       3.013   2.498  20.499  0.00  0.00    +0.000 A 
ATOM      6  C   UNL     1       1.703   2.394  20.945  0.00  0.00    +0.000 A 
ATOM      7  C   UNL     1       0.759   3.379  20.597  0.00  0.00    +0.000 A 
ATOM      8  C   UNL     1       1.129   4.536  19.881  0.00  0.00    +0.000 A 
ATOM      9  C   UNL     1       2.458   4.684  19.515  0.00  0.00    +0.000 A 
ATOM     10  C   UNL     1       3.282   5.877  19.076  0.00  0.00    +0.000 C 
ENDROOT
BRANCH   1  12
ATOM     11  C   UNL     1       6.897   5.904  18.794  0.00  0.00    +0.000 C 
ATOM     12  C   UNL     1       5.630   5.857  17.930  0.00  0.00    +0.000 C 
BRANCH  12  13
ATOM     13  C   UNL     1       5.853   5.260  16.534  0.00  0.00    +0.000 A 
ATOM     14  C   UNL     1       4.847   4.568  15.839  0.00  0.00    +0.000 A 
ATOM     15  C   UNL     1       5.091   3.992  14.585  0.00  0.00    +0.000 A 
ATOM     16  C   UNL     1       6.339   4.126  13.992  0.00  0.00    +0.000 A 
ATOM     17  C   UNL     1       7.344   4.837  14.643  0.00  0.00    +0.000 A 
ATOM     18  C   UNL     1       7.102   5.398  15.901  0.00  0.00    +0.000 A 
ENDBRANCH  12  13
ENDBRANCH   1  12
BRANCH  10  19
ATOM     19  O   UNL     1       3.654   6.565  20.279  0.00  0.00    +0.000 OA
ATOM     20  H   UNL     1       4.586   6.349  20.468  0.00  0.00    +0.000 HD
ENDBRANCH  10  19
BRANCH  10  21
ATOM     21  C   UNL     1       2.734   6.939  18.083  0.00  0.00    +0.000 C 
BRANCH  21  22
ATOM     22  C   UNL     1       1.982   8.176  18.557  0.00  0.00    +0.000 A 
ATOM     23  C   UNL     1       1.389   8.241  19.827  0.00  0.00    +0.000 A 
ATOM     24  C   UNL     1       0.855   9.443  20.312  0.00  0.00    +0.000 A 
ATOM     25  C   UNL     1       0.920  10.599  19.541  0.00  0.00    +0.000 A 
ATOM     26  C   UNL     1       1.519  10.557  18.286  0.00  0.00    +0.000 A 
ATOM     27  C   UNL     1       2.048   9.357  17.799  0.00  0.00    +0.000 A 
ENDBRANCH  21  22
ENDBRANCH  10  21
TORSDOF 5
ENDMDL
MODEL 4
REMARK VINA RESULT:      -8.5      0.406      1.027
REMARK  Name = 
REMARK  6 active torsions:
REMARK  status: ('A' for Active; 'I' for Inactive)
REMARK    1  A    between atoms: C_1  and  C_2
REMARK    2  A    between atoms: C_2  and  C_3
REMARK    3  A    between atoms: C_2  and  N_9
REMARK    4  A    between atoms: C_18  and  O_19
REMARK    5  A    between atoms: C_18  and  C_20
REMARK    6  A    between atoms: C_20  and  C_21
REMARK                            x       y       z     vdW  Elec       q    Type
REMARK                         _______ _______ _______ _____ _____    ______ ____
ROOT
ATOM      1  N   UNL     1       4.323   4.360  17.566  0.00  0.00    +0.000 N 
ATOM      2  C   UNL     1       3.992   3.063  17.912  0.00  0.00    +0.000 C 
ATOM      3  O   UNL     1       4.505   2.009  17.563  0.00  0.00    +0.000 OA
ATOM      4  C   UNL     1       2.832   3.135  18.793  0.00  0.00    +0.000 A 
ATOM      5  C   UNL     1       2.208   2.086  19.436  0.00  0.00    +0.000 A 
ATOM      6  C   UNL     1       1.100   2.394  20.215  0.00  0.00    +0.000 A 
ATOM      7  C   UNL     1       0.624   3.717  20.272  0.00  0.00    +0.000 A 
ATOM      8  C   UNL     1       1.304   4.775  19.635  0.00  0.00    +0.000 A 
ATOM      9  C   UNL     1       2.463   4.482  18.934  0.00  0.00    +0.000 A 
ATOM     10  C   UNL     1       3.614   5.333  18.437  0.00  0.00    +0.000 C 
ENDROOT
BRANCH   1  12
ATOM     11  C   UNL     1       4.974   5.218  15.330  0.00  0.00    +0.000 C 
ATOM     12  C   UNL     1       5.441   4.678  16.687  0.00  0.00    +0.000 C 
BRANCH  12  13
ATOM     13  C   UNL     1       6.468   5.574  17.393  0.00  0.00    +0.000 A 
ATOM     14  C   UNL     1       7.232   5.132  18.485  0.00  0.00    +0.000 A 
ATOM     15  C   UNL     1       8.129   5.986  19.141  0.00  0.00    +0.000 A 
ATOM     16  C   UNL     1       8.297   7.290  18.695  0.00  0.00    +0.000 A 
ATOM     17  C   UNL     1       7.578   7.743  17.592  0.00  0.00    +0.000 A 
ATOM     18  C   UNL     1       6.673   6.893  16.948  0.00  0.00    +0.000 A 
ENDBRANCH  12  13
ENDBRANCH   1  12
BRANCH  10  19
ATOM     19  O   UNL     1       4.479   5.524  19.566  0.00  0.00    +0.000 OA
ATOM     20  H   UNL     1       3.940   5.424  20.373  0.00  0.00    +0.000 HD
ENDBRANCH  10  19
BRANCH  10  21
ATOM     21  C   UNL     1       3.391   6.723  17.780  0.00  0.00    +0.000 C 
BRANCH  21  22
ATOM     22  C   UNL     1       2.548   7.804  18.445  0.00  0.00    +0.000 A 
ATOM     23  C   UNL     1       1.908   8.808  17.701  0.00  0.00    +0.000 A 
ATOM     24  C   UNL     1       0.999   9.685  18.308  0.00  0.00    +0.000 A 
ATOM     25  C   UNL     1       0.707   9.563  19.662  0.00  0.00    +0.000 A 
ATOM     26  C   UNL     1       1.319   8.564  20.412  0.00  0.00    +0.000 A 
ATOM     27  C   UNL     1       2.230   7.689  19.808  0.00  0.00    +0.000 A 
ENDBRANCH  21  22
ENDBRANCH  10  21
TORSDOF 5
ENDMDL
MODEL 5
REMARK VINA RESULT:      -8.4      1.951      5.669
REMARK  Name = 
REMARK  6 active torsions:
REMARK  status: ('A' for Active; 'I' for Inactive)
REMARK    1  A    between atoms: C_1  and  C_2
REMARK    2  A    between atoms: C_2  and  C_3
REMARK    3  A    between atoms: C_2  and  N_9
REMARK    4  A    between atoms: C_18  and  O_19
REMARK    5  A    between atoms: C_18  and  C_20
REMARK    6  A    between atoms: C_20  and  C_21
REMARK                            x       y       z     vdW  Elec       q    Type
REMARK                         _______ _______ _______ _____ _____    ______ ____
ROOT
ATOM      1  N   UNL     1       5.510   5.000  16.892  0.00  0.00    +0.000 N 
ATOM      2  C   UNL     1       6.623   5.515  16.252  0.00  0.00    +0.000 C 
ATOM      3  O   UNL     1       7.477   6.281  16.674  0.00  0.00    +0.000 OA
ATOM      4  C   UNL     1       6.609   5.004  14.886  0.00  0.00    +0.000 A 
ATOM      5  C   UNL     1       7.567   5.202  13.914  0.00  0.00    +0.000 A 
ATOM      6  C   UNL     1       7.331   4.631  12.670  0.00  0.00    +0.000 A 
ATOM      7  C   UNL     1       6.128   3.940  12.429  0.00  0.00    +0.000 A 
ATOM      8  C   UNL     1       5.183   3.721  13.453  0.00  0.00    +0.000 A 
ATOM      9  C   UNL     1       5.463   4.212  14.719  0.00  0.00    +0.000 A 
ATOM     10  C   UNL     1       4.909   3.900  16.094  0.00  0.00    +0.000 C 
ENDROOT
BRANCH   1  12
ATOM     11  C   UNL     1       6.445   5.659  19.094  0.00  0.00    +0.000 C 
ATOM     12  C   UNL     1       5.194   5.299  18.282  0.00  0.00    +0.000 C 
BRANCH  12  13
ATOM     13  C   UNL     1       4.066   6.334  18.388  0.00  0.00    +0.000 A 
ATOM     14  C   UNL     1       3.831   7.299  17.395  0.00  0.00    +0.000 A 
ATOM     15  C   UNL     1       2.824   8.263  17.538  0.00  0.00    +0.000 A 
ATOM     16  C   UNL     1       2.015   8.258  18.666  0.00  0.00    +0.000 A 
ATOM     17  C   UNL     1       2.203   7.291  19.650  0.00  0.00    +0.000 A 
ATOM     18  C   UNL     1       3.219   6.339  19.511  0.00  0.00    +0.000 A 
ENDBRANCH  12  13
ENDBRANCH   1  12
BRANCH  10  19
ATOM     19  O   UNL     1       5.582   2.710  16.530  0.00  0.00    +0.000 OA
ATOM     20  H   UNL     1       4.923   2.142  16.972  0.00  0.00    +0.000 HD
ENDBRANCH  10  19
BRANCH  10  21
ATOM     21  C   UNL     1       3.389   3.694  16.346  0.00  0.00    +0.000 C 
BRANCH  21  22
ATOM     22  C   UNL     1       2.852   3.186  17.678  0.00  0.00    +0.000 A 
ATOM     23  C   UNL     1       3.664   2.490  18.587  0.00  0.00    +0.000 A 
ATOM     24  C   UNL     1       3.205   2.186  19.876  0.00  0.00    +0.000 A 
ATOM     25  C   UNL     1       1.934   2.585  20.278  0.00  0.00    +0.000 A 
ATOM     26  C   UNL     1       1.122   3.291  19.396  0.00  0.00    +0.000 A 
ATOM     27  C   UNL     1       1.578   3.592  18.107  0.00  0.00    +0.000 A 
ENDBRANCH  21  22
ENDBRANCH  10  21
TORSDOF 5
ENDMDL
MODEL 6
REMARK VINA RESULT:      -8.3      1.168      1.758
REMARK  Name = 
REMARK  6 active torsions:
REMARK  status: ('A' for Active; 'I' for Inactive)
REMARK    1  A    between atoms: C_1  and  C_2
REMARK    2  A    between atoms: C_2  and  C_3
REMARK    3  A    between atoms: C_2  and  N_9
REMARK    4  A    between atoms: C_18  and  O_19
REMARK    5  A    between atoms: C_18  and  C_20
REMARK    6  A    between atoms: C_20  and  C_21
REMARK                            x       y       z     vdW  Elec       q    Type
REMARK                         _______ _______ _______ _____ _____    ______ ____
ROOT
ATOM      1  N   UNL     1       4.438   4.142  18.398  0.00  0.00    +0.000 N 
ATOM      2  C   UNL     1       4.443   2.978  19.146  0.00  0.00    +0.000 C 
ATOM      3  O   UNL     1       5.180   2.007  19.069  0.00  0.00    +0.000 OA
ATOM      4  C   UNL     1       3.333   3.068  20.089  0.00  0.00    +0.000 A 
ATOM      5  C   UNL     1       3.005   2.164  21.078  0.00  0.00    +0.000 A 
ATOM      6  C   UNL     1       1.886   2.450  21.848  0.00  0.00    +0.000 A 
ATOM      7  C   UNL     1       1.108   3.589  21.565  0.00  0.00    +0.000 A 
ATOM      8  C   UNL     1       1.488   4.516  20.573  0.00  0.00    +0.000 A 
ATOM      9  C   UNL     1       2.656   4.277  19.866  0.00  0.00    +0.000 A 
ATOM     10  C   UNL     1       3.549   5.159  19.016  0.00  0.00    +0.000 C 
ENDROOT
BRANCH   1  12
ATOM     11  C   UNL     1       4.747   4.598  15.978  0.00  0.00    +0.000 C 
ATOM     12  C   UNL     1       5.412   4.404  17.347  0.00  0.00    +0.000 C 
BRANCH  12  13
ATOM     13  C   UNL     1       6.366   5.539  17.741  0.00  0.00    +0.000 A 
ATOM     14  C   UNL     1       6.360   6.788  17.099  0.00  0.00    +0.000 A 
ATOM     15  C   UNL     1       7.274   7.792  17.447  0.00  0.00    +0.000 A 
ATOM     16  C   UNL     1       8.191   7.572  18.466  0.00  0.00    +0.000 A 
ATOM     17  C   UNL     1       8.195   6.355  19.143  0.00  0.00    +0.000 A 
ATOM     18  C   UNL     1       7.291   5.350  18.784  0.00  0.00    +0.000 A 
ENDBRANCH  12  13
ENDBRANCH   1  12
BRANCH  10  19
ATOM     19  O   UNL     1       4.384   5.878  19.936  0.00  0.00    +0.000 OA
ATOM     20  H   UNL     1       3.835   6.124  20.704  0.00  0.00    +0.000 HD
ENDBRANCH  10  19
BRANCH  10  21
ATOM     21  C   UNL     1       2.972   6.191  18.007  0.00  0.00    +0.000 C 
BRANCH  21  22
ATOM     22  C   UNL     1       2.468   7.559  18.450  0.00  0.00    +0.000 A 
ATOM     23  C   UNL     1       2.392   8.643  17.563  0.00  0.00    +0.000 A 
ATOM     24  C   UNL     1       1.765   9.839  17.939  0.00  0.00    +0.000 A 
ATOM     25  C   UNL     1       1.195   9.962  19.202  0.00  0.00    +0.000 A 
ATOM     26  C   UNL     1       1.246   8.892  20.089  0.00  0.00    +0.000 A 
ATOM     27  C   UNL     1       1.876   7.699  19.716  0.00  0.00    +0.000 A 
ENDBRANCH  21  22
ENDBRANCH  10  21
TORSDOF 5
ENDMDL
MODEL 7
REMARK VINA RESULT:      -8.2      1.563      2.811
REMARK  Name = 
REMARK  6 active torsions:
REMARK  status: ('A' for Active; 'I' for Inactive)
REMARK    1  A    between atoms: C_1  and  C_2
REMARK    2  A    between atoms: C_2  and  C_3
REMARK    3  A    between atoms: C_2  and  N_9
REMARK    4  A    between atoms: C_18  and  O_19
REMARK    5  A    between atoms: C_18  and  C_20
REMARK    6  A    between atoms: C_20  and  C_21
REMARK                            x       y       z     vdW  Elec       q    Type
REMARK                         _______ _______ _______ _____ _____    ______ ____
ROOT
ATOM      1  N   UNL     1       4.737   4.927  16.999  0.00  0.00    +0.000 N 
ATOM      2  C   UNL     1       4.652   3.549  17.077  0.00  0.00    +0.000 C 
ATOM      3  O   UNL     1       5.392   2.696  16.608  0.00  0.00    +0.000 OA
ATOM      4  C   UNL     1       3.439   3.233  17.824  0.00  0.00    +0.000 A 
ATOM      5  C   UNL     1       2.996   1.983  18.203  0.00  0.00    +0.000 A 
ATOM      6  C   UNL     1       1.795   1.923  18.897  0.00  0.00    +0.000 A 
ATOM      7  C   UNL     1       1.057   3.099  19.131  0.00  0.00    +0.000 A 
ATOM      8  C   UNL     1       1.553   4.368  18.766  0.00  0.00    +0.000 A 
ATOM      9  C   UNL     1       2.796   4.435  18.156  0.00  0.00    +0.000 A 
ATOM     10  C   UNL     1       3.783   5.565  17.944  0.00  0.00    +0.000 C 
ENDROOT
BRANCH   1  12
ATOM     11  C   UNL     1       7.101   5.662  17.173  0.00  0.00    +0.000 C 
ATOM     12  C   UNL     1       5.828   5.610  16.318  0.00  0.00    +0.000 C 
BRANCH  12  13
ATOM     13  C   UNL     1       6.049   5.041  14.910  0.00  0.00    +0.000 A 
ATOM     14  C   UNL     1       5.029   4.405  14.183  0.00  0.00    +0.000 A 
ATOM     15  C   UNL     1       5.269   3.853  12.918  0.00  0.00    +0.000 A 
ATOM     16  C   UNL     1       6.531   3.954  12.346  0.00  0.00    +0.000 A 
ATOM     17  C   UNL     1       7.552   4.610  13.030  0.00  0.00    +0.000 A 
ATOM     18  C   UNL     1       7.311   5.148  14.298  0.00  0.00    +0.000 A 
ENDBRANCH  12  13
ENDBRANCH   1  12
BRANCH  10  19
ATOM     19  O   UNL     1       4.506   5.694  19.177  0.00  0.00    +0.000 OA
ATOM     20  H   UNL     1       4.252   4.945  19.749  0.00  0.00    +0.000 HD
ENDBRANCH  10  19
BRANCH  10  21
ATOM     21  C   UNL     1       3.331   6.989  17.519  0.00  0.00    +0.000 C 
BRANCH  21  22
ATOM     22  C   UNL     1       2.342   7.803  18.345  0.00  0.00    +0.000 A 
ATOM     23  C   UNL     1       2.162   7.577  19.718  0.00  0.00    +0.000 A 
ATOM     24  C   UNL     1       1.383   8.446  20.494  0.00  0.00    +0.000 A 
ATOM     25  C   UNL     1       0.786   9.559  19.912  0.00  0.00    +0.000 A 
ATOM     26  C   UNL     1       0.968   9.808  18.556  0.00  0.00    +0.000 A 
ATOM     27  C   UNL     1       1.742   8.939  17.778  0.00  0.00    +0.000 A 
ENDBRANCH  21  22
ENDBRANCH  10  21
TORSDOF 5
ENDMDL
MODEL 8
REMARK VINA RESULT:      -8.1      1.375      4.941
REMARK  Name = 
REMARK  6 active torsions:
REMARK  status: ('A' for Active; 'I' for Inactive)
REMARK    1  A    between atoms: C_1  and  C_2
REMARK    2  A    between atoms: C_2  and  C_3
REMARK    3  A    between atoms: C_2  and  N_9
REMARK    4  A    between atoms: C_18  and  O_19
REMARK    5  A    between atoms: C_18  and  C_20
REMARK    6  A    between atoms: C_20  and  C_21
REMARK                            x       y       z     vdW  Elec       q    Type
REMARK                         _______ _______ _______ _____ _____    ______ ____
ROOT
ATOM      1  N   UNL     1       4.160   5.089  17.892  0.00  0.00    +0.000 N 
ATOM      2  C   UNL     1       5.284   4.634  18.558  0.00  0.00    +0.000 C 
ATOM      3  O   UNL     1       5.457   3.588  19.167  0.00  0.00    +0.000 OA
ATOM      4  C   UNL     1       6.300   5.675  18.450  0.00  0.00    +0.000 A 
ATOM      5  C   UNL     1       7.601   5.620  18.905  0.00  0.00    +0.000 A 
ATOM      6  C   UNL     1       8.387   6.747  18.708  0.00  0.00    +0.000 A 
ATOM      7  C   UNL     1       7.830   7.901  18.123  0.00  0.00    +0.000 A 
ATOM      8  C   UNL     1       6.508   7.916  17.634  0.00  0.00    +0.000 A 
ATOM      9  C   UNL     1       5.753   6.759  17.747  0.00  0.00    +0.000 A 
ATOM     10  C   UNL     1       4.487   6.280  17.066  0.00  0.00    +0.000 C 
ENDROOT
BRANCH   1  12
ATOM     11  C   UNL     1       3.058   3.171  16.768  0.00  0.00    +0.000 C 
ATOM     12  C   UNL     1       2.935   4.307  17.792  0.00  0.00    +0.000 C 
BRANCH  12  13
ATOM     13  C   UNL     1       2.452   3.848  19.174  0.00  0.00    +0.000 A 
ATOM     14  C   UNL     1       2.660   4.606  20.338  0.00  0.00    +0.000 A 
ATOM     15  C   UNL     1       2.251   4.142  21.595  0.00  0.00    +0.000 A 
ATOM     16  C   UNL     1       1.599   2.921  21.704  0.00  0.00    +0.000 A 
ATOM     17  C   UNL     1       1.349   2.164  20.561  0.00  0.00    +0.000 A 
ATOM     18  C   UNL     1       1.772   2.624  19.310  0.00  0.00    +0.000 A 
ENDBRANCH  12  13
ENDBRANCH   1  12
BRANCH  10  19
ATOM     19  O   UNL     1       4.897   5.754  15.796  0.00  0.00    +0.000 OA
ATOM     20  H   UNL     1       5.353   6.468  15.312  0.00  0.00    +0.000 HD
ENDBRANCH  10  19
BRANCH  10  21
ATOM     21  C   UNL     1       3.278   7.223  16.811  0.00  0.00    +0.000 C 
BRANCH  21  22
ATOM     22  C   UNL     1       2.638   8.036  17.929  0.00  0.00    +0.000 A 
ATOM     23  C   UNL     1       2.024   9.274  17.687  0.00  0.00    +0.000 A 
ATOM     24  C   UNL     1       1.290   9.922  18.689  0.00  0.00    +0.000 A 
ATOM     25  C   UNL     1       1.147   9.335  19.942  0.00  0.00    +0.000 A 
ATOM     26  C   UNL     1       1.734   8.099  20.195  0.00  0.00    +0.000 A 
ATOM     27  C   UNL     1       2.471   7.453  19.196  0.00  0.00    +0.000 A 
ENDBRANCH  21  22
ENDBRANCH  10  21
TORSDOF 5
ENDMDL
MODEL 9
REMARK VINA RESULT:      -8.1      1.174      1.211
REMARK  Name = 
REMARK  6 active torsions:
REMARK  status: ('A' for Active; 'I' for Inactive)
REMARK    1  A    between atoms: C_1  and  C_2
REMARK    2  A    between atoms: C_2  and  C_3
REMARK    3  A    between atoms: C_2  and  N_9
REMARK    4  A    between atoms: C_18  and  O_19
REMARK    5  A    between atoms: C_18  and  C_20
REMARK    6  A    between atoms: C_20  and  C_21
REMARK                            x       y       z     vdW  Elec       q    Type
REMARK                         _______ _______ _______ _____ _____    ______ ____
ROOT
ATOM      1  N   UNL     1       4.458   4.101  18.406  0.00  0.00    +0.000 N 
ATOM      2  C   UNL     1       4.439   2.949  19.172  0.00  0.00    +0.000 C 
ATOM      3  O   UNL     1       5.164   1.967  19.119  0.00  0.00    +0.000 OA
ATOM      4  C   UNL     1       3.319   3.069  20.100  0.00  0.00    +0.000 A 
ATOM      5  C   UNL     1       2.968   2.185  21.099  0.00  0.00    +0.000 A 
ATOM      6  C   UNL     1       1.843   2.498  21.851  0.00  0.00    +0.000 A 
ATOM      7  C   UNL     1       1.084   3.641  21.540  0.00  0.00    +0.000 A 
ATOM      8  C   UNL     1       1.488   4.548  20.539  0.00  0.00    +0.000 A 
ATOM      9  C   UNL     1       2.661   4.283  19.850  0.00  0.00    +0.000 A 
ATOM     10  C   UNL     1       3.576   5.139  18.997  0.00  0.00    +0.000 C 
ENDROOT
BRANCH   1  12
ATOM     11  C   UNL     1       4.800   4.556  15.990  0.00  0.00    +0.000 C 
ATOM     12  C   UNL     1       5.449   4.334  17.363  0.00  0.00    +0.000 C 
BRANCH  12  13
ATOM     13  C   UNL     1       6.438   5.434  17.769  0.00  0.00    +0.000 A 
ATOM     14  C   UNL     1       7.344   5.281  18.830  0.00  0.00    +0.000 A 
ATOM     15  C   UNL     1       8.205   6.320  19.211  0.00  0.00    +0.000 A 
ATOM     16  C   UNL     1       8.192   7.521  18.514  0.00  0.00    +0.000 A 
ATOM     17  C   UNL     1       7.327   7.687  17.434  0.00  0.00    +0.000 A 
ATOM     18  C   UNL     1       6.460   6.653  17.067  0.00  0.00    +0.000 A 
ENDBRANCH  12  13
ENDBRANCH   1  12
BRANCH  10  19
ATOM     19  O   UNL     1       4.409   5.861  19.916  0.00  0.00    +0.000 OA
ATOM     20  H   UNL     1       4.393   5.385  20.767  0.00  0.00    +0.000 HD
ENDBRANCH  10  19
BRANCH  10  21
ATOM     21  C   UNL     1       3.025   6.163  17.966  0.00  0.00    +0.000 C 
BRANCH  21  22
ATOM     22  C   UNL     1       2.309   7.437  18.395  0.00  0.00    +0.000 A 
ATOM     23  C   UNL     1       1.846   7.621  19.707  0.00  0.00    +0.000 A 
ATOM     24  C   UNL     1       1.350   8.862  20.128  0.00  0.00    +0.000 A 
ATOM     25  C   UNL     1       1.324   9.940  19.249  0.00  0.00    +0.000 A 
ATOM     26  C   UNL     1       1.795   9.781  17.950  0.00  0.00    +0.000 A 
ATOM     27  C   UNL     1       2.286   8.541  17.527  0.00  0.00    +0.000 A 
ENDBRANCH  21  22
ENDBRANCH  10  21
TORSDOF 5
ENDMDL
