MODEL 1
REMARK VINA RESULT:      -7.3      0.000      0.000
REMARK  Name = 
REMARK  13 active torsions:
REMARK  status: ('A' for Active; 'I' for Inactive)
REMARK    1  A    between atoms: C_1  and  N_2
REMARK    2  A    between atoms: N_2  and  C_3
REMARK    3  A    between atoms: N_2  and  C_4
REMARK    4  A    between atoms: C_4  and  C_5
REMARK    5  A    between atoms: C_5  and  N_6
REMARK    6  A    between atoms: N_6  and  C_7
REMARK    7  A    between atoms: C_8  and  C_10
REMARK    8  A    between atoms: N_14  and  C_15
REMARK    9  A    between atoms: C_15  and  C_16
REMARK   10  A    between atoms: C_16  and  N_17
REMARK   11  A    between atoms: C_21  and  N_22
REMARK   12  A    between atoms: C_28  and  C_29
REMARK   13  A    between atoms: C_32  and  C_33
REMARK                            x       y       z     vdW  Elec       q    Type
REMARK                         _______ _______ _______ _____ _____    ______ ____
ROOT
ATOM      1  C   UNL     1      -0.155  10.459  21.578  0.00  0.00    +0.000 A 
ATOM      2  C   UNL     1      -0.519   9.156  21.811  0.00  0.00    +0.000 A 
ATOM      3  N   UNL     1       0.215   8.081  21.499  0.00  0.00    +0.000 NA
ATOM      4  C   UNL     1       1.341   8.280  20.824  0.00  0.00    +0.000 A 
ATOM      5  N   UNL     1       2.043   7.185  20.364  0.00  0.00    +0.000 N 
ATOM      6  N   UNL     1       1.748   9.495  20.457  0.00  0.00    +0.000 NA
ATOM      7  C   UNL     1       0.973  10.592  20.765  0.00  0.00    +0.000 A 
ATOM      8  H   UNL     1       3.034   7.301  20.532  0.00  0.00    +0.000 HD
ENDROOT
BRANCH   7   9
ATOM      9  C   UNL     1       1.460  11.819  20.068  0.00  0.00    +0.000 A 
ATOM     10  C   UNL     1       1.649  11.895  18.677  0.00  0.00    +0.000 A 
ATOM     11  C   UNL     1       2.068  13.065  18.033  0.00  0.00    +0.000 A 
ATOM     12  C   UNL     1       2.434  14.177  18.782  0.00  0.00    +0.000 A 
ATOM     13  C   UNL     1       2.381  14.103  20.173  0.00  0.00    +0.000 A 
ATOM     14  C   UNL     1       1.888  12.945  20.801  0.00  0.00    +0.000 A 
BRANCH  12  15
ATOM     15  C   UNL     1       2.894  15.364  18.128  0.00  0.00    +0.000 C 
ATOM     16  N   UNL     1       3.260  16.330  17.597  0.00  0.00    +0.000 NA
ENDBRANCH  12  15
ENDBRANCH   7   9
BRANCH   1  19
ATOM     17  N   UNL     1      -1.986  12.186  21.355  0.00  0.00    +0.000 N 
ATOM     18  C   UNL     1      -2.258  11.959  19.938  0.00  0.00    +0.000 C 
ATOM     19  C   UNL     1      -1.026  11.524  22.145  0.00  0.00    +0.000 C 
ATOM     20  O   UNL     1      -0.858  11.864  23.312  0.00  0.00    +0.000 OA
BRANCH  17  21
ATOM     21  C   UNL     1      -2.830  13.189  22.024  0.00  0.00    +0.000 C 
BRANCH  21  22
ATOM     22  C   UNL     1      -4.347  12.878  21.975  0.00  0.00    +0.000 C 
BRANCH  22  24
ATOM     23  C   UNL     1      -4.050  12.558  24.372  0.00  0.00    +0.000 C 
ATOM     24  N   UNL     1      -5.014  12.643  23.272  0.00  0.00    +0.000 NA
ATOM     25  C   UNL     1      -5.959  13.733  23.540  0.00  0.00    +0.000 C 
ENDBRANCH  22  24
ENDBRANCH  21  22
ENDBRANCH  17  21
ENDBRANCH   1  19
BRANCH   5  26
ATOM     26  C   UNL     1       1.465   5.854  20.559  0.00  0.00    +0.000 C 
BRANCH  26  27
ATOM     27  C   UNL     1       2.554   4.803  20.891  0.00  0.00    +0.000 C 
BRANCH  27  28
ATOM     28  N   UNL     1       2.880   3.918  19.780  0.00  0.00    +0.000 N 
ATOM     29  C   UNL     1       3.859   4.372  18.901  0.00  0.00    +0.000 A 
ATOM     30  C   UNL     1       4.968   5.119  19.310  0.00  0.00    +0.000 A 
ATOM     31  C   UNL     1       5.960   5.456  18.393  0.00  0.00    +0.000 A 
ATOM     32  C   UNL     1       5.824   5.004  17.086  0.00  0.00    +0.000 A 
ATOM     33  C   UNL     1       4.697   4.298  16.736  0.00  0.00    +0.000 A 
ATOM     34  N   UNL     1       3.711   3.979  17.619  0.00  0.00    +0.000 NA
ATOM     35  H   UNL     1       2.096   3.610  19.209  0.00  0.00    +0.000 HD
BRANCH  32  36
ATOM     36  N   UNL     1       6.868   5.264  16.099  0.00  0.00    +0.000 N 
ATOM     37  O   UNL     1       7.576   6.269  16.259  0.00  0.00    +0.000 OA
ATOM     38  O   UNL     1       6.991   4.457  15.167  0.00  0.00    +0.000 OA
ENDBRANCH  32  36
ENDBRANCH  27  28
ENDBRANCH  26  27
ENDBRANCH   5  26
TORSDOF 10
ENDMDL
MODEL 2
REMARK VINA RESULT:      -7.1      3.858      8.931
REMARK  Name = 
REMARK  13 active torsions:
REMARK  status: ('A' for Active; 'I' for Inactive)
REMARK    1  A    between atoms: C_1  and  N_2
REMARK    2  A    between atoms: N_2  and  C_3
REMARK    3  A    between atoms: N_2  and  C_4
REMARK    4  A    between atoms: C_4  and  C_5
REMARK    5  A    between atoms: C_5  and  N_6
REMARK    6  A    between atoms: N_6  and  C_7
REMARK    7  A    between atoms: C_8  and  C_10
REMARK    8  A    between atoms: N_14  and  C_15
REMARK    9  A    between atoms: C_15  and  C_16
REMARK   10  A    between atoms: C_16  and  N_17
REMARK   11  A    between atoms: C_21  and  N_22
REMARK   12  A    between atoms: C_28  and  C_29
REMARK   13  A    between atoms: C_32  and  C_33
REMARK                            x       y       z     vdW  Elec       q    Type
REMARK                         _______ _______ _______ _____ _____    ______ ____
ROOT
ATOM      1  C   UNL     1      -0.654  13.464  22.089  0.00  0.00    +0.000 A 
ATOM      2  C   UNL     1      -1.680  14.309  22.430  0.00  0.00    +0.000 A 
ATOM      3  N   UNL     1      -2.796  13.947  23.076  0.00  0.00    +0.000 NA
ATOM      4  C   UNL     1      -2.972  12.655  23.324  0.00  0.00    +0.000 A 
ATOM      5  N   UNL     1      -4.174  12.238  23.858  0.00  0.00    +0.000 N 
ATOM      6  N   UNL     1      -2.087  11.730  22.954  0.00  0.00    +0.000 NA
ATOM      7  C   UNL     1      -0.953  12.112  22.270  0.00  0.00    +0.000 A 
ATOM      8  H   UNL     1      -4.021  11.566  24.599  0.00  0.00    +0.000 HD
ENDROOT
BRANCH   7   9
ATOM      9  C   UNL     1      -0.216  10.930  21.731  0.00  0.00    +0.000 A 
ATOM     10  C   UNL     1       0.436   9.988  22.544  0.00  0.00    +0.000 A 
ATOM     11  C   UNL     1       1.089   8.863  22.026  0.00  0.00    +0.000 A 
ATOM     12  C   UNL     1       1.218   8.708  20.651  0.00  0.00    +0.000 A 
ATOM     13  C   UNL     1       0.693   9.685  19.807  0.00  0.00    +0.000 A 
ATOM     14  C   UNL     1      -0.023  10.770  20.343  0.00  0.00    +0.000 A 
BRANCH  12  15
ATOM     15  C   UNL     1       1.913   7.576  20.119  0.00  0.00    +0.000 C 
ATOM     16  N   UNL     1       2.482   6.657  19.691  0.00  0.00    +0.000 NA
ENDBRANCH  12  15
ENDBRANCH   7   9
BRANCH   1  19
ATOM     17  N   UNL     1       0.673  14.404  20.156  0.00  0.00    +0.000 N 
ATOM     18  C   UNL     1      -0.349  14.194  19.134  0.00  0.00    +0.000 C 
ATOM     19  C   UNL     1       0.577  14.078  21.522  0.00  0.00    +0.000 C 
ATOM     20  O   UNL     1       1.543  14.249  22.259  0.00  0.00    +0.000 OA
BRANCH  17  21
ATOM     21  C   UNL     1       1.915  15.053  19.705  0.00  0.00    +0.000 C 
BRANCH  21  22
ATOM     22  C   UNL     1       2.650  14.298  18.570  0.00  0.00    +0.000 C 
BRANCH  22  24
ATOM     23  C   UNL     1       3.041  16.539  17.697  0.00  0.00    +0.000 C 
ATOM     24  N   UNL     1       3.420  15.126  17.618  0.00  0.00    +0.000 NA
ATOM     25  C   UNL     1       4.853  14.992  17.901  0.00  0.00    +0.000 C 
ENDBRANCH  22  24
ENDBRANCH  21  22
ENDBRANCH  17  21
ENDBRANCH   1  19
BRANCH   5  26
ATOM     26  C   UNL     1      -5.238  13.227  24.039  0.00  0.00    +0.000 C 
BRANCH  26  27
ATOM     27  C   UNL     1      -6.062  13.422  22.742  0.00  0.00    +0.000 C 
BRANCH  27  28
ATOM     28  N   UNL     1      -6.395  12.178  22.060  0.00  0.00    +0.000 N 
ATOM     29  C   UNL     1      -5.839  12.005  20.795  0.00  0.00    +0.000 A 
ATOM     30  C   UNL     1      -4.561  12.457  20.452  0.00  0.00    +0.000 A 
ATOM     31  C   UNL     1      -4.030  12.163  19.199  0.00  0.00    +0.000 A 
ATOM     32  C   UNL     1      -4.790  11.390  18.330  0.00  0.00    +0.000 A 
ATOM     33  C   UNL     1      -6.051  10.999  18.713  0.00  0.00    +0.000 A 
ATOM     34  N   UNL     1      -6.590  11.297  19.927  0.00  0.00    +0.000 NA
ATOM     35  H   UNL     1      -7.387  11.968  21.973  0.00  0.00    +0.000 HD
BRANCH  32  36
ATOM     36  N   UNL     1      -4.254  10.988  17.032  0.00  0.00    +0.000 N 
ATOM     37  O   UNL     1      -4.596  11.646  16.039  0.00  0.00    +0.000 OA
ATOM     38  O   UNL     1      -3.480  10.022  17.006  0.00  0.00    +0.000 OA
ENDBRANCH  32  36
ENDBRANCH  27  28
ENDBRANCH  26  27
ENDBRANCH   5  26
TORSDOF 10
ENDMDL
MODEL 3
REMARK VINA RESULT:      -7.0      2.346      3.934
REMARK  Name = 
REMARK  13 active torsions:
REMARK  status: ('A' for Active; 'I' for Inactive)
REMARK    1  A    between atoms: C_1  and  N_2
REMARK    2  A    between atoms: N_2  and  C_3
REMARK    3  A    between atoms: N_2  and  C_4
REMARK    4  A    between atoms: C_4  and  C_5
REMARK    5  A    between atoms: C_5  and  N_6
REMARK    6  A    between atoms: N_6  and  C_7
REMARK    7  A    between atoms: C_8  and  C_10
REMARK    8  A    between atoms: N_14  and  C_15
REMARK    9  A    between atoms: C_15  and  C_16
REMARK   10  A    between atoms: C_16  and  N_17
REMARK   11  A    between atoms: C_21  and  N_22
REMARK   12  A    between atoms: C_28  and  C_29
REMARK   13  A    between atoms: C_32  and  C_33
REMARK                            x       y       z     vdW  Elec       q    Type
REMARK                         _______ _______ _______ _____ _____    ______ ____
ROOT
ATOM      1  C   UNL     1      -0.257  10.703  20.898  0.00  0.00    +0.000 A 
ATOM      2  C   UNL     1       0.860   9.937  21.117  0.00  0.00    +0.000 A 
ATOM      3  N   UNL     1       1.583   9.334  20.165  0.00  0.00    +0.000 NA
ATOM      4  C   UNL     1       1.134   9.401  18.917  0.00  0.00    +0.000 A 
ATOM      5  N   UNL     1       1.777   8.670  17.939  0.00  0.00    +0.000 N 
ATOM      6  N   UNL     1       0.007  10.036  18.597  0.00  0.00    +0.000 NA
ATOM      7  C   UNL     1      -0.740  10.634  19.589  0.00  0.00    +0.000 A 
ATOM      8  H   UNL     1       1.900   9.227  17.102  0.00  0.00    +0.000 HD
ENDROOT
BRANCH   7   9
ATOM      9  C   UNL     1      -2.072  11.074  19.080  0.00  0.00    +0.000 A 
ATOM     10  C   UNL     1      -2.880  12.017  19.739  0.00  0.00    +0.000 A 
ATOM     11  C   UNL     1      -4.109  12.450  19.228  0.00  0.00    +0.000 A 
ATOM     12  C   UNL     1      -4.635  11.855  18.088  0.00  0.00    +0.000 A 
ATOM     13  C   UNL     1      -3.925  10.827  17.472  0.00  0.00    +0.000 A 
ATOM     14  C   UNL     1      -2.657  10.456  17.956  0.00  0.00    +0.000 A 
BRANCH  12  15
ATOM     15  C   UNL     1      -5.907  12.273  17.582  0.00  0.00    +0.000 C 
ATOM     16  N   UNL     1      -6.943  12.609  17.176  0.00  0.00    +0.000 NA
ENDBRANCH  12  15
ENDBRANCH   7   9
BRANCH   1  19
ATOM     17  N   UNL     1      -0.660  12.816  22.223  0.00  0.00    +0.000 N 
ATOM     18  C   UNL     1       0.070  13.714  21.333  0.00  0.00    +0.000 C 
ATOM     19  C   UNL     1      -0.829  11.427  22.065  0.00  0.00    +0.000 C 
ATOM     20  O   UNL     1      -1.413  10.781  22.931  0.00  0.00    +0.000 OA
BRANCH  17  21
ATOM     21  C   UNL     1      -1.308  13.444  23.387  0.00  0.00    +0.000 C 
BRANCH  21  22
ATOM     22  C   UNL     1      -2.683  14.087  23.078  0.00  0.00    +0.000 C 
BRANCH  22  24
ATOM     23  C   UNL     1      -4.109  12.631  24.414  0.00  0.00    +0.000 C 
ATOM     24  N   UNL     1      -3.850  13.181  23.080  0.00  0.00    +0.000 NA
ATOM     25  C   UNL     1      -5.036  13.911  22.619  0.00  0.00    +0.000 C 
ENDBRANCH  22  24
ENDBRANCH  21  22
ENDBRANCH  17  21
ENDBRANCH   1  19
BRANCH   5  26
ATOM     26  C   UNL     1       2.869   7.781  18.337  0.00  0.00    +0.000 C 
BRANCH  26  27
ATOM     27  C   UNL     1       2.395   6.311  18.451  0.00  0.00    +0.000 C 
BRANCH  27  28
ATOM     28  N   UNL     1       3.480   5.338  18.470  0.00  0.00    +0.000 N 
ATOM     29  C   UNL     1       4.240   5.245  17.308  0.00  0.00    +0.000 A 
ATOM     30  C   UNL     1       4.549   6.347  16.505  0.00  0.00    +0.000 A 
ATOM     31  C   UNL     1       5.397   6.198  15.411  0.00  0.00    +0.000 A 
ATOM     32  C   UNL     1       5.941   4.942  15.171  0.00  0.00    +0.000 A 
ATOM     33  C   UNL     1       5.578   3.891  15.978  0.00  0.00    +0.000 A 
ATOM     34  N   UNL     1       4.734   4.019  17.039  0.00  0.00    +0.000 NA
ATOM     35  H   UNL     1       3.222   4.387  18.727  0.00  0.00    +0.000 HD
BRANCH  32  36
ATOM     36  N   UNL     1       6.895   4.743  14.082  0.00  0.00    +0.000 N 
ATOM     37  O   UNL     1       7.884   5.489  14.039  0.00  0.00    +0.000 OA
ATOM     38  O   UNL     1       6.662   3.833  13.275  0.00  0.00    +0.000 OA
ENDBRANCH  32  36
ENDBRANCH  27  28
ENDBRANCH  26  27
ENDBRANCH   5  26
TORSDOF 10
ENDMDL
MODEL 4
REMARK VINA RESULT:      -7.0      1.285      1.846
REMARK  Name = 
REMARK  13 active torsions:
REMARK  status: ('A' for Active; 'I' for Inactive)
REMARK    1  A    between atoms: C_1  and  N_2
REMARK    2  A    between atoms: N_2  and  C_3
REMARK    3  A    between atoms: N_2  and  C_4
REMARK    4  A    between atoms: C_4  and  C_5
REMARK    5  A    between atoms: C_5  and  N_6
REMARK    6  A    between atoms: N_6  and  C_7
REMARK    7  A    between atoms: C_8  and  C_10
REMARK    8  A    between atoms: N_14  and  C_15
REMARK    9  A    between atoms: C_15  and  C_16
REMARK   10  A    between atoms: C_16  and  N_17
REMARK   11  A    between atoms: C_21  and  N_22
REMARK   12  A    between atoms: C_28  and  C_29
REMARK   13  A    between atoms: C_32  and  C_33
REMARK                            x       y       z     vdW  Elec       q    Type
REMARK                         _______ _______ _______ _____ _____    ______ ____
ROOT
ATOM      1  C   UNL     1      -0.230  10.434  21.544  0.00  0.00    +0.000 A 
ATOM      2  C   UNL     1      -0.531   9.110  21.739  0.00  0.00    +0.000 A 
ATOM      3  N   UNL     1       0.262   8.081  21.414  0.00  0.00    +0.000 NA
ATOM      4  C   UNL     1       1.387   8.353  20.766  0.00  0.00    +0.000 A 
ATOM      5  N   UNL     1       2.152   7.306  20.292  0.00  0.00    +0.000 N 
ATOM      6  N   UNL     1       1.739   9.596  20.436  0.00  0.00    +0.000 NA
ATOM      7  C   UNL     1       0.904  10.644  20.756  0.00  0.00    +0.000 A 
ATOM      8  H   UNL     1       3.133   7.468  20.482  0.00  0.00    +0.000 HD
ENDROOT
BRANCH   7   9
ATOM      9  C   UNL     1       1.341  11.911  20.098  0.00  0.00    +0.000 A 
ATOM     10  C   UNL     1       1.675  12.000  18.735  0.00  0.00    +0.000 A 
ATOM     11  C   UNL     1       2.043  13.204  18.124  0.00  0.00    +0.000 A 
ATOM     12  C   UNL     1       2.211  14.350  18.891  0.00  0.00    +0.000 A 
ATOM     13  C   UNL     1       2.011  14.278  20.268  0.00  0.00    +0.000 A 
ATOM     14  C   UNL     1       1.569  13.078  20.856  0.00  0.00    +0.000 A 
BRANCH  12  15
ATOM     15  C   UNL     1       2.619  15.575  18.273  0.00  0.00    +0.000 C 
ATOM     16  N   UNL     1       2.945  16.573  17.774  0.00  0.00    +0.000 NA
ENDBRANCH  12  15
ENDBRANCH   7   9
BRANCH   1  19
ATOM     17  N   UNL     1      -2.054  12.166  21.307  0.00  0.00    +0.000 N 
ATOM     18  C   UNL     1      -2.190  12.068  19.857  0.00  0.00    +0.000 C 
ATOM     19  C   UNL     1      -1.163  11.440  22.120  0.00  0.00    +0.000 C 
ATOM     20  O   UNL     1      -1.108  11.673  23.324  0.00  0.00    +0.000 OA
BRANCH  17  21
ATOM     21  C   UNL     1      -2.969  13.101  21.981  0.00  0.00    +0.000 C 
BRANCH  21  22
ATOM     22  C   UNL     1      -2.447  14.558  22.058  0.00  0.00    +0.000 C 
BRANCH  22  24
ATOM     23  C   UNL     1      -3.515  16.584  21.227  0.00  0.00    +0.000 C 
ATOM     24  N   UNL     1      -2.704  15.413  20.881  0.00  0.00    +0.000 NA
ATOM     25  C   UNL     1      -1.427  15.860  20.313  0.00  0.00    +0.000 C 
ENDBRANCH  22  24
ENDBRANCH  21  22
ENDBRANCH  17  21
ENDBRANCH   1  19
BRANCH   5  26
ATOM     26  C   UNL     1       1.639   5.943  20.444  0.00  0.00    +0.000 C 
BRANCH  26  27
ATOM     27  C   UNL     1       2.751   4.888  20.223  0.00  0.00    +0.000 C 
BRANCH  27  28
ATOM     28  N   UNL     1       4.071   5.459  19.989  0.00  0.00    +0.000 N 
ATOM     29  C   UNL     1       4.669   5.143  18.772  0.00  0.00    +0.000 A 
ATOM     30  C   UNL     1       3.951   4.997  17.581  0.00  0.00    +0.000 A 
ATOM     31  C   UNL     1       4.623   4.777  16.383  0.00  0.00    +0.000 A 
ATOM     32  C   UNL     1       6.012   4.742  16.408  0.00  0.00    +0.000 A 
ATOM     33  C   UNL     1       6.662   4.864  17.613  0.00  0.00    +0.000 A 
ATOM     34  N   UNL     1       6.015   5.058  18.795  0.00  0.00    +0.000 NA
ATOM     35  H   UNL     1       4.768   5.284  20.710  0.00  0.00    +0.000 HD
BRANCH  32  36
ATOM     36  N   UNL     1       6.773   4.590  15.171  0.00  0.00    +0.000 N 
ATOM     37  O   UNL     1       7.743   5.342  14.994  0.00  0.00    +0.000 OA
ATOM     38  O   UNL     1       6.410   3.709  14.379  0.00  0.00    +0.000 OA
ENDBRANCH  32  36
ENDBRANCH  27  28
ENDBRANCH  26  27
ENDBRANCH   5  26
TORSDOF 10
ENDMDL
MODEL 5
REMARK VINA RESULT:      -7.0      1.120      1.582
REMARK  Name = 
REMARK  13 active torsions:
REMARK  status: ('A' for Active; 'I' for Inactive)
REMARK    1  A    between atoms: C_1  and  N_2
REMARK    2  A    between atoms: N_2  and  C_3
REMARK    3  A    between atoms: N_2  and  C_4
REMARK    4  A    between atoms: C_4  and  C_5
REMARK    5  A    between atoms: C_5  and  N_6
REMARK    6  A    between atoms: N_6  and  C_7
REMARK    7  A    between atoms: C_8  and  C_10
REMARK    8  A    between atoms: N_14  and  C_15
REMARK    9  A    between atoms: C_15  and  C_16
REMARK   10  A    between atoms: C_16  and  N_17
REMARK   11  A    between atoms: C_21  and  N_22
REMARK   12  A    between atoms: C_28  and  C_29
REMARK   13  A    between atoms: C_32  and  C_33
REMARK                            x       y       z     vdW  Elec       q    Type
REMARK                         _______ _______ _______ _____ _____    ______ ____
ROOT
ATOM      1  C   UNL     1      -0.183  10.490  21.570  0.00  0.00    +0.000 A 
ATOM      2  C   UNL     1      -0.512   9.173  21.768  0.00  0.00    +0.000 A 
ATOM      3  N   UNL     1       0.258   8.127  21.443  0.00  0.00    +0.000 NA
ATOM      4  C   UNL     1       1.388   8.374  20.791  0.00  0.00    +0.000 A 
ATOM      5  N   UNL     1       2.128   7.311  20.317  0.00  0.00    +0.000 N 
ATOM      6  N   UNL     1       1.764   9.608  20.458  0.00  0.00    +0.000 NA
ATOM      7  C   UNL     1       0.953  10.675  20.779  0.00  0.00    +0.000 A 
ATOM      8  H   UNL     1       3.113   7.451  20.504  0.00  0.00    +0.000 HD
ENDROOT
BRANCH   7   9
ATOM      9  C   UNL     1       1.414  11.931  20.117  0.00  0.00    +0.000 A 
ATOM     10  C   UNL     1       1.488  13.171  20.775  0.00  0.00    +0.000 A 
ATOM     11  C   UNL     1       1.961  14.331  20.153  0.00  0.00    +0.000 A 
ATOM     12  C   UNL     1       2.263  14.317  18.797  0.00  0.00    +0.000 A 
ATOM     13  C   UNL     1       2.086  13.139  18.075  0.00  0.00    +0.000 A 
ATOM     14  C   UNL     1       1.680  11.963  18.732  0.00  0.00    +0.000 A 
BRANCH  12  15
ATOM     15  C   UNL     1       2.716  15.511  18.150  0.00  0.00    +0.000 C 
ATOM     16  N   UNL     1       3.079  16.480  17.619  0.00  0.00    +0.000 NA
ENDBRANCH  12  15
ENDBRANCH   7   9
BRANCH   1  19
ATOM     17  N   UNL     1      -1.999  12.232  21.341  0.00  0.00    +0.000 N 
ATOM     18  C   UNL     1      -2.172  12.104  19.897  0.00  0.00    +0.000 C 
ATOM     19  C   UNL     1      -1.093  11.516  22.147  0.00  0.00    +0.000 C 
ATOM     20  O   UNL     1      -1.007  11.775  23.344  0.00  0.00    +0.000 OA
BRANCH  17  21
ATOM     21  C   UNL     1      -2.889  13.190  22.016  0.00  0.00    +0.000 C 
BRANCH  21  22
ATOM     22  C   UNL     1      -3.283  14.412  21.150  0.00  0.00    +0.000 C 
BRANCH  22  24
ATOM     23  C   UNL     1      -5.530  13.499  20.924  0.00  0.00    +0.000 C 
ATOM     24  N   UNL     1      -4.725  14.717  21.056  0.00  0.00    +0.000 NA
ATOM     25  C   UNL     1      -5.150  15.450  22.253  0.00  0.00    +0.000 C 
ENDBRANCH  22  24
ENDBRANCH  21  22
ENDBRANCH  17  21
ENDBRANCH   1  19
BRANCH   5  26
ATOM     26  C   UNL     1       1.587   5.959  20.472  0.00  0.00    +0.000 C 
BRANCH  26  27
ATOM     27  C   UNL     1       2.668   4.879  20.217  0.00  0.00    +0.000 C 
BRANCH  27  28
ATOM     28  N   UNL     1       4.008   5.418  20.023  0.00  0.00    +0.000 N 
ATOM     29  C   UNL     1       4.618   5.120  18.807  0.00  0.00    +0.000 A 
ATOM     30  C   UNL     1       3.917   5.031  17.601  0.00  0.00    +0.000 A 
ATOM     31  C   UNL     1       4.604   4.828  16.407  0.00  0.00    +0.000 A 
ATOM     32  C   UNL     1       5.991   4.751  16.455  0.00  0.00    +0.000 A 
ATOM     33  C   UNL     1       6.622   4.817  17.674  0.00  0.00    +0.000 A 
ATOM     34  N   UNL     1       5.960   4.995  18.850  0.00  0.00    +0.000 NA
ATOM     35  H   UNL     1       4.687   5.200  20.749  0.00  0.00    +0.000 HD
BRANCH  32  36
ATOM     36  N   UNL     1       6.769   4.612  15.227  0.00  0.00    +0.000 N 
ATOM     37  O   UNL     1       7.750   5.356  15.079  0.00  0.00    +0.000 OA
ATOM     38  O   UNL     1       6.408   3.752  14.413  0.00  0.00    +0.000 OA
ENDBRANCH  32  36
ENDBRANCH  27  28
ENDBRANCH  26  27
ENDBRANCH   5  26
TORSDOF 10
ENDMDL
MODEL 6
REMARK VINA RESULT:      -6.9      1.077      1.752
REMARK  Name = 
REMARK  13 active torsions:
REMARK  status: ('A' for Active; 'I' for Inactive)
REMARK    1  A    between atoms: C_1  and  N_2
REMARK    2  A    between atoms: N_2  and  C_3
REMARK    3  A    between atoms: N_2  and  C_4
REMARK    4  A    between atoms: C_4  and  C_5
REMARK    5  A    between atoms: C_5  and  N_6
REMARK    6  A    between atoms: N_6  and  C_7
REMARK    7  A    between atoms: C_8  and  C_10
REMARK    8  A    between atoms: N_14  and  C_15
REMARK    9  A    between atoms: C_15  and  C_16
REMARK   10  A    between atoms: C_16  and  N_17
REMARK   11  A    between atoms: C_21  and  N_22
REMARK   12  A    between atoms: C_28  and  C_29
REMARK   13  A    between atoms: C_32  and  C_33
REMARK                            x       y       z     vdW  Elec       q    Type
REMARK                         _______ _______ _______ _____ _____    ______ ____
ROOT
ATOM      1  C   UNL     1      -0.098  10.379  21.546  0.00  0.00    +0.000 A 
ATOM      2  C   UNL     1      -0.479   9.080  21.771  0.00  0.00    +0.000 A 
ATOM      3  N   UNL     1       0.245   7.998  21.458  0.00  0.00    +0.000 NA
ATOM      4  C   UNL     1       1.378   8.187  20.793  0.00  0.00    +0.000 A 
ATOM      5  N   UNL     1       2.071   7.086  20.333  0.00  0.00    +0.000 N 
ATOM      6  N   UNL     1       1.802   9.399  20.434  0.00  0.00    +0.000 NA
ATOM      7  C   UNL     1       1.037  10.503  20.742  0.00  0.00    +0.000 A 
ATOM      8  H   UNL     1       3.062   7.190  20.509  0.00  0.00    +0.000 HD
ENDROOT
BRANCH   7   9
ATOM      9  C   UNL     1       1.543  11.727  20.054  0.00  0.00    +0.000 A 
ATOM     10  C   UNL     1       1.722  12.962  20.701  0.00  0.00    +0.000 A 
ATOM     11  C   UNL     1       2.235  14.090  20.052  0.00  0.00    +0.000 A 
ATOM     12  C   UNL     1       2.475  14.054  18.683  0.00  0.00    +0.000 A 
ATOM     13  C   UNL     1       2.193  12.887  17.977  0.00  0.00    +0.000 A 
ATOM     14  C   UNL     1       1.748  11.740  18.658  0.00  0.00    +0.000 A 
BRANCH  12  15
ATOM     15  C   UNL     1       2.969  15.217  18.011  0.00  0.00    +0.000 C 
ATOM     16  N   UNL     1       3.370  16.158  17.458  0.00  0.00    +0.000 NA
ENDBRANCH  12  15
ENDBRANCH   7   9
BRANCH   1  19
ATOM     17  N   UNL     1      -1.855  12.178  21.302  0.00  0.00    +0.000 N 
ATOM     18  C   UNL     1      -2.060  12.019  19.865  0.00  0.00    +0.000 C 
ATOM     19  C   UNL     1      -0.961  11.452  22.111  0.00  0.00    +0.000 C 
ATOM     20  O   UNL     1      -0.843  11.738  23.298  0.00  0.00    +0.000 OA
BRANCH  17  21
ATOM     21  C   UNL     1      -2.699  13.184  21.967  0.00  0.00    +0.000 C 
BRANCH  21  22
ATOM     22  C   UNL     1      -2.912  14.480  21.145  0.00  0.00    +0.000 C 
BRANCH  22  24
ATOM     23  C   UNL     1      -1.415  16.110  20.126  0.00  0.00    +0.000 C 
ATOM     24  N   UNL     1      -1.951  15.577  21.381  0.00  0.00    +0.000 NA
ATOM     25  C   UNL     1      -2.613  16.655  22.122  0.00  0.00    +0.000 C 
ENDBRANCH  22  24
ENDBRANCH  21  22
ENDBRANCH  17  21
ENDBRANCH   1  19
BRANCH   5  26
ATOM     26  C   UNL     1       1.477   5.760  20.518  0.00  0.00    +0.000 C 
BRANCH  26  27
ATOM     27  C   UNL     1       2.557   4.684  20.786  0.00  0.00    +0.000 C 
BRANCH  27  28
ATOM     28  N   UNL     1       2.928   3.911  19.607  0.00  0.00    +0.000 N 
ATOM     29  C   UNL     1       3.956   4.435  18.829  0.00  0.00    +0.000 A 
ATOM     30  C   UNL     1       5.053   5.116  19.366  0.00  0.00    +0.000 A 
ATOM     31  C   UNL     1       6.094   5.527  18.539  0.00  0.00    +0.000 A 
ATOM     32  C   UNL     1       6.019   5.213  17.187  0.00  0.00    +0.000 A 
ATOM     33  C   UNL     1       4.902   4.567  16.712  0.00  0.00    +0.000 A 
ATOM     34  N   UNL     1       3.868   4.178  17.508  0.00  0.00    +0.000 NA
ATOM     35  H   UNL     1       2.170   3.678  18.969  0.00  0.00    +0.000 HD
BRANCH  32  36
ATOM     36  N   UNL     1       7.115   5.554  16.284  0.00  0.00    +0.000 N 
ATOM     37  O   UNL     1       7.650   6.664  16.420  0.00  0.00    +0.000 OA
ATOM     38  O   UNL     1       7.453   4.707  15.446  0.00  0.00    +0.000 OA
ENDBRANCH  32  36
ENDBRANCH  27  28
ENDBRANCH  26  27
ENDBRANCH   5  26
TORSDOF 10
ENDMDL
MODEL 7
REMARK VINA RESULT:      -6.9      0.851      1.381
REMARK  Name = 
REMARK  13 active torsions:
REMARK  status: ('A' for Active; 'I' for Inactive)
REMARK    1  A    between atoms: C_1  and  N_2
REMARK    2  A    between atoms: N_2  and  C_3
REMARK    3  A    between atoms: N_2  and  C_4
REMARK    4  A    between atoms: C_4  and  C_5
REMARK    5  A    between atoms: C_5  and  N_6
REMARK    6  A    between atoms: N_6  and  C_7
REMARK    7  A    between atoms: C_8  and  C_10
REMARK    8  A    between atoms: N_14  and  C_15
REMARK    9  A    between atoms: C_15  and  C_16
REMARK   10  A    between atoms: C_16  and  N_17
REMARK   11  A    between atoms: C_21  and  N_22
REMARK   12  A    between atoms: C_28  and  C_29
REMARK   13  A    between atoms: C_32  and  C_33
REMARK                            x       y       z     vdW  Elec       q    Type
REMARK                         _______ _______ _______ _____ _____    ______ ____
ROOT
ATOM      1  C   UNL     1      -0.151  10.538  21.547  0.00  0.00    +0.000 A 
ATOM      2  C   UNL     1      -0.554   9.242  21.754  0.00  0.00    +0.000 A 
ATOM      3  N   UNL     1       0.165   8.153  21.454  0.00  0.00    +0.000 NA
ATOM      4  C   UNL     1       1.317   8.331  20.819  0.00  0.00    +0.000 A 
ATOM      5  N   UNL     1       2.007   7.224  20.371  0.00  0.00    +0.000 N 
ATOM      6  N   UNL     1       1.765   9.539  20.479  0.00  0.00    +0.000 NA
ATOM      7  C   UNL     1       1.007  10.651  20.774  0.00  0.00    +0.000 A 
ATOM      8  H   UNL     1       2.995   7.314  20.573  0.00  0.00    +0.000 HD
ENDROOT
BRANCH   7   9
ATOM      9  C   UNL     1       1.546  11.873  20.106  0.00  0.00    +0.000 A 
ATOM     10  C   UNL     1       1.893  13.045  20.800  0.00  0.00    +0.000 A 
ATOM     11  C   UNL     1       2.435  14.168  20.165  0.00  0.00    +0.000 A 
ATOM     12  C   UNL     1       2.535  14.202  18.780  0.00  0.00    +0.000 A 
ATOM     13  C   UNL     1       2.086  13.108  18.042  0.00  0.00    +0.000 A 
ATOM     14  C   UNL     1       1.612  11.959  18.700  0.00  0.00    +0.000 A 
BRANCH  12  15
ATOM     15  C   UNL     1       3.059  15.362  18.125  0.00  0.00    +0.000 C 
ATOM     16  N   UNL     1       3.478  16.307  17.593  0.00  0.00    +0.000 NA
ENDBRANCH  12  15
ENDBRANCH   7   9
BRANCH   1  19
ATOM     17  N   UNL     1      -1.975  12.268  21.298  0.00  0.00    +0.000 N 
ATOM     18  C   UNL     1      -2.254  12.015  19.887  0.00  0.00    +0.000 C 
ATOM     19  C   UNL     1      -1.014  11.618  22.096  0.00  0.00    +0.000 C 
ATOM     20  O   UNL     1      -0.840  11.980  23.256  0.00  0.00    +0.000 OA
BRANCH  17  21
ATOM     21  C   UNL     1      -2.812  13.288  21.950  0.00  0.00    +0.000 C 
BRANCH  21  22
ATOM     22  C   UNL     1      -4.333  13.096  21.733  0.00  0.00    +0.000 C 
BRANCH  22  24
ATOM     23  C   UNL     1      -4.162  15.336  20.791  0.00  0.00    +0.000 C 
ATOM     24  N   UNL     1      -5.062  14.228  21.125  0.00  0.00    +0.000 NA
ATOM     25  C   UNL     1      -5.743  13.774  19.907  0.00  0.00    +0.000 C 
ENDBRANCH  22  24
ENDBRANCH  21  22
ENDBRANCH  17  21
ENDBRANCH   1  19
BRANCH   5  26
ATOM     26  C   UNL     1       1.392   5.905  20.532  0.00  0.00    +0.000 C 
BRANCH  26  27
ATOM     27  C   UNL     1       2.451   4.814  20.825  0.00  0.00    +0.000 C 
BRANCH  27  28
ATOM     28  N   UNL     1       2.699   3.914  19.707  0.00  0.00    +0.000 N 
ATOM     29  C   UNL     1       3.726   4.279  18.841  0.00  0.00    +0.000 A 
ATOM     30  C   UNL     1       4.900   4.907  19.269  0.00  0.00    +0.000 A 
ATOM     31  C   UNL     1       5.929   5.156  18.364  0.00  0.00    +0.000 A 
ATOM     32  C   UNL     1       5.762   4.734  17.050  0.00  0.00    +0.000 A 
ATOM     33  C   UNL     1       4.574   4.147  16.683  0.00  0.00    +0.000 A 
ATOM     34  N   UNL     1       3.552   3.917  17.554  0.00  0.00    +0.000 NA
ATOM     35  H   UNL     1       1.894   3.692  19.125  0.00  0.00    +0.000 HD
BRANCH  32  36
ATOM     36  N   UNL     1       6.836   4.901  16.075  0.00  0.00    +0.000 N 
ATOM     37  O   UNL     1       7.983   4.580  16.421  0.00  0.00    +0.000 OA
ATOM     38  O   UNL     1       6.533   5.341  14.958  0.00  0.00    +0.000 OA
ENDBRANCH  32  36
ENDBRANCH  27  28
ENDBRANCH  26  27
ENDBRANCH   5  26
TORSDOF 10
ENDMDL
MODEL 8
REMARK VINA RESULT:      -6.9      1.981      5.416
REMARK  Name = 
REMARK  13 active torsions:
REMARK  status: ('A' for Active; 'I' for Inactive)
REMARK    1  A    between atoms: C_1  and  N_2
REMARK    2  A    between atoms: N_2  and  C_3
REMARK    3  A    between atoms: N_2  and  C_4
REMARK    4  A    between atoms: C_4  and  C_5
REMARK    5  A    between atoms: C_5  and  N_6
REMARK    6  A    between atoms: N_6  and  C_7
REMARK    7  A    between atoms: C_8  and  C_10
REMARK    8  A    between atoms: N_14  and  C_15
REMARK    9  A    between atoms: C_15  and  C_16
REMARK   10  A    between atoms: C_16  and  N_17
REMARK   11  A    between atoms: C_21  and  N_22
REMARK   12  A    between atoms: C_28  and  C_29
REMARK   13  A    between atoms: C_32  and  C_33
REMARK                            x       y       z     vdW  Elec       q    Type
REMARK                         _______ _______ _______ _____ _____    ______ ____
ROOT
ATOM      1  C   UNL     1       0.922  12.072  19.064  0.00  0.00    +0.000 A 
ATOM      2  C   UNL     1       1.956  11.464  18.397  0.00  0.00    +0.000 A 
ATOM      3  N   UNL     1       2.112  10.142  18.256  0.00  0.00    +0.000 NA
ATOM      4  C   UNL     1       1.255   9.350  18.889  0.00  0.00    +0.000 A 
ATOM      5  N   UNL     1       1.476   7.988  18.880  0.00  0.00    +0.000 N 
ATOM      6  N   UNL     1       0.267   9.827  19.646  0.00  0.00    +0.000 NA
ATOM      7  C   UNL     1       0.130  11.189  19.802  0.00  0.00    +0.000 A 
ATOM      8  H   UNL     1       0.612   7.488  18.706  0.00  0.00    +0.000 HD
ENDROOT
BRANCH   7   9
ATOM      9  C   UNL     1      -0.863  11.521  20.866  0.00  0.00    +0.000 A 
ATOM     10  C   UNL     1      -1.988  12.335  20.649  0.00  0.00    +0.000 A 
ATOM     11  C   UNL     1      -2.931  12.604  21.647  0.00  0.00    +0.000 A 
ATOM     12  C   UNL     1      -2.713  12.162  22.946  0.00  0.00    +0.000 A 
ATOM     13  C   UNL     1      -1.547  11.455  23.234  0.00  0.00    +0.000 A 
ATOM     14  C   UNL     1      -0.646  11.131  22.204  0.00  0.00    +0.000 A 
BRANCH  12  15
ATOM     15  C   UNL     1      -3.661  12.463  23.975  0.00  0.00    +0.000 C 
ATOM     16  N   UNL     1      -4.425  12.706  24.816  0.00  0.00    +0.000 NA
ENDBRANCH  12  15
ENDBRANCH   7   9
BRANCH   1  19
ATOM     17  N   UNL     1       1.678  14.391  19.723  0.00  0.00    +0.000 N 
ATOM     18  C   UNL     1       2.713  13.969  20.663  0.00  0.00    +0.000 C 
ATOM     19  C   UNL     1       0.829  13.554  18.973  0.00  0.00    +0.000 C 
ATOM     20  O   UNL     1      -0.046  14.048  18.269  0.00  0.00    +0.000 OA
BRANCH  17  21
ATOM     21  C   UNL     1       1.538  15.843  19.524  0.00  0.00    +0.000 C 
BRANCH  21  22
ATOM     22  C   UNL     1       2.808  16.658  19.874  0.00  0.00    +0.000 C 
BRANCH  22  24
ATOM     23  C   UNL     1       5.000  16.673  18.809  0.00  0.00    +0.000 C 
ATOM     24  N   UNL     1       3.614  17.144  18.734  0.00  0.00    +0.000 NA
ATOM     25  C   UNL     1       3.013  16.682  17.478  0.00  0.00    +0.000 C 
ENDBRANCH  22  24
ENDBRANCH  21  22
ENDBRANCH  17  21
ENDBRANCH   1  19
BRANCH   5  26
ATOM     26  C   UNL     1       2.698   7.483  18.250  0.00  0.00    +0.000 C 
BRANCH  26  27
ATOM     27  C   UNL     1       3.468   6.522  19.190  0.00  0.00    +0.000 C 
BRANCH  27  28
ATOM     28  N   UNL     1       3.782   5.233  18.588  0.00  0.00    +0.000 N 
ATOM     29  C   UNL     1       4.569   5.267  17.440  0.00  0.00    +0.000 A 
ATOM     30  C   UNL     1       5.598   6.193  17.245  0.00  0.00    +0.000 A 
ATOM     31  C   UNL     1       6.410   6.108  16.117  0.00  0.00    +0.000 A 
ATOM     32  C   UNL     1       6.183   5.067  15.224  0.00  0.00    +0.000 A 
ATOM     33  C   UNL     1       5.138   4.204  15.455  0.00  0.00    +0.000 A 
ATOM     34  N   UNL     1       4.324   4.289  16.544  0.00  0.00    +0.000 NA
ATOM     35  H   UNL     1       2.988   4.632  18.378  0.00  0.00    +0.000 HD
BRANCH  32  36
ATOM     36  N   UNL     1       7.049   4.884  14.063  0.00  0.00    +0.000 N 
ATOM     37  O   UNL     1       8.076   5.576  13.995  0.00  0.00    +0.000 OA
ATOM     38  O   UNL     1       6.712   4.039  13.223  0.00  0.00    +0.000 OA
ENDBRANCH  32  36
ENDBRANCH  27  28
ENDBRANCH  26  27
ENDBRANCH   5  26
TORSDOF 10
ENDMDL
MODEL 9
REMARK VINA RESULT:      -6.9      2.911      5.271
REMARK  Name = 
REMARK  13 active torsions:
REMARK  status: ('A' for Active; 'I' for Inactive)
REMARK    1  A    between atoms: C_1  and  N_2
REMARK    2  A    between atoms: N_2  and  C_3
REMARK    3  A    between atoms: N_2  and  C_4
REMARK    4  A    between atoms: C_4  and  C_5
REMARK    5  A    between atoms: C_5  and  N_6
REMARK    6  A    between atoms: N_6  and  C_7
REMARK    7  A    between atoms: C_8  and  C_10
REMARK    8  A    between atoms: N_14  and  C_15
REMARK    9  A    between atoms: C_15  and  C_16
REMARK   10  A    between atoms: C_16  and  N_17
REMARK   11  A    between atoms: C_21  and  N_22
REMARK   12  A    between atoms: C_28  and  C_29
REMARK   13  A    between atoms: C_32  and  C_33
REMARK                            x       y       z     vdW  Elec       q    Type
REMARK                         _______ _______ _______ _____ _____    ______ ____
ROOT
ATOM      1  C   UNL     1       0.531  13.348  20.584  0.00  0.00    +0.000 A 
ATOM      2  C   UNL     1       1.631  12.820  19.956  0.00  0.00    +0.000 A 
ATOM      3  N   UNL     1       1.614  11.775  19.119  0.00  0.00    +0.000 NA
ATOM      4  C   UNL     1       0.462  11.137  18.954  0.00  0.00    +0.000 A 
ATOM      5  N   UNL     1       0.446   9.973  18.212  0.00  0.00    +0.000 N 
ATOM      6  N   UNL     1      -0.653  11.500  19.588  0.00  0.00    +0.000 NA
ATOM      7  C   UNL     1      -0.619  12.564  20.463  0.00  0.00    +0.000 A 
ATOM      8  H   UNL     1      -0.348   9.962  17.584  0.00  0.00    +0.000 HD
ENDROOT
BRANCH   7   9
ATOM      9  C   UNL     1      -1.883  12.664  21.251  0.00  0.00    +0.000 A 
ATOM     10  C   UNL     1      -1.990  12.268  22.596  0.00  0.00    +0.000 A 
ATOM     11  C   UNL     1      -3.172  12.405  23.333  0.00  0.00    +0.000 A 
ATOM     12  C   UNL     1      -4.335  12.835  22.706  0.00  0.00    +0.000 A 
ATOM     13  C   UNL     1      -4.304  13.121  21.343  0.00  0.00    +0.000 A 
ATOM     14  C   UNL     1      -3.091  13.048  20.634  0.00  0.00    +0.000 A 
BRANCH  12  15
ATOM     15  C   UNL     1      -5.553  12.946  23.451  0.00  0.00    +0.000 C 
ATOM     16  N   UNL     1      -6.543  13.029  24.053  0.00  0.00    +0.000 NA
ENDBRANCH  12  15
ENDBRANCH   7   9
BRANCH   1  19
ATOM     17  N   UNL     1       0.209  15.837  20.878  0.00  0.00    +0.000 N 
ATOM     18  C   UNL     1      -0.532  16.057  19.640  0.00  0.00    +0.000 C 
ATOM     19  C   UNL     1       0.721  14.611  21.347  0.00  0.00    +0.000 C 
ATOM     20  O   UNL     1       1.386  14.583  22.377  0.00  0.00    +0.000 OA
BRANCH  17  21
ATOM     21  C   UNL     1       0.409  17.019  21.731  0.00  0.00    +0.000 C 
BRANCH  21  22
ATOM     22  C   UNL     1      -0.551  17.097  22.945  0.00  0.00    +0.000 C 
BRANCH  22  24
ATOM     23  C   UNL     1      -2.842  16.283  22.781  0.00  0.00    +0.000 C 
ATOM     24  N   UNL     1      -1.957  17.444  22.653  0.00  0.00    +0.000 NA
ATOM     25  C   UNL     1      -2.402  18.495  23.574  0.00  0.00    +0.000 C 
ENDBRANCH  22  24
ENDBRANCH  21  22
ENDBRANCH  17  21
ENDBRANCH   1  19
BRANCH   5  26
ATOM     26  C   UNL     1       1.718   9.443  17.719  0.00  0.00    +0.000 C 
BRANCH  26  27
ATOM     27  C   UNL     1       2.167   8.197  18.522  0.00  0.00    +0.000 C 
BRANCH  27  28
ATOM     28  N   UNL     1       3.220   7.424  17.875  0.00  0.00    +0.000 N 
ATOM     29  C   UNL     1       3.401   6.125  18.342  0.00  0.00    +0.000 A 
ATOM     30  C   UNL     1       2.346   5.309  18.765  0.00  0.00    +0.000 A 
ATOM     31  C   UNL     1       2.588   3.987  19.126  0.00  0.00    +0.000 A 
ATOM     32  C   UNL     1       3.887   3.506  19.021  0.00  0.00    +0.000 A 
ATOM     33  C   UNL     1       4.887   4.363  18.626  0.00  0.00    +0.000 A 
ATOM     34  N   UNL     1       4.667   5.664  18.290  0.00  0.00    +0.000 NA
ATOM     35  H   UNL     1       4.141   7.855  17.853  0.00  0.00    +0.000 HD
BRANCH  32  36
ATOM     36  N   UNL     1       4.187   2.107  19.315  0.00  0.00    +0.000 N 
ATOM     37  O   UNL     1       3.713   1.245  18.560  0.00  0.00    +0.000 OA
ATOM     38  O   UNL     1       4.907   1.868  20.293  0.00  0.00    +0.000 OA
ENDBRANCH  32  36
ENDBRANCH  27  28
ENDBRANCH  26  27
ENDBRANCH   5  26
TORSDOF 10
ENDMDL
