MODEL 1
REMARK VINA RESULT:      -8.1      0.000      0.000
REMARK  Name = 
REMARK  13 active torsions:
REMARK  status: ('A' for Active; 'I' for Inactive)
REMARK    1  A    between atoms: C_1  and  C_2
REMARK    2  A    between atoms: C_2  and  C_3
REMARK    3  A    between atoms: C_3  and  N_4
REMARK    4  A    between atoms: C_5  and  O_7
REMARK    5  A    between atoms: O_7  and  C_8
REMARK    6  A    between atoms: C_8  and  C_9
REMARK    7  A    between atoms: C_10  and  C_11
REMARK    8  A    between atoms: C_14  and  O_15
REMARK    9  A    between atoms: O_15  and  C_16
REMARK   10  A    between atoms: C_20  and  C_21
REMARK   11  A    between atoms: C_21  and  O_23
REMARK   12  A    between atoms: C_25  and  C_26
REMARK   13  A    between atoms: N_30  and  C_31
REMARK                            x       y       z     vdW  Elec       q    Type
REMARK                         _______ _______ _______ _____ _____    ______ ____
ROOT
ATOM      1  C   UNL     1       1.570   8.373  20.134  0.00  0.00    +0.000 A 
ATOM      2  C   UNL     1       1.889   8.699  18.821  0.00  0.00    +0.000 A 
ATOM      3  C   UNL     1       2.478   7.736  17.999  0.00  0.00    +0.000 A 
ATOM      4  C   UNL     1       2.729   6.467  18.503  0.00  0.00    +0.000 A 
ATOM      5  C   UNL     1       2.336   6.193  19.815  0.00  0.00    +0.000 A 
ATOM      6  C   UNL     1       2.521   4.833  20.427  0.00  0.00    +0.000 C 
ATOM      7  N   UNL     1       1.782   7.129  20.629  0.00  0.00    +0.000 NA
ENDROOT
BRANCH   1   9
ATOM      8  C   UNL     1       0.441  10.587  20.783  0.00  0.00    +0.000 A 
ATOM      9  C   UNL     1       0.950   9.322  21.050  0.00  0.00    +0.000 A 
ATOM     10  N   UNL     1       0.799   9.053  22.390  0.00  0.00    +0.000 NA
ATOM     11  N   UNL     1       0.203  10.088  22.963  0.00  0.00    +0.000 NA
ATOM     12  N   UNL     1       0.005  11.013  22.013  0.00  0.00    +0.000 N 
ATOM     13  C   UNL     1      -0.645  12.252  22.359  0.00  0.00    +0.000 C 
BRANCH   8  14
ATOM     14  C   UNL     1       0.338  11.429  19.566  0.00  0.00    +0.000 C 
BRANCH  14  15
ATOM     15  O   UNL     1      -0.637  10.864  18.682  0.00  0.00    +0.000 OA
BRANCH  15  17
ATOM     16  N   UNL     1      -2.712  10.798  17.910  0.00  0.00    +0.000 N 
ATOM     17  C   UNL     1      -1.829  11.512  18.659  0.00  0.00    +0.000 C 
ATOM     18  O   UNL     1      -2.064  12.574  19.217  0.00  0.00    +0.000 OA
ATOM     19  H   UNL     1      -2.344   9.961  17.482  0.00  0.00    +0.000 HD
BRANCH  16  20
ATOM     20  C   UNL     1      -3.938  11.375  17.409  0.00  0.00    +0.000 C 
BRANCH  20  22
ATOM     21  C   UNL     1      -2.908  10.565  15.232  0.00  0.00    +0.000 C 
ATOM     22  C   UNL     1      -4.182  10.998  15.947  0.00  0.00    +0.000 C 
ENDBRANCH  20  22
ENDBRANCH  16  20
ENDBRANCH  15  17
ENDBRANCH  14  15
ENDBRANCH   8  14
ENDBRANCH   1   9
BRANCH   4  23
ATOM     23  O   UNL     1       3.289   5.448  17.799  0.00  0.00    +0.000 OA
BRANCH  23  24
ATOM     24  C   UNL     1       4.561   5.627  17.161  0.00  0.00    +0.000 C 
ATOM     25  C   UNL     1       5.615   6.160  18.143  0.00  0.00    +0.000 C 
ATOM     26  C   UNL     1       7.043   6.027  17.623  0.00  0.00    +0.000 C 
ATOM     27  C   UNL     1       7.363   4.594  17.207  0.00  0.00    +0.000 C 
ATOM     28  C   UNL     1       6.365   4.056  16.182  0.00  0.00    +0.000 C 
ATOM     29  C   UNL     1       4.929   4.215  16.675  0.00  0.00    +0.000 C 
BRANCH  28  30
ATOM     30  C   UNL     1       6.576   4.709  14.826  0.00  0.00    +0.000 C 
ATOM     31  O   UNL     1       7.575   5.333  14.501  0.00  0.00    +0.000 OA
BRANCH  30  32
ATOM     32  O   UNL     1       5.552   4.502  13.970  0.00  0.00    +0.000 OA
ATOM     33  H   UNL     1       4.963   3.763  14.213  0.00  0.00    +0.000 HD
ENDBRANCH  30  32
ENDBRANCH  28  30
ENDBRANCH  23  24
ENDBRANCH   4  23
TORSDOF 10
ENDMDL
MODEL 2
REMARK VINA RESULT:      -8.1      0.598      1.018
REMARK  Name = 
REMARK  13 active torsions:
REMARK  status: ('A' for Active; 'I' for Inactive)
REMARK    1  A    between atoms: C_1  and  C_2
REMARK    2  A    between atoms: C_2  and  C_3
REMARK    3  A    between atoms: C_3  and  N_4
REMARK    4  A    between atoms: C_5  and  O_7
REMARK    5  A    between atoms: O_7  and  C_8
REMARK    6  A    between atoms: C_8  and  C_9
REMARK    7  A    between atoms: C_10  and  C_11
REMARK    8  A    between atoms: C_14  and  O_15
REMARK    9  A    between atoms: O_15  and  C_16
REMARK   10  A    between atoms: C_20  and  C_21
REMARK   11  A    between atoms: C_21  and  O_23
REMARK   12  A    between atoms: C_25  and  C_26
REMARK   13  A    between atoms: N_30  and  C_31
REMARK                            x       y       z     vdW  Elec       q    Type
REMARK                         _______ _______ _______ _____ _____    ______ ____
ROOT
ATOM      1  C   UNL     1       1.599   8.365  20.056  0.00  0.00    +0.000 A 
ATOM      2  C   UNL     1       1.884   8.717  18.743  0.00  0.00    +0.000 A 
ATOM      3  C   UNL     1       2.461   7.772  17.890  0.00  0.00    +0.000 A 
ATOM      4  C   UNL     1       2.733   6.497  18.366  0.00  0.00    +0.000 A 
ATOM      5  C   UNL     1       2.372   6.197  19.682  0.00  0.00    +0.000 A 
ATOM      6  C   UNL     1       2.581   4.828  20.265  0.00  0.00    +0.000 C 
ATOM      7  N   UNL     1       1.831   7.115  20.524  0.00  0.00    +0.000 NA
ENDROOT
BRANCH   1   9
ATOM      8  C   UNL     1       0.339  10.493  20.752  0.00  0.00    +0.000 A 
ATOM      9  C   UNL     1       0.994   9.294  21.003  0.00  0.00    +0.000 A 
ATOM     10  N   UNL     1       1.017   9.073  22.361  0.00  0.00    +0.000 NA
ATOM     11  N   UNL     1       0.390  10.073  22.961  0.00  0.00    +0.000 NA
ATOM     12  N   UNL     1       0.002  10.933  22.008  0.00  0.00    +0.000 N 
ATOM     13  C   UNL     1      -0.724  12.120  22.383  0.00  0.00    +0.000 C 
BRANCH   8  14
ATOM     14  C   UNL     1       0.023  11.266  19.526  0.00  0.00    +0.000 C 
BRANCH  14  15
ATOM     15  O   UNL     1      -1.375  11.145  19.239  0.00  0.00    +0.000 OA
BRANCH  15  17
ATOM     16  N   UNL     1      -2.581  11.683  17.461  0.00  0.00    +0.000 N 
ATOM     17  C   UNL     1      -1.667  10.807  17.958  0.00  0.00    +0.000 C 
ATOM     18  O   UNL     1      -1.189   9.858  17.353  0.00  0.00    +0.000 OA
ATOM     19  H   UNL     1      -2.906  12.387  18.108  0.00  0.00    +0.000 HD
BRANCH  16  20
ATOM     20  C   UNL     1      -3.345  11.403  16.268  0.00  0.00    +0.000 C 
BRANCH  20  22
ATOM     21  C   UNL     1      -5.293  12.136  17.725  0.00  0.00    +0.000 C 
ATOM     22  C   UNL     1      -4.835  11.245  16.577  0.00  0.00    +0.000 C 
ENDBRANCH  20  22
ENDBRANCH  16  20
ENDBRANCH  15  17
ENDBRANCH  14  15
ENDBRANCH   8  14
ENDBRANCH   1   9
BRANCH   4  23
ATOM     23  O   UNL     1       3.283   5.494  17.631  0.00  0.00    +0.000 OA
BRANCH  23  24
ATOM     24  C   UNL     1       4.587   5.655  17.056  0.00  0.00    +0.000 C 
ATOM     25  C   UNL     1       5.602   6.162  18.092  0.00  0.00    +0.000 C 
ATOM     26  C   UNL     1       7.050   6.007  17.640  0.00  0.00    +0.000 C 
ATOM     27  C   UNL     1       7.365   4.571  17.229  0.00  0.00    +0.000 C 
ATOM     28  C   UNL     1       6.408   4.059  16.153  0.00  0.00    +0.000 C 
ATOM     29  C   UNL     1       4.953   4.240  16.577  0.00  0.00    +0.000 C 
BRANCH  28  30
ATOM     30  C   UNL     1       6.696   4.718  14.813  0.00  0.00    +0.000 C 
ATOM     31  O   UNL     1       7.591   5.525  14.612  0.00  0.00    +0.000 OA
BRANCH  30  32
ATOM     32  O   UNL     1       5.880   4.293  13.825  0.00  0.00    +0.000 OA
ATOM     33  H   UNL     1       5.029   4.767  13.768  0.00  0.00    +0.000 HD
ENDBRANCH  30  32
ENDBRANCH  28  30
ENDBRANCH  23  24
ENDBRANCH   4  23
TORSDOF 10
ENDMDL
MODEL 3
REMARK VINA RESULT:      -8.1      0.938      1.046
REMARK  Name = 
REMARK  13 active torsions:
REMARK  status: ('A' for Active; 'I' for Inactive)
REMARK    1  A    between atoms: C_1  and  C_2
REMARK    2  A    between atoms: C_2  and  C_3
REMARK    3  A    between atoms: C_3  and  N_4
REMARK    4  A    between atoms: C_5  and  O_7
REMARK    5  A    between atoms: O_7  and  C_8
REMARK    6  A    between atoms: C_8  and  C_9
REMARK    7  A    between atoms: C_10  and  C_11
REMARK    8  A    between atoms: C_14  and  O_15
REMARK    9  A    between atoms: O_15  and  C_16
REMARK   10  A    between atoms: C_20  and  C_21
REMARK   11  A    between atoms: C_21  and  O_23
REMARK   12  A    between atoms: C_25  and  C_26
REMARK   13  A    between atoms: N_30  and  C_31
REMARK                            x       y       z     vdW  Elec       q    Type
REMARK                         _______ _______ _______ _____ _____    ______ ____
ROOT
ATOM      1  C   UNL     1       1.523   8.454  20.030  0.00  0.00    +0.000 A 
ATOM      2  C   UNL     1       1.931   8.773  18.741  0.00  0.00    +0.000 A 
ATOM      3  C   UNL     1       2.568   7.804  17.963  0.00  0.00    +0.000 A 
ATOM      4  C   UNL     1       2.776   6.535  18.487  0.00  0.00    +0.000 A 
ATOM      5  C   UNL     1       2.294   6.268  19.770  0.00  0.00    +0.000 A 
ATOM      6  C   UNL     1       2.429   4.908  20.397  0.00  0.00    +0.000 C 
ATOM      7  N   UNL     1       1.693   7.210  20.542  0.00  0.00    +0.000 NA
ENDROOT
BRANCH   1   9
ATOM      8  C   UNL     1      -0.117  10.355  20.574  0.00  0.00    +0.000 A 
ATOM      9  C   UNL     1       0.849   9.410  20.899  0.00  0.00    +0.000 A 
ATOM     10  N   UNL     1       1.126   9.498  22.243  0.00  0.00    +0.000 NA
ATOM     11  N   UNL     1       0.362  10.443  22.770  0.00  0.00    +0.000 NA
ATOM     12  N   UNL     1      -0.366  10.971  21.776  0.00  0.00    +0.000 N 
ATOM     13  C   UNL     1      -1.305  12.024  22.071  0.00  0.00    +0.000 C 
BRANCH   8  14
ATOM     14  C   UNL     1      -0.794  10.757  19.317  0.00  0.00    +0.000 C 
BRANCH  14  15
ATOM     15  O   UNL     1      -1.309   9.590  18.665  0.00  0.00    +0.000 OA
BRANCH  15  17
ATOM     16  N   UNL     1      -1.877  10.488  16.721  0.00  0.00    +0.000 N 
ATOM     17  C   UNL     1      -2.340   9.821  17.814  0.00  0.00    +0.000 C 
ATOM     18  O   UNL     1      -3.501   9.490  18.006  0.00  0.00    +0.000 OA
ATOM     19  H   UNL     1      -0.896  10.724  16.738  0.00  0.00    +0.000 HD
BRANCH  16  20
ATOM     20  C   UNL     1      -2.761  11.177  15.810  0.00  0.00    +0.000 C 
BRANCH  20  22
ATOM     21  C   UNL     1      -3.264   9.983  13.625  0.00  0.00    +0.000 C 
ATOM     22  C   UNL     1      -3.682  10.203  15.073  0.00  0.00    +0.000 C 
ENDBRANCH  20  22
ENDBRANCH  16  20
ENDBRANCH  15  17
ENDBRANCH  14  15
ENDBRANCH   8  14
ENDBRANCH   1   9
BRANCH   4  23
ATOM     23  O   UNL     1       3.375   5.510  17.825  0.00  0.00    +0.000 OA
BRANCH  23  24
ATOM     24  C   UNL     1       4.671   5.692  17.236  0.00  0.00    +0.000 C 
ATOM     25  C   UNL     1       5.687   6.220  18.259  0.00  0.00    +0.000 C 
ATOM     26  C   UNL     1       7.133   6.089  17.794  0.00  0.00    +0.000 C 
ATOM     27  C   UNL     1       7.469   4.658  17.382  0.00  0.00    +0.000 C 
ATOM     28  C   UNL     1       6.510   4.126  16.318  0.00  0.00    +0.000 C 
ATOM     29  C   UNL     1       5.057   4.282  16.757  0.00  0.00    +0.000 C 
BRANCH  28  30
ATOM     30  C   UNL     1       6.772   4.786  14.974  0.00  0.00    +0.000 C 
ATOM     31  O   UNL     1       7.781   5.416  14.692  0.00  0.00    +0.000 OA
BRANCH  30  32
ATOM     32  O   UNL     1       5.785   4.577  14.077  0.00  0.00    +0.000 OA
ATOM     33  H   UNL     1       6.069   4.132  13.256  0.00  0.00    +0.000 HD
ENDBRANCH  30  32
ENDBRANCH  28  30
ENDBRANCH  23  24
ENDBRANCH   4  23
TORSDOF 10
ENDMDL
MODEL 4
REMARK VINA RESULT:      -8.0      1.451      1.939
REMARK  Name = 
REMARK  13 active torsions:
REMARK  status: ('A' for Active; 'I' for Inactive)
REMARK    1  A    between atoms: C_1  and  C_2
REMARK    2  A    between atoms: C_2  and  C_3
REMARK    3  A    between atoms: C_3  and  N_4
REMARK    4  A    between atoms: C_5  and  O_7
REMARK    5  A    between atoms: O_7  and  C_8
REMARK    6  A    between atoms: C_8  and  C_9
REMARK    7  A    between atoms: C_10  and  C_11
REMARK    8  A    between atoms: C_14  and  O_15
REMARK    9  A    between atoms: O_15  and  C_16
REMARK   10  A    between atoms: C_20  and  C_21
REMARK   11  A    between atoms: C_21  and  O_23
REMARK   12  A    between atoms: C_25  and  C_26
REMARK   13  A    between atoms: N_30  and  C_31
REMARK                            x       y       z     vdW  Elec       q    Type
REMARK                         _______ _______ _______ _____ _____    ______ ____
ROOT
ATOM      1  C   UNL     1       1.392   9.192  19.120  0.00  0.00    +0.000 A 
ATOM      2  C   UNL     1       1.988   9.203  17.865  0.00  0.00    +0.000 A 
ATOM      3  C   UNL     1       2.702   8.082  17.435  0.00  0.00    +0.000 A 
ATOM      4  C   UNL     1       2.799   6.973  18.264  0.00  0.00    +0.000 A 
ATOM      5  C   UNL     1       2.132   7.011  19.490  0.00  0.00    +0.000 A 
ATOM      6  C   UNL     1       2.138   5.837  20.428  0.00  0.00    +0.000 C 
ATOM      7  N   UNL     1       1.453   8.104  19.926  0.00  0.00    +0.000 NA
ENDROOT
BRANCH   1   9
ATOM      8  C   UNL     1      -0.677  10.698  19.343  0.00  0.00    +0.000 A 
ATOM      9  C   UNL     1       0.628  10.320  19.636  0.00  0.00    +0.000 A 
ATOM     10  N   UNL     1       1.161  11.217  20.533  0.00  0.00    +0.000 NA
ATOM     11  N   UNL     1       0.240  12.122  20.823  0.00  0.00    +0.000 NA
ATOM     12  N   UNL     1      -0.852  11.829  20.101  0.00  0.00    +0.000 N 
ATOM     13  C   UNL     1      -2.026  12.653  20.232  0.00  0.00    +0.000 C 
BRANCH   8  14
ATOM     14  C   UNL     1      -1.736  10.163  18.453  0.00  0.00    +0.000 C 
BRANCH  14  15
ATOM     15  O   UNL     1      -1.432  10.509  17.096  0.00  0.00    +0.000 OA
BRANCH  15  17
ATOM     16  N   UNL     1      -3.400  11.525  17.101  0.00  0.00    +0.000 N 
ATOM     17  C   UNL     1      -2.506  10.839  16.337  0.00  0.00    +0.000 C 
ATOM     18  O   UNL     1      -2.649  10.555  15.157  0.00  0.00    +0.000 OA
ATOM     19  H   UNL     1      -3.147  11.638  18.071  0.00  0.00    +0.000 HD
BRANCH  16  20
ATOM     20  C   UNL     1      -4.773  11.712  16.695  0.00  0.00    +0.000 C 
BRANCH  20  22
ATOM     21  C   UNL     1      -6.648  13.323  17.284  0.00  0.00    +0.000 C 
ATOM     22  C   UNL     1      -5.610  12.340  17.811  0.00  0.00    +0.000 C 
ENDBRANCH  20  22
ENDBRANCH  16  20
ENDBRANCH  15  17
ENDBRANCH  14  15
ENDBRANCH   8  14
ENDBRANCH   1   9
BRANCH   4  23
ATOM     23  O   UNL     1       3.457   5.826  17.952  0.00  0.00    +0.000 OA
BRANCH  23  24
ATOM     24  C   UNL     1       4.707   5.880  17.250  0.00  0.00    +0.000 C 
ATOM     25  C   UNL     1       5.843   6.375  18.158  0.00  0.00    +0.000 C 
ATOM     26  C   UNL     1       7.231   6.112  17.583  0.00  0.00    +0.000 C 
ATOM     27  C   UNL     1       7.425   4.642  17.221  0.00  0.00    +0.000 C 
ATOM     28  C   UNL     1       6.343   4.136  16.268  0.00  0.00    +0.000 C 
ATOM     29  C   UNL     1       4.947   4.424  16.816  0.00  0.00    +0.000 C 
BRANCH  28  30
ATOM     30  C   UNL     1       6.536   4.711  14.874  0.00  0.00    +0.000 C 
ATOM     31  O   UNL     1       7.546   5.281  14.490  0.00  0.00    +0.000 OA
BRANCH  30  32
ATOM     32  O   UNL     1       5.481   4.497  14.059  0.00  0.00    +0.000 OA
ATOM     33  H   UNL     1       5.398   3.581  13.734  0.00  0.00    +0.000 HD
ENDBRANCH  30  32
ENDBRANCH  28  30
ENDBRANCH  23  24
ENDBRANCH   4  23
TORSDOF 10
ENDMDL
MODEL 5
REMARK VINA RESULT:      -7.9      0.793      1.029
REMARK  Name = 
REMARK  13 active torsions:
REMARK  status: ('A' for Active; 'I' for Inactive)
REMARK    1  A    between atoms: C_1  and  C_2
REMARK    2  A    between atoms: C_2  and  C_3
REMARK    3  A    between atoms: C_3  and  N_4
REMARK    4  A    between atoms: C_5  and  O_7
REMARK    5  A    between atoms: O_7  and  C_8
REMARK    6  A    between atoms: C_8  and  C_9
REMARK    7  A    between atoms: C_10  and  C_11
REMARK    8  A    between atoms: C_14  and  O_15
REMARK    9  A    between atoms: O_15  and  C_16
REMARK   10  A    between atoms: C_20  and  C_21
REMARK   11  A    between atoms: C_21  and  O_23
REMARK   12  A    between atoms: C_25  and  C_26
REMARK   13  A    between atoms: N_30  and  C_31
REMARK                            x       y       z     vdW  Elec       q    Type
REMARK                         _______ _______ _______ _____ _____    ______ ____
ROOT
ATOM      1  C   UNL     1       1.641   8.080  20.275  0.00  0.00    +0.000 A 
ATOM      2  C   UNL     1       1.950   8.496  18.986  0.00  0.00    +0.000 A 
ATOM      3  C   UNL     1       2.521   7.588  18.091  0.00  0.00    +0.000 A 
ATOM      4  C   UNL     1       2.762   6.283  18.500  0.00  0.00    +0.000 A 
ATOM      5  C   UNL     1       2.378   5.920  19.793  0.00  0.00    +0.000 A 
ATOM      6  C   UNL     1       2.554   4.517  20.303  0.00  0.00    +0.000 C 
ATOM      7  N   UNL     1       1.843   6.801  20.677  0.00  0.00    +0.000 NA
ENDROOT
BRANCH   1   9
ATOM      8  C   UNL     1      -0.000   9.872  21.105  0.00  0.00    +0.000 A 
ATOM      9  C   UNL     1       1.041   8.967  21.264  0.00  0.00    +0.000 A 
ATOM     10  N   UNL     1       1.484   9.019  22.565  0.00  0.00    +0.000 NA
ATOM     11  N   UNL     1       0.751   9.903  23.224  0.00  0.00    +0.000 NA
ATOM     12  N   UNL     1      -0.122  10.429  22.354  0.00  0.00    +0.000 N 
ATOM     13  C   UNL     1      -1.062  11.421  22.811  0.00  0.00    +0.000 C 
BRANCH   8  14
ATOM     14  C   UNL     1      -0.851  10.286  19.962  0.00  0.00    +0.000 C 
BRANCH  14  15
ATOM     15  O   UNL     1      -0.364  11.526  19.436  0.00  0.00    +0.000 OA
BRANCH  15  17
ATOM     16  N   UNL     1      -2.486  11.696  18.824  0.00  0.00    +0.000 N 
ATOM     17  C   UNL     1      -1.230  12.179  18.621  0.00  0.00    +0.000 C 
ATOM     18  O   UNL     1      -0.925  13.054  17.825  0.00  0.00    +0.000 OA
ATOM     19  H   UNL     1      -2.560  10.941  19.490  0.00  0.00    +0.000 HD
BRANCH  16  20
ATOM     20  C   UNL     1      -3.560  11.928  17.887  0.00  0.00    +0.000 C 
BRANCH  20  22
ATOM     21  C   UNL     1      -3.364   9.423  17.517  0.00  0.00    +0.000 C 
ATOM     22  C   UNL     1      -3.703  10.772  16.896  0.00  0.00    +0.000 C 
ENDBRANCH  20  22
ENDBRANCH  16  20
ENDBRANCH  15  17
ENDBRANCH  14  15
ENDBRANCH   8  14
ENDBRANCH   1   9
BRANCH   4  23
ATOM     23  O   UNL     1       3.302   5.312  17.718  0.00  0.00    +0.000 OA
BRANCH  23  24
ATOM     24  C   UNL     1       4.560   5.531  17.064  0.00  0.00    +0.000 C 
ATOM     25  C   UNL     1       5.596   6.139  18.022  0.00  0.00    +0.000 C 
ATOM     26  C   UNL     1       7.024   6.056  17.494  0.00  0.00    +0.000 C 
ATOM     27  C   UNL     1       7.406   4.627  17.116  0.00  0.00    +0.000 C 
ATOM     28  C   UNL     1       6.427   4.016  16.115  0.00  0.00    +0.000 C 
ATOM     29  C   UNL     1       4.989   4.123  16.615  0.00  0.00    +0.000 C 
BRANCH  28  30
ATOM     30  C   UNL     1       6.598   4.639  14.739  0.00  0.00    +0.000 C 
ATOM     31  O   UNL     1       5.790   4.546  13.827  0.00  0.00    +0.000 OA
BRANCH  30  32
ATOM     32  O   UNL     1       7.734   5.360  14.618  0.00  0.00    +0.000 OA
ATOM     33  H   UNL     1       8.037   5.489  13.699  0.00  0.00    +0.000 HD
ENDBRANCH  30  32
ENDBRANCH  28  30
ENDBRANCH  23  24
ENDBRANCH   4  23
TORSDOF 10
ENDMDL
MODEL 6
REMARK VINA RESULT:      -7.9      1.754      2.490
REMARK  Name = 
REMARK  13 active torsions:
REMARK  status: ('A' for Active; 'I' for Inactive)
REMARK    1  A    between atoms: C_1  and  C_2
REMARK    2  A    between atoms: C_2  and  C_3
REMARK    3  A    between atoms: C_3  and  N_4
REMARK    4  A    between atoms: C_5  and  O_7
REMARK    5  A    between atoms: O_7  and  C_8
REMARK    6  A    between atoms: C_8  and  C_9
REMARK    7  A    between atoms: C_10  and  C_11
REMARK    8  A    between atoms: C_14  and  O_15
REMARK    9  A    between atoms: O_15  and  C_16
REMARK   10  A    between atoms: C_20  and  C_21
REMARK   11  A    between atoms: C_21  and  O_23
REMARK   12  A    between atoms: C_25  and  C_26
REMARK   13  A    between atoms: N_30  and  C_31
REMARK                            x       y       z     vdW  Elec       q    Type
REMARK                         _______ _______ _______ _____ _____    ______ ____
ROOT
ATOM      1  C   UNL     1       1.599   8.205  20.140  0.00  0.00    +0.000 A 
ATOM      2  C   UNL     1       1.875   8.596  18.836  0.00  0.00    +0.000 A 
ATOM      3  C   UNL     1       2.456   7.682  17.953  0.00  0.00    +0.000 A 
ATOM      4  C   UNL     1       2.741   6.396  18.391  0.00  0.00    +0.000 A 
ATOM      5  C   UNL     1       2.389   6.055  19.699  0.00  0.00    +0.000 A 
ATOM      6  C   UNL     1       2.612   4.671  20.240  0.00  0.00    +0.000 C 
ATOM      7  N   UNL     1       1.844   6.943  20.570  0.00  0.00    +0.000 NA
ENDROOT
BRANCH   1   9
ATOM      8  C   UNL     1      -0.005  10.051  20.926  0.00  0.00    +0.000 A 
ATOM      9  C   UNL     1       0.990   9.100  21.116  0.00  0.00    +0.000 A 
ATOM     10  N   UNL     1       1.374   9.112  22.437  0.00  0.00    +0.000 NA
ATOM     11  N   UNL     1       0.648  10.015  23.078  0.00  0.00    +0.000 NA
ATOM     12  N   UNL     1      -0.161  10.592  22.179  0.00  0.00    +0.000 N 
ATOM     13  C   UNL     1      -1.080  11.614  22.610  0.00  0.00    +0.000 C 
BRANCH   8  14
ATOM     14  C   UNL     1      -0.784  10.518  19.754  0.00  0.00    +0.000 C 
BRANCH  14  15
ATOM     15  O   UNL     1      -0.002  11.465  19.015  0.00  0.00    +0.000 OA
BRANCH  15  17
ATOM     16  N   UNL     1       0.518  13.579  18.610  0.00  0.00    +0.000 N 
ATOM     17  C   UNL     1      -0.451  12.743  19.073  0.00  0.00    +0.000 C 
ATOM     18  O   UNL     1      -1.549  13.087  19.487  0.00  0.00    +0.000 OA
ATOM     19  H   UNL     1       1.386  13.136  18.346  0.00  0.00    +0.000 HD
BRANCH  16  20
ATOM     20  C   UNL     1       0.490  15.001  18.860  0.00  0.00    +0.000 C 
BRANCH  20  22
ATOM     21  C   UNL     1       2.902  15.019  18.062  0.00  0.00    +0.000 C 
ATOM     22  C   UNL     1       1.897  15.564  19.069  0.00  0.00    +0.000 C 
ENDBRANCH  20  22
ENDBRANCH  16  20
ENDBRANCH  15  17
ENDBRANCH  14  15
ENDBRANCH   8  14
ENDBRANCH   1   9
BRANCH   4  23
ATOM     23  O   UNL     1       3.296   5.420  17.625  0.00  0.00    +0.000 OA
BRANCH  23  24
ATOM     24  C   UNL     1       4.591   5.614  17.039  0.00  0.00    +0.000 C 
ATOM     25  C   UNL     1       5.593   6.176  18.059  0.00  0.00    +0.000 C 
ATOM     26  C   UNL     1       7.043   6.061  17.603  0.00  0.00    +0.000 C 
ATOM     27  C   UNL     1       7.405   4.628  17.218  0.00  0.00    +0.000 C 
ATOM     28  C   UNL     1       6.461   4.062  16.158  0.00  0.00    +0.000 C 
ATOM     29  C   UNL     1       5.003   4.202  16.587  0.00  0.00    +0.000 C 
BRANCH  28  30
ATOM     30  C   UNL     1       6.720   4.703  14.804  0.00  0.00    +0.000 C 
ATOM     31  O   UNL     1       7.681   5.409  14.540  0.00  0.00    +0.000 OA
BRANCH  30  32
ATOM     32  O   UNL     1       5.790   4.384  13.878  0.00  0.00    +0.000 OA
ATOM     33  H   UNL     1       6.043   4.595  12.960  0.00  0.00    +0.000 HD
ENDBRANCH  30  32
ENDBRANCH  28  30
ENDBRANCH  23  24
ENDBRANCH   4  23
TORSDOF 10
ENDMDL
MODEL 7
REMARK VINA RESULT:      -7.6      1.822      2.666
REMARK  Name = 
REMARK  13 active torsions:
REMARK  status: ('A' for Active; 'I' for Inactive)
REMARK    1  A    between atoms: C_1  and  C_2
REMARK    2  A    between atoms: C_2  and  C_3
REMARK    3  A    between atoms: C_3  and  N_4
REMARK    4  A    between atoms: C_5  and  O_7
REMARK    5  A    between atoms: O_7  and  C_8
REMARK    6  A    between atoms: C_8  and  C_9
REMARK    7  A    between atoms: C_10  and  C_11
REMARK    8  A    between atoms: C_14  and  O_15
REMARK    9  A    between atoms: O_15  and  C_16
REMARK   10  A    between atoms: C_20  and  C_21
REMARK   11  A    between atoms: C_21  and  O_23
REMARK   12  A    between atoms: C_25  and  C_26
REMARK   13  A    between atoms: N_30  and  C_31
REMARK                            x       y       z     vdW  Elec       q    Type
REMARK                         _______ _______ _______ _____ _____    ______ ____
ROOT
ATOM      1  C   UNL     1       1.543   8.179  20.284  0.00  0.00    +0.000 A 
ATOM      2  C   UNL     1       1.843   8.594  18.993  0.00  0.00    +0.000 A 
ATOM      3  C   UNL     1       2.413   7.688  18.095  0.00  0.00    +0.000 A 
ATOM      4  C   UNL     1       2.662   6.385  18.505  0.00  0.00    +0.000 A 
ATOM      5  C   UNL     1       2.287   6.022  19.801  0.00  0.00    +0.000 A 
ATOM      6  C   UNL     1       2.471   4.620  20.312  0.00  0.00    +0.000 C 
ATOM      7  N   UNL     1       1.753   6.901  20.687  0.00  0.00    +0.000 NA
ENDROOT
BRANCH   1   9
ATOM      8  C   UNL     1      -0.020  10.049  21.095  0.00  0.00    +0.000 A 
ATOM      9  C   UNL     1       0.944   9.065  21.274  0.00  0.00    +0.000 A 
ATOM     10  N   UNL     1       1.305   9.030  22.601  0.00  0.00    +0.000 NA
ATOM     11  N   UNL     1       0.596   9.936  23.255  0.00  0.00    +0.000 NA
ATOM     12  N   UNL     1      -0.181  10.561  22.359  0.00  0.00    +0.000 N 
ATOM     13  C   UNL     1      -1.077  11.598  22.803  0.00  0.00    +0.000 C 
BRANCH   8  14
ATOM     14  C   UNL     1      -0.764  10.571  19.923  0.00  0.00    +0.000 C 
BRANCH  14  15
ATOM     15  O   UNL     1      -0.641  11.998  19.882  0.00  0.00    +0.000 OA
BRANCH  15  17
ATOM     16  N   UNL     1       1.343  12.060  18.901  0.00  0.00    +0.000 N 
ATOM     17  C   UNL     1       0.051  12.480  18.821  0.00  0.00    +0.000 C 
ATOM     18  O   UNL     1      -0.413  13.188  17.939  0.00  0.00    +0.000 OA
ATOM     19  H   UNL     1       1.574  11.515  19.718  0.00  0.00    +0.000 HD
BRANCH  16  20
ATOM     20  C   UNL     1       2.400  12.673  18.130  0.00  0.00    +0.000 C 
BRANCH  20  22
ATOM     21  C   UNL     1       3.158  15.083  17.864  0.00  0.00    +0.000 C 
ATOM     22  C   UNL     1       2.954  13.918  18.825  0.00  0.00    +0.000 C 
ENDBRANCH  20  22
ENDBRANCH  16  20
ENDBRANCH  15  17
ENDBRANCH  14  15
ENDBRANCH   8  14
ENDBRANCH   1   9
BRANCH   4  23
ATOM     23  O   UNL     1       3.202   5.415  17.722  0.00  0.00    +0.000 OA
BRANCH  23  24
ATOM     24  C   UNL     1       4.479   5.619  17.100  0.00  0.00    +0.000 C 
ATOM     25  C   UNL     1       5.497   6.214  18.085  0.00  0.00    +0.000 C 
ATOM     26  C   UNL     1       6.938   6.115  17.594  0.00  0.00    +0.000 C 
ATOM     27  C   UNL     1       7.312   4.682  17.223  0.00  0.00    +0.000 C 
ATOM     28  C   UNL     1       6.352   4.083  16.197  0.00  0.00    +0.000 C 
ATOM     29  C   UNL     1       4.902   4.207  16.661  0.00  0.00    +0.000 C 
BRANCH  28  30
ATOM     30  C   UNL     1       6.565   4.705  14.827  0.00  0.00    +0.000 C 
ATOM     31  O   UNL     1       5.744   4.694  13.921  0.00  0.00    +0.000 OA
BRANCH  30  32
ATOM     32  O   UNL     1       7.758   5.326  14.703  0.00  0.00    +0.000 OA
ATOM     33  H   UNL     1       8.524   4.795  14.992  0.00  0.00    +0.000 HD
ENDBRANCH  30  32
ENDBRANCH  28  30
ENDBRANCH  23  24
ENDBRANCH   4  23
TORSDOF 10
ENDMDL
MODEL 8
REMARK VINA RESULT:      -7.6      2.520      9.062
REMARK  Name = 
REMARK  13 active torsions:
REMARK  status: ('A' for Active; 'I' for Inactive)
REMARK    1  A    between atoms: C_1  and  C_2
REMARK    2  A    between atoms: C_2  and  C_3
REMARK    3  A    between atoms: C_3  and  N_4
REMARK    4  A    between atoms: C_5  and  O_7
REMARK    5  A    between atoms: O_7  and  C_8
REMARK    6  A    between atoms: C_8  and  C_9
REMARK    7  A    between atoms: C_10  and  C_11
REMARK    8  A    between atoms: C_14  and  O_15
REMARK    9  A    between atoms: O_15  and  C_16
REMARK   10  A    between atoms: C_20  and  C_21
REMARK   11  A    between atoms: C_21  and  O_23
REMARK   12  A    between atoms: C_25  and  C_26
REMARK   13  A    between atoms: N_30  and  C_31
REMARK                            x       y       z     vdW  Elec       q    Type
REMARK                         _______ _______ _______ _____ _____    ______ ____
ROOT
ATOM      1  C   UNL     1       2.215   6.040  19.058  0.00  0.00    +0.000 A 
ATOM      2  C   UNL     1       2.445   6.926  18.013  0.00  0.00    +0.000 A 
ATOM      3  C   UNL     1       2.211   8.290  18.207  0.00  0.00    +0.000 A 
ATOM      4  C   UNL     1       1.760   8.738  19.441  0.00  0.00    +0.000 A 
ATOM      5  C   UNL     1       1.600   7.797  20.462  0.00  0.00    +0.000 A 
ATOM      6  C   UNL     1       1.166   8.199  21.844  0.00  0.00    +0.000 C 
ATOM      7  N   UNL     1       1.804   6.468  20.277  0.00  0.00    +0.000 NA
ENDROOT
BRANCH   1   9
ATOM      8  C   UNL     1       3.643   3.910  18.900  0.00  0.00    +0.000 A 
ATOM      9  C   UNL     1       2.440   4.605  18.933  0.00  0.00    +0.000 A 
ATOM     10  N   UNL     1       1.403   3.709  18.813  0.00  0.00    +0.000 NA
ATOM     11  N   UNL     1       1.909   2.489  18.725  0.00  0.00    +0.000 NA
ATOM     12  N   UNL     1       3.244   2.604  18.756  0.00  0.00    +0.000 N 
ATOM     13  C   UNL     1       4.057   1.416  18.688  0.00  0.00    +0.000 C 
BRANCH   8  14
ATOM     14  C   UNL     1       5.071   4.305  18.958  0.00  0.00    +0.000 C 
BRANCH  14  15
ATOM     15  O   UNL     1       5.620   4.291  17.635  0.00  0.00    +0.000 OA
BRANCH  15  17
ATOM     16  N   UNL     1       7.039   5.717  18.560  0.00  0.00    +0.000 N 
ATOM     17  C   UNL     1       6.844   4.863  17.519  0.00  0.00    +0.000 C 
ATOM     18  O   UNL     1       7.640   4.649  16.616  0.00  0.00    +0.000 OA
ATOM     19  H   UNL     1       6.263   5.810  19.199  0.00  0.00    +0.000 HD
BRANCH  16  20
ATOM     20  C   UNL     1       8.075   6.724  18.545  0.00  0.00    +0.000 C 
BRANCH  20  22
ATOM     21  C   UNL     1       8.316   9.216  18.117  0.00  0.00    +0.000 C 
ATOM     22  C   UNL     1       7.701   7.904  17.647  0.00  0.00    +0.000 C 
ENDBRANCH  20  22
ENDBRANCH  16  20
ENDBRANCH  15  17
ENDBRANCH  14  15
ENDBRANCH   8  14
ENDBRANCH   1   9
BRANCH   4  23
ATOM     23  O   UNL     1       1.506  10.036  19.751  0.00  0.00    +0.000 OA
BRANCH  23  24
ATOM     24  C   UNL     1       0.178  10.562  19.618  0.00  0.00    +0.000 C 
ATOM     25  C   UNL     1      -0.275  11.282  20.898  0.00  0.00    +0.000 C 
ATOM     26  C   UNL     1      -1.507  12.155  20.692  0.00  0.00    +0.000 C 
ATOM     27  C   UNL     1      -1.314  13.148  19.549  0.00  0.00    +0.000 C 
ATOM     28  C   UNL     1      -0.923  12.455  18.245  0.00  0.00    +0.000 C 
ATOM     29  C   UNL     1       0.290  11.549  18.444  0.00  0.00    +0.000 C 
BRANCH  28  30
ATOM     30  C   UNL     1      -2.104  11.701  17.656  0.00  0.00    +0.000 C 
ATOM     31  O   UNL     1      -2.913  11.055  18.307  0.00  0.00    +0.000 OA
BRANCH  30  32
ATOM     32  O   UNL     1      -2.212  11.841  16.317  0.00  0.00    +0.000 OA
ATOM     33  H   UNL     1      -2.392  11.012  15.835  0.00  0.00    +0.000 HD
ENDBRANCH  30  32
ENDBRANCH  28  30
ENDBRANCH  23  24
ENDBRANCH   4  23
TORSDOF 10
ENDMDL
MODEL 9
REMARK VINA RESULT:      -7.5      2.998      9.009
REMARK  Name = 
REMARK  13 active torsions:
REMARK  status: ('A' for Active; 'I' for Inactive)
REMARK    1  A    between atoms: C_1  and  C_2
REMARK    2  A    between atoms: C_2  and  C_3
REMARK    3  A    between atoms: C_3  and  N_4
REMARK    4  A    between atoms: C_5  and  O_7
REMARK    5  A    between atoms: O_7  and  C_8
REMARK    6  A    between atoms: C_8  and  C_9
REMARK    7  A    between atoms: C_10  and  C_11
REMARK    8  A    between atoms: C_14  and  O_15
REMARK    9  A    between atoms: O_15  and  C_16
REMARK   10  A    between atoms: C_20  and  C_21
REMARK   11  A    between atoms: C_21  and  O_23
REMARK   12  A    between atoms: C_25  and  C_26
REMARK   13  A    between atoms: N_30  and  C_31
REMARK                            x       y       z     vdW  Elec       q    Type
REMARK                         _______ _______ _______ _____ _____    ______ ____
ROOT
ATOM      1  C   UNL     1       2.064   5.686  19.201  0.00  0.00    +0.000 A 
ATOM      2  C   UNL     1       1.560   5.969  20.464  0.00  0.00    +0.000 A 
ATOM      3  C   UNL     1       1.356   7.299  20.840  0.00  0.00    +0.000 A 
ATOM      4  C   UNL     1       1.653   8.316  19.942  0.00  0.00    +0.000 A 
ATOM      5  C   UNL     1       2.107   7.957  18.671  0.00  0.00    +0.000 A 
ATOM      6  C   UNL     1       2.404   8.989  17.619  0.00  0.00    +0.000 C 
ATOM      7  N   UNL     1       2.329   6.668  18.305  0.00  0.00    +0.000 NA
ENDROOT
BRANCH   1   9
ATOM      8  C   UNL     1       3.392   3.500  18.969  0.00  0.00    +0.000 A 
ATOM      9  C   UNL     1       2.298   4.325  18.737  0.00  0.00    +0.000 A 
ATOM     10  N   UNL     1       1.396   3.657  17.942  0.00  0.00    +0.000 NA
ATOM     11  N   UNL     1       1.873   2.448  17.687  0.00  0.00    +0.000 NA
ATOM     12  N   UNL     1       3.072   2.356  18.279  0.00  0.00    +0.000 N 
ATOM     13  C   UNL     1       3.818   1.129  18.174  0.00  0.00    +0.000 C 
BRANCH   8  14
ATOM     14  C   UNL     1       4.668   3.652  19.710  0.00  0.00    +0.000 C 
BRANCH  14  15
ATOM     15  O   UNL     1       4.999   5.043  19.798  0.00  0.00    +0.000 OA
BRANCH  15  17
ATOM     16  N   UNL     1       6.002   5.698  17.935  0.00  0.00    +0.000 N 
ATOM     17  C   UNL     1       6.190   5.382  19.245  0.00  0.00    +0.000 C 
ATOM     18  O   UNL     1       7.263   5.391  19.832  0.00  0.00    +0.000 OA
ATOM     19  H   UNL     1       5.057   5.598  17.594  0.00  0.00    +0.000 HD
BRANCH  16  20
ATOM     20  C   UNL     1       7.097   5.762  16.995  0.00  0.00    +0.000 C 
BRANCH  20  22
ATOM     21  C   UNL     1       5.666   3.958  15.922  0.00  0.00    +0.000 C 
ATOM     22  C   UNL     1       7.038   4.618  15.983  0.00  0.00    +0.000 C 
ENDBRANCH  20  22
ENDBRANCH  16  20
ENDBRANCH  15  17
ENDBRANCH  14  15
ENDBRANCH   8  14
ENDBRANCH   1   9
BRANCH   4  23
ATOM     23  O   UNL     1       1.490   9.642  20.190  0.00  0.00    +0.000 OA
BRANCH  23  24
ATOM     24  C   UNL     1       0.198  10.249  20.044  0.00  0.00    +0.000 C 
ATOM     25  C   UNL     1      -0.333  10.777  21.385  0.00  0.00    +0.000 C 
ATOM     26  C   UNL     1      -1.510  11.734  21.231  0.00  0.00    +0.000 C 
ATOM     27  C   UNL     1      -1.184  12.885  20.283  0.00  0.00    +0.000 C 
ATOM     28  C   UNL     1      -0.712  12.390  18.917  0.00  0.00    +0.000 C 
ATOM     29  C   UNL     1       0.445  11.404  19.058  0.00  0.00    +0.000 C 
BRANCH  28  30
ATOM     30  C   UNL     1      -1.867  11.800  18.124  0.00  0.00    +0.000 C 
ATOM     31  O   UNL     1      -2.832  11.235  18.616  0.00  0.00    +0.000 OA
BRANCH  30  32
ATOM     32  O   UNL     1      -1.754  11.995  16.793  0.00  0.00    +0.000 OA
ATOM     33  H   UNL     1      -0.891  11.736  16.417  0.00  0.00    +0.000 HD
ENDBRANCH  30  32
ENDBRANCH  28  30
ENDBRANCH  23  24
ENDBRANCH   4  23
TORSDOF 10
ENDMDL
