MODEL 1
REMARK VINA RESULT:      -7.3      0.000      0.000
REMARK  Name = 
REMARK  11 active torsions:
REMARK  status: ('A' for Active; 'I' for Inactive)
REMARK    1  A    between atoms: C_1  and  C_2
REMARK    2  A    between atoms: C_2  and  C_3
REMARK    3  A    between atoms: C_3  and  C_4
REMARK    4  A    between atoms: C_4  and  N_5
REMARK    5  A    between atoms: C_6  and  C_8
REMARK    6  A    between atoms: C_13  and  C_14
REMARK    7  A    between atoms: C_17  and  C_18
REMARK    8  A    between atoms: C_20  and  O_21
REMARK    9  A    between atoms: O_21  and  C_22
REMARK   10  A    between atoms: C_25  and  O_26
REMARK   11  A    between atoms: O_26  and  C_27
REMARK                            x       y       z     vdW  Elec       q    Type
REMARK                         _______ _______ _______ _____ _____    ______ ____
ROOT
ATOM      1  N   UNL     1       3.194   4.654  17.529  0.00  0.00    +0.000 N 
ATOM      2  C   UNL     1       4.562   4.360  17.310  0.00  0.00    +0.000 C 
ATOM      3  O   UNL     1       4.914   3.296  16.793  0.00  0.00    +0.000 OA
ATOM      4  C   UNL     1       2.858   5.600  18.477  0.00  0.00    +0.000 A 
ATOM      5  N   UNL     1       2.346   6.777  18.212  0.00  0.00    +0.000 NA
ATOM      6  C   UNL     1       2.125   7.484  19.384  0.00  0.00    +0.000 A 
ATOM      7  C   UNL     1       2.376   6.734  20.526  0.00  0.00    +0.000 A 
ATOM      8  S   UNL     1       2.967   5.171  20.122  0.00  0.00    +0.000 S 
ENDROOT
BRANCH   2   9
ATOM      9  C   UNL     1       5.632   5.371  17.672  0.00  0.00    +0.000 A 
ATOM     10  C   UNL     1       6.405   5.157  18.828  0.00  0.00    +0.000 A 
ATOM     11  C   UNL     1       7.519   5.946  19.118  0.00  0.00    +0.000 A 
ATOM     12  C   UNL     1       7.832   7.020  18.300  0.00  0.00    +0.000 A 
ATOM     13  C   UNL     1       7.001   7.329  17.221  0.00  0.00    +0.000 A 
ATOM     14  C   UNL     1       5.880   6.531  16.907  0.00  0.00    +0.000 A 
ATOM     15  C   UNL     1       5.041   6.971  15.735  0.00  0.00    +0.000 C 
ENDBRANCH   2   9
BRANCH   6  16
ATOM     16  C   UNL     1       1.613   8.872  19.387  0.00  0.00    +0.000 A 
ATOM     17  C   UNL     1       2.178   9.810  18.495  0.00  0.00    +0.000 A 
ATOM     18  C   UNL     1       1.823  11.161  18.504  0.00  0.00    +0.000 A 
ATOM     19  C   UNL     1       0.854  11.598  19.392  0.00  0.00    +0.000 A 
ATOM     20  C   UNL     1       0.244  10.692  20.257  0.00  0.00    +0.000 A 
ATOM     21  C   UNL     1       0.597   9.330  20.262  0.00  0.00    +0.000 A 
BRANCH  18  22
ATOM     22  O   UNL     1       2.505  11.939  17.611  0.00  0.00    +0.000 OA
ATOM     23  C   UNL     1       2.848  13.249  18.043  0.00  0.00    +0.000 C 
ENDBRANCH  18  22
BRANCH  21  24
ATOM     24  O   UNL     1       0.000   8.437  21.119  0.00  0.00    +0.000 OA
ATOM     25  C   UNL     1      -0.403   8.918  22.400  0.00  0.00    +0.000 C 
ENDBRANCH  21  24
ENDBRANCH   6  16
BRANCH   1  26
ATOM     26  C   UNL     1       2.187   3.647  17.144  0.00  0.00    +0.000 C 
BRANCH  26  27
ATOM     27  C   UNL     1       2.097   2.469  18.127  0.00  0.00    +0.000 C 
BRANCH  27  29
ATOM     28  C   UNL     1       1.040   2.482  20.416  0.00  0.00    +0.000 C 
ATOM     29  C   UNL     1       0.786   2.470  18.915  0.00  0.00    +0.000 C 
ENDBRANCH  27  29
ENDBRANCH  26  27
ENDBRANCH   1  26
TORSDOF 7
ENDMDL
MODEL 2
REMARK VINA RESULT:      -7.1      1.583      5.038
REMARK  Name = 
REMARK  11 active torsions:
REMARK  status: ('A' for Active; 'I' for Inactive)
REMARK    1  A    between atoms: C_1  and  C_2
REMARK    2  A    between atoms: C_2  and  C_3
REMARK    3  A    between atoms: C_3  and  C_4
REMARK    4  A    between atoms: C_4  and  N_5
REMARK    5  A    between atoms: C_6  and  C_8
REMARK    6  A    between atoms: C_13  and  C_14
REMARK    7  A    between atoms: C_17  and  C_18
REMARK    8  A    between atoms: C_20  and  O_21
REMARK    9  A    between atoms: O_21  and  C_22
REMARK   10  A    between atoms: C_25  and  O_26
REMARK   11  A    between atoms: O_26  and  C_27
REMARK                            x       y       z     vdW  Elec       q    Type
REMARK                         _______ _______ _______ _____ _____    ______ ____
ROOT
ATOM      1  N   UNL     1       4.857   5.041  19.437  0.00  0.00    +0.000 N 
ATOM      2  C   UNL     1       4.515   3.670  19.520  0.00  0.00    +0.000 C 
ATOM      3  O   UNL     1       5.384   2.793  19.546  0.00  0.00    +0.000 OA
ATOM      4  C   UNL     1       3.915   5.937  18.970  0.00  0.00    +0.000 A 
ATOM      5  N   UNL     1       3.322   6.849  19.701  0.00  0.00    +0.000 NA
ATOM      6  C   UNL     1       2.433   7.584  18.932  0.00  0.00    +0.000 A 
ATOM      7  C   UNL     1       2.487   7.259  17.582  0.00  0.00    +0.000 A 
ATOM      8  S   UNL     1       3.596   5.978  17.298  0.00  0.00    +0.000 S 
ENDROOT
BRANCH   2   9
ATOM      9  C   UNL     1       3.063   3.245  19.620  0.00  0.00    +0.000 A 
ATOM     10  C   UNL     1       2.389   3.412  20.844  0.00  0.00    +0.000 A 
ATOM     11  C   UNL     1       1.012   3.212  20.952  0.00  0.00    +0.000 A 
ATOM     12  C   UNL     1       0.295   2.757  19.857  0.00  0.00    +0.000 A 
ATOM     13  C   UNL     1       0.967   2.459  18.670  0.00  0.00    +0.000 A 
ATOM     14  C   UNL     1       2.357   2.670  18.540  0.00  0.00    +0.000 A 
ATOM     15  C   UNL     1       2.982   2.292  17.223  0.00  0.00    +0.000 C 
ENDBRANCH   2   9
BRANCH   6  16
ATOM     16  C   UNL     1       1.573   8.641  19.507  0.00  0.00    +0.000 A 
ATOM     17  C   UNL     1       0.892   8.384  20.718  0.00  0.00    +0.000 A 
ATOM     18  C   UNL     1      -0.015   9.289  21.274  0.00  0.00    +0.000 A 
ATOM     19  C   UNL     1      -0.233  10.502  20.642  0.00  0.00    +0.000 A 
ATOM     20  C   UNL     1       0.455  10.807  19.468  0.00  0.00    +0.000 A 
ATOM     21  C   UNL     1       1.367   9.902  18.895  0.00  0.00    +0.000 A 
BRANCH  18  22
ATOM     22  O   UNL     1      -0.625   8.858  22.418  0.00  0.00    +0.000 OA
ATOM     23  C   UNL     1      -0.215   9.480  23.629  0.00  0.00    +0.000 C 
ENDBRANCH  18  22
BRANCH  21  24
ATOM     24  O   UNL     1       2.040  10.201  17.735  0.00  0.00    +0.000 OA
ATOM     25  C   UNL     1       2.627  11.496  17.625  0.00  0.00    +0.000 C 
ENDBRANCH  21  24
ENDBRANCH   6  16
BRANCH   1  26
ATOM     26  C   UNL     1       6.283   5.408  19.360  0.00  0.00    +0.000 C 
BRANCH  26  27
ATOM     27  C   UNL     1       6.653   6.150  18.066  0.00  0.00    +0.000 C 
BRANCH  27  29
ATOM     28  C   UNL     1       7.766   8.365  17.607  0.00  0.00    +0.000 C 
ATOM     29  C   UNL     1       7.929   6.980  18.217  0.00  0.00    +0.000 C 
ENDBRANCH  27  29
ENDBRANCH  26  27
ENDBRANCH   1  26
TORSDOF 7
ENDMDL
MODEL 3
REMARK VINA RESULT:      -7.1      1.622      4.826
REMARK  Name = 
REMARK  11 active torsions:
REMARK  status: ('A' for Active; 'I' for Inactive)
REMARK    1  A    between atoms: C_1  and  C_2
REMARK    2  A    between atoms: C_2  and  C_3
REMARK    3  A    between atoms: C_3  and  C_4
REMARK    4  A    between atoms: C_4  and  N_5
REMARK    5  A    between atoms: C_6  and  C_8
REMARK    6  A    between atoms: C_13  and  C_14
REMARK    7  A    between atoms: C_17  and  C_18
REMARK    8  A    between atoms: C_20  and  O_21
REMARK    9  A    between atoms: O_21  and  C_22
REMARK   10  A    between atoms: C_25  and  O_26
REMARK   11  A    between atoms: O_26  and  C_27
REMARK                            x       y       z     vdW  Elec       q    Type
REMARK                         _______ _______ _______ _____ _____    ______ ____
ROOT
ATOM      1  N   UNL     1       4.878   5.089  19.416  0.00  0.00    +0.000 N 
ATOM      2  C   UNL     1       4.542   3.717  19.509  0.00  0.00    +0.000 C 
ATOM      3  O   UNL     1       5.414   2.844  19.534  0.00  0.00    +0.000 OA
ATOM      4  C   UNL     1       3.930   5.979  18.951  0.00  0.00    +0.000 A 
ATOM      5  N   UNL     1       3.338   6.893  19.681  0.00  0.00    +0.000 NA
ATOM      6  C   UNL     1       2.441   7.619  18.913  0.00  0.00    +0.000 A 
ATOM      7  C   UNL     1       2.487   7.288  17.565  0.00  0.00    +0.000 A 
ATOM      8  S   UNL     1       3.600   6.009  17.280  0.00  0.00    +0.000 S 
ENDROOT
BRANCH   2   9
ATOM      9  C   UNL     1       3.092   3.287  19.620  0.00  0.00    +0.000 A 
ATOM     10  C   UNL     1       2.427   3.453  20.848  0.00  0.00    +0.000 A 
ATOM     11  C   UNL     1       1.052   3.248  20.967  0.00  0.00    +0.000 A 
ATOM     12  C   UNL     1       0.328   2.789  19.877  0.00  0.00    +0.000 A 
ATOM     13  C   UNL     1       0.993   2.492  18.686  0.00  0.00    +0.000 A 
ATOM     14  C   UNL     1       2.380   2.708  18.546  0.00  0.00    +0.000 A 
ATOM     15  C   UNL     1       2.997   2.331  17.225  0.00  0.00    +0.000 C 
ENDBRANCH   2   9
BRANCH   6  16
ATOM     16  C   UNL     1       1.580   8.676  19.487  0.00  0.00    +0.000 A 
ATOM     17  C   UNL     1       0.884   8.413  20.688  0.00  0.00    +0.000 A 
ATOM     18  C   UNL     1      -0.024   9.317  21.242  0.00  0.00    +0.000 A 
ATOM     19  C   UNL     1      -0.228  10.537  20.619  0.00  0.00    +0.000 A 
ATOM     20  C   UNL     1       0.474  10.849  19.456  0.00  0.00    +0.000 A 
ATOM     21  C   UNL     1       1.388   9.944  18.884  0.00  0.00    +0.000 A 
BRANCH  18  22
ATOM     22  O   UNL     1      -0.649   8.880  22.376  0.00  0.00    +0.000 OA
ATOM     23  C   UNL     1      -0.688   9.786  23.470  0.00  0.00    +0.000 C 
ENDBRANCH  18  22
BRANCH  21  24
ATOM     24  O   UNL     1       2.076  10.249  17.735  0.00  0.00    +0.000 OA
ATOM     25  C   UNL     1       2.608  11.566  17.613  0.00  0.00    +0.000 C 
ENDBRANCH  21  24
ENDBRANCH   6  16
BRANCH   1  26
ATOM     26  C   UNL     1       6.303   5.461  19.328  0.00  0.00    +0.000 C 
BRANCH  26  27
ATOM     27  C   UNL     1       6.760   5.787  17.898  0.00  0.00    +0.000 C 
BRANCH  27  29
ATOM     28  C   UNL     1       6.588   4.192  15.952  0.00  0.00    +0.000 C 
ATOM     29  C   UNL     1       7.377   4.575  17.197  0.00  0.00    +0.000 C 
ENDBRANCH  27  29
ENDBRANCH  26  27
ENDBRANCH   1  26
TORSDOF 7
ENDMDL
MODEL 4
REMARK VINA RESULT:      -6.8      1.186      2.574
REMARK  Name = 
REMARK  11 active torsions:
REMARK  status: ('A' for Active; 'I' for Inactive)
REMARK    1  A    between atoms: C_1  and  C_2
REMARK    2  A    between atoms: C_2  and  C_3
REMARK    3  A    between atoms: C_3  and  C_4
REMARK    4  A    between atoms: C_4  and  N_5
REMARK    5  A    between atoms: C_6  and  C_8
REMARK    6  A    between atoms: C_13  and  C_14
REMARK    7  A    between atoms: C_17  and  C_18
REMARK    8  A    between atoms: C_20  and  O_21
REMARK    9  A    between atoms: O_21  and  C_22
REMARK   10  A    between atoms: C_25  and  O_26
REMARK   11  A    between atoms: O_26  and  C_27
REMARK                            x       y       z     vdW  Elec       q    Type
REMARK                         _______ _______ _______ _____ _____    ______ ____
ROOT
ATOM      1  N   UNL     1       3.467   4.310  17.537  0.00  0.00    +0.000 N 
ATOM      2  C   UNL     1       4.833   4.248  17.168  0.00  0.00    +0.000 C 
ATOM      3  O   UNL     1       5.268   3.325  16.474  0.00  0.00    +0.000 OA
ATOM      4  C   UNL     1       3.106   5.062  18.637  0.00  0.00    +0.000 A 
ATOM      5  N   UNL     1       2.420   6.178  18.589  0.00  0.00    +0.000 NA
ATOM      6  C   UNL     1       2.227   6.683  19.866  0.00  0.00    +0.000 A 
ATOM      7  C   UNL     1       2.687   5.831  20.862  0.00  0.00    +0.000 A 
ATOM      8  S   UNL     1       3.434   4.437  20.187  0.00  0.00    +0.000 S 
ENDROOT
BRANCH   2   9
ATOM      9  C   UNL     1       5.792   5.345  17.587  0.00  0.00    +0.000 A 
ATOM     10  C   UNL     1       6.666   5.108  18.664  0.00  0.00    +0.000 A 
ATOM     11  C   UNL     1       7.691   6.000  18.982  0.00  0.00    +0.000 A 
ATOM     12  C   UNL     1       7.808   7.190  18.282  0.00  0.00    +0.000 A 
ATOM     13  C   UNL     1       6.871   7.505  17.296  0.00  0.00    +0.000 A 
ATOM     14  C   UNL     1       5.838   6.606  16.953  0.00  0.00    +0.000 A 
ATOM     15  C   UNL     1       4.868   7.059  15.892  0.00  0.00    +0.000 C 
ENDBRANCH   2   9
BRANCH   6  16
ATOM     16  C   UNL     1       1.540   7.969  20.115  0.00  0.00    +0.000 A 
ATOM     17  C   UNL     1       0.821   8.139  21.319  0.00  0.00    +0.000 A 
ATOM     18  C   UNL     1       0.065   9.281  21.585  0.00  0.00    +0.000 A 
ATOM     19  C   UNL     1       0.044  10.309  20.657  0.00  0.00    +0.000 A 
ATOM     20  C   UNL     1       0.776  10.195  19.477  0.00  0.00    +0.000 A 
ATOM     21  C   UNL     1       1.538   9.046  19.194  0.00  0.00    +0.000 A 
BRANCH  18  22
ATOM     22  O   UNL     1      -0.611   9.257  22.773  0.00  0.00    +0.000 OA
ATOM     23  C   UNL     1      -1.095  10.504  23.253  0.00  0.00    +0.000 C 
ENDBRANCH  18  22
BRANCH  21  24
ATOM     24  O   UNL     1       2.256   8.931  18.028  0.00  0.00    +0.000 OA
ATOM     25  C   UNL     1       2.749  10.129  17.433  0.00  0.00    +0.000 C 
ENDBRANCH  21  24
ENDBRANCH   6  16
BRANCH   1  26
ATOM     26  C   UNL     1       2.567   3.230  17.091  0.00  0.00    +0.000 C 
BRANCH  26  27
ATOM     27  C   UNL     1       2.777   1.910  17.849  0.00  0.00    +0.000 C 
BRANCH  27  29
ATOM     28  C   UNL     1       0.524   2.633  18.721  0.00  0.00    +0.000 C 
ATOM     29  C   UNL     1       1.680   1.655  18.884  0.00  0.00    +0.000 C 
ENDBRANCH  27  29
ENDBRANCH  26  27
ENDBRANCH   1  26
TORSDOF 7
ENDMDL
MODEL 5
REMARK VINA RESULT:      -6.7      1.617      4.975
REMARK  Name = 
REMARK  11 active torsions:
REMARK  status: ('A' for Active; 'I' for Inactive)
REMARK    1  A    between atoms: C_1  and  C_2
REMARK    2  A    between atoms: C_2  and  C_3
REMARK    3  A    between atoms: C_3  and  C_4
REMARK    4  A    between atoms: C_4  and  N_5
REMARK    5  A    between atoms: C_6  and  C_8
REMARK    6  A    between atoms: C_13  and  C_14
REMARK    7  A    between atoms: C_17  and  C_18
REMARK    8  A    between atoms: C_20  and  O_21
REMARK    9  A    between atoms: O_21  and  C_22
REMARK   10  A    between atoms: C_25  and  O_26
REMARK   11  A    between atoms: O_26  and  C_27
REMARK                            x       y       z     vdW  Elec       q    Type
REMARK                         _______ _______ _______ _____ _____    ______ ____
ROOT
ATOM      1  N   UNL     1       4.892   5.093  19.420  0.00  0.00    +0.000 N 
ATOM      2  C   UNL     1       4.536   3.725  19.341  0.00  0.00    +0.000 C 
ATOM      3  O   UNL     1       5.392   2.837  19.391  0.00  0.00    +0.000 OA
ATOM      4  C   UNL     1       4.016   6.040  18.927  0.00  0.00    +0.000 A 
ATOM      5  N   UNL     1       3.345   6.894  19.661  0.00  0.00    +0.000 NA
ATOM      6  C   UNL     1       2.556   7.706  18.860  0.00  0.00    +0.000 A 
ATOM      7  C   UNL     1       2.767   7.499  17.503  0.00  0.00    +0.000 A 
ATOM      8  S   UNL     1       3.896   6.231  17.238  0.00  0.00    +0.000 S 
ENDROOT
BRANCH   2   9
ATOM      9  C   UNL     1       3.081   3.314  19.233  0.00  0.00    +0.000 A 
ATOM     10  C   UNL     1       2.600   2.836  18.000  0.00  0.00    +0.000 A 
ATOM     11  C   UNL     1       1.328   2.275  17.881  0.00  0.00    +0.000 A 
ATOM     12  C   UNL     1       0.478   2.260  18.975  0.00  0.00    +0.000 A 
ATOM     13  C   UNL     1       0.887   2.849  20.173  0.00  0.00    +0.000 A 
ATOM     14  C   UNL     1       2.176   3.406  20.313  0.00  0.00    +0.000 A 
ATOM     15  C   UNL     1       2.503   4.036  21.642  0.00  0.00    +0.000 C 
ENDBRANCH   2   9
BRANCH   6  16
ATOM     16  C   UNL     1       1.639   8.721  19.421  0.00  0.00    +0.000 A 
ATOM     17  C   UNL     1       0.954   8.434  20.623  0.00  0.00    +0.000 A 
ATOM     18  C   UNL     1      -0.003   9.295  21.165  0.00  0.00    +0.000 A 
ATOM     19  C   UNL     1      -0.269  10.496  20.528  0.00  0.00    +0.000 A 
ATOM     20  C   UNL     1       0.420  10.832  19.364  0.00  0.00    +0.000 A 
ATOM     21  C   UNL     1       1.381   9.971  18.804  0.00  0.00    +0.000 A 
BRANCH  18  22
ATOM     22  O   UNL     1      -0.608   8.837  22.301  0.00  0.00    +0.000 OA
ATOM     23  C   UNL     1      -0.816   9.788  23.337  0.00  0.00    +0.000 C 
ENDBRANCH  18  22
BRANCH  21  24
ATOM     24  O   UNL     1       2.056  10.300  17.654  0.00  0.00    +0.000 OA
ATOM     25  C   UNL     1       2.673  11.585  17.593  0.00  0.00    +0.000 C 
ENDBRANCH  21  24
ENDBRANCH   6  16
BRANCH   1  26
ATOM     26  C   UNL     1       6.319   5.444  19.543  0.00  0.00    +0.000 C 
BRANCH  26  27
ATOM     27  C   UNL     1       6.969   5.829  18.205  0.00  0.00    +0.000 C 
BRANCH  27  29
ATOM     28  C   UNL     1       7.130   4.635  15.990  0.00  0.00    +0.000 C 
ATOM     29  C   UNL     1       7.526   4.615  17.460  0.00  0.00    +0.000 C 
ENDBRANCH  27  29
ENDBRANCH  26  27
ENDBRANCH   1  26
TORSDOF 7
ENDMDL
MODEL 6
REMARK VINA RESULT:      -6.6      3.315      7.835
REMARK  Name = 
REMARK  11 active torsions:
REMARK  status: ('A' for Active; 'I' for Inactive)
REMARK    1  A    between atoms: C_1  and  C_2
REMARK    2  A    between atoms: C_2  and  C_3
REMARK    3  A    between atoms: C_3  and  C_4
REMARK    4  A    between atoms: C_4  and  N_5
REMARK    5  A    between atoms: C_6  and  C_8
REMARK    6  A    between atoms: C_13  and  C_14
REMARK    7  A    between atoms: C_17  and  C_18
REMARK    8  A    between atoms: C_20  and  O_21
REMARK    9  A    between atoms: O_21  and  C_22
REMARK   10  A    between atoms: C_25  and  O_26
REMARK   11  A    between atoms: O_26  and  C_27
REMARK                            x       y       z     vdW  Elec       q    Type
REMARK                         _______ _______ _______ _____ _____    ______ ____
ROOT
ATOM      1  N   UNL     1       3.803   6.498  17.909  0.00  0.00    +0.000 N 
ATOM      2  C   UNL     1       3.223   5.680  18.908  0.00  0.00    +0.000 C 
ATOM      3  O   UNL     1       2.571   6.166  19.836  0.00  0.00    +0.000 OA
ATOM      4  C   UNL     1       4.860   6.003  17.171  0.00  0.00    +0.000 A 
ATOM      5  N   UNL     1       4.805   5.696  15.898  0.00  0.00    +0.000 NA
ATOM      6  C   UNL     1       6.034   5.227  15.459  0.00  0.00    +0.000 A 
ATOM      7  C   UNL     1       7.027   5.320  16.427  0.00  0.00    +0.000 A 
ATOM      8  S   UNL     1       6.393   5.920  17.908  0.00  0.00    +0.000 S 
ENDROOT
BRANCH   2   9
ATOM      9  C   UNL     1       3.356   4.171  18.837  0.00  0.00    +0.000 A 
ATOM     10  C   UNL     1       4.424   3.551  19.511  0.00  0.00    +0.000 A 
ATOM     11  C   UNL     1       4.501   2.163  19.636  0.00  0.00    +0.000 A 
ATOM     12  C   UNL     1       3.554   1.363  19.015  0.00  0.00    +0.000 A 
ATOM     13  C   UNL     1       2.561   1.954  18.232  0.00  0.00    +0.000 A 
ATOM     14  C   UNL     1       2.462   3.356  18.108  0.00  0.00    +0.000 A 
ATOM     15  C   UNL     1       1.366   3.884  17.218  0.00  0.00    +0.000 C 
ENDBRANCH   2   9
BRANCH   6  16
ATOM     16  C   UNL     1       6.251   4.744  14.079  0.00  0.00    +0.000 A 
ATOM     17  C   UNL     1       5.244   3.969  13.460  0.00  0.00    +0.000 A 
ATOM     18  C   UNL     1       5.412   3.391  12.200  0.00  0.00    +0.000 A 
ATOM     19  C   UNL     1       6.590   3.612  11.506  0.00  0.00    +0.000 A 
ATOM     20  C   UNL     1       7.588   4.407  12.068  0.00  0.00    +0.000 A 
ATOM     21  C   UNL     1       7.435   4.990  13.339  0.00  0.00    +0.000 A 
BRANCH  18  22
ATOM     22  O   UNL     1       4.360   2.629  11.775  0.00  0.00    +0.000 OA
ATOM     23  C   UNL     1       3.438   3.254  10.892  0.00  0.00    +0.000 C 
ENDBRANCH  18  22
BRANCH  21  24
ATOM     24  O   UNL     1       8.420   5.769  13.894  0.00  0.00    +0.000 OA
ATOM     25  C   UNL     1       9.506   6.160  13.056  0.00  0.00    +0.000 C 
ENDBRANCH  21  24
ENDBRANCH   6  16
BRANCH   1  26
ATOM     26  C   UNL     1       3.632   7.960  18.010  0.00  0.00    +0.000 C 
BRANCH  26  27
ATOM     27  C   UNL     1       2.241   8.443  17.571  0.00  0.00    +0.000 C 
BRANCH  27  29
ATOM     28  C   UNL     1       0.784   9.726  19.180  0.00  0.00    +0.000 C 
ATOM     29  C   UNL     1       1.897   9.818  18.144  0.00  0.00    +0.000 C 
ENDBRANCH  27  29
ENDBRANCH  26  27
ENDBRANCH   1  26
TORSDOF 7
ENDMDL
MODEL 7
REMARK VINA RESULT:      -6.6      6.092      9.565
REMARK  Name = 
REMARK  11 active torsions:
REMARK  status: ('A' for Active; 'I' for Inactive)
REMARK    1  A    between atoms: C_1  and  C_2
REMARK    2  A    between atoms: C_2  and  C_3
REMARK    3  A    between atoms: C_3  and  C_4
REMARK    4  A    between atoms: C_4  and  N_5
REMARK    5  A    between atoms: C_6  and  C_8
REMARK    6  A    between atoms: C_13  and  C_14
REMARK    7  A    between atoms: C_17  and  C_18
REMARK    8  A    between atoms: C_20  and  O_21
REMARK    9  A    between atoms: O_21  and  C_22
REMARK   10  A    between atoms: C_25  and  O_26
REMARK   11  A    between atoms: O_26  and  C_27
REMARK                            x       y       z     vdW  Elec       q    Type
REMARK                         _______ _______ _______ _____ _____    ______ ____
ROOT
ATOM      1  N   UNL     1      -0.505  12.924  19.288  0.00  0.00    +0.000 N 
ATOM      2  C   UNL     1       0.463  12.135  19.956  0.00  0.00    +0.000 C 
ATOM      3  O   UNL     1       1.671  12.327  19.793  0.00  0.00    +0.000 OA
ATOM      4  C   UNL     1      -1.783  12.425  19.133  0.00  0.00    +0.000 A 
ATOM      5  N   UNL     1      -2.847  12.889  19.742  0.00  0.00    +0.000 NA
ATOM      6  C   UNL     1      -3.971  12.168  19.369  0.00  0.00    +0.000 A 
ATOM      7  C   UNL     1      -3.713  11.239  18.369  0.00  0.00    +0.000 A 
ATOM      8  S   UNL     1      -2.044  11.220  17.958  0.00  0.00    +0.000 S 
ENDROOT
BRANCH   2   9
ATOM      9  C   UNL     1       0.033  11.051  20.926  0.00  0.00    +0.000 A 
ATOM     10  C   UNL     1       0.159   9.704  20.539  0.00  0.00    +0.000 A 
ATOM     11  C   UNL     1      -0.046   8.663  21.445  0.00  0.00    +0.000 A 
ATOM     12  C   UNL     1      -0.466   8.946  22.735  0.00  0.00    +0.000 A 
ATOM     13  C   UNL     1      -0.724  10.269  23.100  0.00  0.00    +0.000 A 
ATOM     14  C   UNL     1      -0.507  11.334  22.200  0.00  0.00    +0.000 A 
ATOM     15  C   UNL     1      -0.842  12.718  22.692  0.00  0.00    +0.000 C 
ENDBRANCH   2   9
BRANCH   6  16
ATOM     16  C   UNL     1      -5.306  12.427  19.950  0.00  0.00    +0.000 A 
ATOM     17  C   UNL     1      -5.412  12.677  21.336  0.00  0.00    +0.000 A 
ATOM     18  C   UNL     1      -6.643  12.830  21.978  0.00  0.00    +0.000 A 
ATOM     19  C   UNL     1      -7.807  12.776  21.229  0.00  0.00    +0.000 A 
ATOM     20  C   UNL     1      -7.738  12.574  19.852  0.00  0.00    +0.000 A 
ATOM     21  C   UNL     1      -6.505  12.412  19.194  0.00  0.00    +0.000 A 
BRANCH  18  22
ATOM     22  O   UNL     1      -6.565  13.011  23.330  0.00  0.00    +0.000 OA
ATOM     23  C   UNL     1      -5.278  12.869  23.917  0.00  0.00    +0.000 C 
ENDBRANCH  18  22
BRANCH  21  24
ATOM     24  O   UNL     1      -6.438  12.207  17.837  0.00  0.00    +0.000 OA
ATOM     25  C   UNL     1      -6.877  13.265  16.986  0.00  0.00    +0.000 C 
ENDBRANCH  21  24
ENDBRANCH   6  16
BRANCH   1  26
ATOM     26  C   UNL     1      -0.039  13.978  18.367  0.00  0.00    +0.000 C 
BRANCH  26  27
ATOM     27  C   UNL     1      -0.191  15.397  18.938  0.00  0.00    +0.000 C 
BRANCH  27  29
ATOM     28  C   UNL     1       2.295  15.740  18.696  0.00  0.00    +0.000 C 
ATOM     29  C   UNL     1       1.089  15.891  19.613  0.00  0.00    +0.000 C 
ENDBRANCH  27  29
ENDBRANCH  26  27
ENDBRANCH   1  26
TORSDOF 7
ENDMDL
MODEL 8
REMARK VINA RESULT:      -6.5      5.681      9.661
REMARK  Name = 
REMARK  11 active torsions:
REMARK  status: ('A' for Active; 'I' for Inactive)
REMARK    1  A    between atoms: C_1  and  C_2
REMARK    2  A    between atoms: C_2  and  C_3
REMARK    3  A    between atoms: C_3  and  C_4
REMARK    4  A    between atoms: C_4  and  N_5
REMARK    5  A    between atoms: C_6  and  C_8
REMARK    6  A    between atoms: C_13  and  C_14
REMARK    7  A    between atoms: C_17  and  C_18
REMARK    8  A    between atoms: C_20  and  O_21
REMARK    9  A    between atoms: O_21  and  C_22
REMARK   10  A    between atoms: C_25  and  O_26
REMARK   11  A    between atoms: O_26  and  C_27
REMARK                            x       y       z     vdW  Elec       q    Type
REMARK                         _______ _______ _______ _____ _____    ______ ____
ROOT
ATOM      1  N   UNL     1      -0.419  13.253  19.680  0.00  0.00    +0.000 N 
ATOM      2  C   UNL     1       0.605  12.437  20.221  0.00  0.00    +0.000 C 
ATOM      3  O   UNL     1       1.796  12.736  20.096  0.00  0.00    +0.000 OA
ATOM      4  C   UNL     1      -1.660  12.697  19.443  0.00  0.00    +0.000 A 
ATOM      5  N   UNL     1      -2.750  12.986  20.112  0.00  0.00    +0.000 NA
ATOM      6  C   UNL     1      -3.824  12.256  19.625  0.00  0.00    +0.000 A 
ATOM      7  C   UNL     1      -3.509  11.516  18.493  0.00  0.00    +0.000 A 
ATOM      8  S   UNL     1      -1.845  11.675  18.093  0.00  0.00    +0.000 S 
ENDROOT
BRANCH   2   9
ATOM      9  C   UNL     1       0.256  11.189  21.008  0.00  0.00    +0.000 A 
ATOM     10  C   UNL     1      -0.281  11.328  22.301  0.00  0.00    +0.000 A 
ATOM     11  C   UNL     1      -0.789  10.233  23.002  0.00  0.00    +0.000 A 
ATOM     12  C   UNL     1      -0.691   8.963  22.457  0.00  0.00    +0.000 A 
ATOM     13  C   UNL     1      -0.043   8.786  21.233  0.00  0.00    +0.000 A 
ATOM     14  C   UNL     1       0.462   9.885  20.506  0.00  0.00    +0.000 A 
ATOM     15  C   UNL     1       1.164   9.576  19.209  0.00  0.00    +0.000 C 
ENDBRANCH   2   9
BRANCH   6  16
ATOM     16  C   UNL     1      -5.171  12.328  20.232  0.00  0.00    +0.000 A 
ATOM     17  C   UNL     1      -5.285  12.629  21.607  0.00  0.00    +0.000 A 
ATOM     18  C   UNL     1      -6.510  12.618  22.278  0.00  0.00    +0.000 A 
ATOM     19  C   UNL     1      -7.666  12.340  21.567  0.00  0.00    +0.000 A 
ATOM     20  C   UNL     1      -7.596  12.081  20.199  0.00  0.00    +0.000 A 
ATOM     21  C   UNL     1      -6.368  12.084  19.513  0.00  0.00    +0.000 A 
BRANCH  18  22
ATOM     22  O   UNL     1      -6.433  12.878  23.617  0.00  0.00    +0.000 OA
ATOM     23  C   UNL     1      -7.537  13.560  24.196  0.00  0.00    +0.000 C 
ENDBRANCH  18  22
BRANCH  21  24
ATOM     24  O   UNL     1      -6.298  11.824  18.166  0.00  0.00    +0.000 OA
ATOM     25  C   UNL     1      -6.784  12.824  17.273  0.00  0.00    +0.000 C 
ENDBRANCH  21  24
ENDBRANCH   6  16
BRANCH   1  26
ATOM     26  C   UNL     1      -0.032  14.468  18.938  0.00  0.00    +0.000 C 
BRANCH  26  27
ATOM     27  C   UNL     1      -0.046  15.739  19.800  0.00  0.00    +0.000 C 
BRANCH  27  29
ATOM     28  C   UNL     1      -0.416  17.260  17.823  0.00  0.00    +0.000 C 
ATOM     29  C   UNL     1       0.456  16.965  19.035  0.00  0.00    +0.000 C 
ENDBRANCH  27  29
ENDBRANCH  26  27
ENDBRANCH   1  26
TORSDOF 7
ENDMDL
MODEL 9
REMARK VINA RESULT:      -6.4      4.301      8.836
REMARK  Name = 
REMARK  11 active torsions:
REMARK  status: ('A' for Active; 'I' for Inactive)
REMARK    1  A    between atoms: C_1  and  C_2
REMARK    2  A    between atoms: C_2  and  C_3
REMARK    3  A    between atoms: C_3  and  C_4
REMARK    4  A    between atoms: C_4  and  N_5
REMARK    5  A    between atoms: C_6  and  C_8
REMARK    6  A    between atoms: C_13  and  C_14
REMARK    7  A    between atoms: C_17  and  C_18
REMARK    8  A    between atoms: C_20  and  O_21
REMARK    9  A    between atoms: O_21  and  C_22
REMARK   10  A    between atoms: C_25  and  O_26
REMARK   11  A    between atoms: O_26  and  C_27
REMARK                            x       y       z     vdW  Elec       q    Type
REMARK                         _______ _______ _______ _____ _____    ______ ____
ROOT
ATOM      1  N   UNL     1      -3.237  11.990  19.009  0.00  0.00    +0.000 N 
ATOM      2  C   UNL     1      -3.724  12.922  19.957  0.00  0.00    +0.000 C 
ATOM      3  O   UNL     1      -4.796  13.510  19.787  0.00  0.00    +0.000 OA
ATOM      4  C   UNL     1      -1.887  11.699  18.991  0.00  0.00    +0.000 A 
ATOM      5  N   UNL     1      -1.365  10.550  19.346  0.00  0.00    +0.000 NA
ATOM      6  C   UNL     1       0.015  10.584  19.211  0.00  0.00    +0.000 A 
ATOM      7  C   UNL     1       0.475  11.757  18.626  0.00  0.00    +0.000 A 
ATOM      8  S   UNL     1      -0.820  12.845  18.321  0.00  0.00    +0.000 S 
ENDROOT
BRANCH   2   9
ATOM      9  C   UNL     1      -2.952  13.193  21.234  0.00  0.00    +0.000 A 
ATOM     10  C   UNL     1      -2.945  12.213  22.244  0.00  0.00    +0.000 A 
ATOM     11  C   UNL     1      -2.113  12.320  23.359  0.00  0.00    +0.000 A 
ATOM     12  C   UNL     1      -1.333  13.453  23.529  0.00  0.00    +0.000 A 
ATOM     13  C   UNL     1      -1.424  14.496  22.605  0.00  0.00    +0.000 A 
ATOM     14  C   UNL     1      -2.249  14.396  21.464  0.00  0.00    +0.000 A 
ATOM     15  C   UNL     1      -2.289  15.591  20.547  0.00  0.00    +0.000 C 
ENDBRANCH   2   9
BRANCH   6  16
ATOM     16  C   UNL     1       0.877   9.448  19.602  0.00  0.00    +0.000 A 
ATOM     17  C   UNL     1       1.565   8.735  18.595  0.00  0.00    +0.000 A 
ATOM     18  C   UNL     1       2.318   7.591  18.868  0.00  0.00    +0.000 A 
ATOM     19  C   UNL     1       2.431   7.153  20.177  0.00  0.00    +0.000 A 
ATOM     20  C   UNL     1       1.802   7.858  21.202  0.00  0.00    +0.000 A 
ATOM     21  C   UNL     1       1.036   9.008  20.940  0.00  0.00    +0.000 A 
BRANCH  18  22
ATOM     22  O   UNL     1       2.872   6.994  17.770  0.00  0.00    +0.000 OA
ATOM     23  C   UNL     1       3.069   5.588  17.844  0.00  0.00    +0.000 C 
ENDBRANCH  18  22
BRANCH  21  24
ATOM     24  O   UNL     1       0.411   9.699  21.949  0.00  0.00    +0.000 OA
ATOM     25  C   UNL     1      -0.539   8.993  22.744  0.00  0.00    +0.000 C 
ENDBRANCH  21  24
ENDBRANCH   6  16
BRANCH   1  26
ATOM     26  C   UNL     1      -4.031  11.747  17.790  0.00  0.00    +0.000 C 
BRANCH  26  27
ATOM     27  C   UNL     1      -3.612  10.477  17.033  0.00  0.00    +0.000 C 
BRANCH  27  29
ATOM     28  C   UNL     1      -3.536  10.170  14.532  0.00  0.00    +0.000 C 
ATOM     29  C   UNL     1      -2.855  10.793  15.743  0.00  0.00    +0.000 C 
ENDBRANCH  27  29
ENDBRANCH  26  27
ENDBRANCH   1  26
TORSDOF 7
ENDMDL
