MODEL 1
REMARK VINA RESULT:      -7.0      0.000      0.000
REMARK  Name = 
REMARK  11 active torsions:
REMARK  status: ('A' for Active; 'I' for Inactive)
REMARK    1  A    between atoms: N_2  and  N_3
REMARK    2  A    between atoms: N_3  and  C_4
REMARK    3  A    between atoms: C_4  and  C_5
REMARK    4  A    between atoms: N_9  and  C_10
REMARK    5  A    between atoms: C_10  and  C_11
REMARK    6  A    between atoms: C_11  and  O_12
REMARK    7  A    between atoms: O_12  and  C_13
REMARK    8  A    between atoms: C_13  and  C_14
REMARK    9  A    between atoms: C_13  and  N_17
REMARK   10  A    between atoms: C_14  and  C_15
REMARK   11  A    between atoms: C_15  and  O_16
REMARK                            x       y       z     vdW  Elec       q    Type
REMARK                         _______ _______ _______ _____ _____    ______ ____
ROOT
ATOM      1  C   UNL     1       6.772   6.311  17.300  0.00  0.00    +0.000 C 
ENDROOT
BRANCH   1   2
ATOM      2  N   UNL     1       5.471   6.293  18.027  0.00  0.00    +0.000 N 
ATOM      3  C   UNL     1       4.346   6.905  17.487  0.00  0.00    +0.000 A 
ATOM      4  C   UNL     1       3.170   6.910  18.115  0.00  0.00    +0.000 A 
ATOM      5  F   UNL     1       2.076   7.500  17.598  0.00  0.00    +0.000 F 
ATOM      6  C   UNL     1       3.033   6.251  19.425  0.00  0.00    +0.000 A 
ATOM      7  O   UNL     1       1.997   6.267  20.072  0.00  0.00    +0.000 OA
ATOM      8  N   UNL     1       4.163   5.613  19.859  0.00  0.00    +0.000 N 
ATOM      9  C   UNL     1       5.378   5.568  19.219  0.00  0.00    +0.000 A 
ATOM     10  O   UNL     1       6.296   4.928  19.725  0.00  0.00    +0.000 OA
ATOM     11  H   UNL     1       4.100   5.126  20.740  0.00  0.00    +0.000 HD
ENDBRANCH   1   2
BRANCH   1  12
ATOM     12  O   UNL     1       6.607   5.718  15.992  0.00  0.00    +0.000 OA
BRANCH  12  13
ATOM     13  C   UNL     1       6.505   4.288  16.005  0.00  0.00    +0.000 C 
BRANCH  13  14
ATOM     14  C   UNL     1       5.042   3.841  15.909  0.00  0.00    +0.000 C 
BRANCH  14  18
ATOM     15  N   UNL     1       3.107   2.181  18.625  0.00  0.00    +0.000 N 
ATOM     16  C   UNL     1       3.337   2.915  17.458  0.00  0.00    +0.000 C 
ATOM     17  O   UNL     1       2.432   3.435  16.804  0.00  0.00    +0.000 OA
ATOM     18  N   UNL     1       4.651   3.026  17.050  0.00  0.00    +0.000 N 
ATOM     19  H   UNL     1       5.376   2.541  17.560  0.00  0.00    +0.000 HD
BRANCH  15  21
ATOM     20  O   UNL     1       4.616   2.393  20.233  0.00  0.00    +0.000 OA
ATOM     21  N   UNL     1       4.188   1.650  19.344  0.00  0.00    +0.000 NA
ENDBRANCH  15  21
BRANCH  15  22
ATOM     22  C   UNL     1       1.732   1.947  19.076  0.00  0.00    +0.000 C 
BRANCH  22  23
ATOM     23  C   UNL     1       1.177   3.004  20.032  0.00  0.00    +0.000 C 
ATOM     24 CL   UNL     1       1.554   2.640  21.733  0.00  0.00    +0.000 Cl
ENDBRANCH  22  23
ENDBRANCH  15  22
ENDBRANCH  14  18
ENDBRANCH  13  14
ENDBRANCH  12  13
ENDBRANCH   1  12
BRANCH   1  25
ATOM     25  C   UNL     1       7.372   7.727  17.180  0.00  0.00    +0.000 C 
BRANCH  25  26
ATOM     26  C   UNL     1       8.227   8.104  18.380  0.00  0.00    +0.000 C 
BRANCH  26  27
ATOM     27  O   UNL     1       8.545   6.930  19.120  0.00  0.00    +0.000 OA
ATOM     28  H   UNL     1       8.491   7.159  20.065  0.00  0.00    +0.000 HD
ENDBRANCH  26  27
ENDBRANCH  25  26
ENDBRANCH   1  25
TORSDOF 11
ENDMDL
MODEL 2
REMARK VINA RESULT:      -6.3      3.329      6.166
REMARK  Name = 
REMARK  11 active torsions:
REMARK  status: ('A' for Active; 'I' for Inactive)
REMARK    1  A    between atoms: N_2  and  N_3
REMARK    2  A    between atoms: N_3  and  C_4
REMARK    3  A    between atoms: C_4  and  C_5
REMARK    4  A    between atoms: N_9  and  C_10
REMARK    5  A    between atoms: C_10  and  C_11
REMARK    6  A    between atoms: C_11  and  O_12
REMARK    7  A    between atoms: O_12  and  C_13
REMARK    8  A    between atoms: C_13  and  C_14
REMARK    9  A    between atoms: C_13  and  N_17
REMARK   10  A    between atoms: C_14  and  C_15
REMARK   11  A    between atoms: C_15  and  O_16
REMARK                            x       y       z     vdW  Elec       q    Type
REMARK                         _______ _______ _______ _____ _____    ______ ____
ROOT
ATOM      1  C   UNL     1       4.013   3.873  19.270  0.00  0.00    +0.000 C 
ENDROOT
BRANCH   1   2
ATOM      2  N   UNL     1       4.958   4.289  18.195  0.00  0.00    +0.000 N 
ATOM      3  C   UNL     1       4.596   4.203  16.856  0.00  0.00    +0.000 A 
ATOM      4  C   UNL     1       5.421   4.563  15.873  0.00  0.00    +0.000 A 
ATOM      5  F   UNL     1       5.076   4.482  14.574  0.00  0.00    +0.000 F 
ATOM      6  C   UNL     1       6.765   5.074  16.190  0.00  0.00    +0.000 A 
ATOM      7  O   UNL     1       7.583   5.371  15.333  0.00  0.00    +0.000 OA
ATOM      8  N   UNL     1       7.023   5.195  17.528  0.00  0.00    +0.000 N 
ATOM      9  C   UNL     1       6.181   4.858  18.561  0.00  0.00    +0.000 A 
ATOM     10  O   UNL     1       6.549   5.052  19.718  0.00  0.00    +0.000 OA
ATOM     11  H   UNL     1       7.924   5.568  17.785  0.00  0.00    +0.000 HD
ENDBRANCH   1   2
BRANCH   1  12
ATOM     12  O   UNL     1       2.658   4.188  18.876  0.00  0.00    +0.000 OA
BRANCH  12  13
ATOM     13  C   UNL     1       1.782   4.479  19.972  0.00  0.00    +0.000 C 
BRANCH  13  14
ATOM     14  C   UNL     1       2.245   5.730  20.728  0.00  0.00    +0.000 C 
BRANCH  14  18
ATOM     15  N   UNL     1       1.423   9.102  19.373  0.00  0.00    +0.000 N 
ATOM     16  C   UNL     1       1.507   8.063  20.304  0.00  0.00    +0.000 C 
ATOM     17  O   UNL     1       1.033   8.140  21.438  0.00  0.00    +0.000 OA
ATOM     18  N   UNL     1       2.168   6.923  19.896  0.00  0.00    +0.000 N 
ATOM     19  H   UNL     1       2.607   6.897  18.986  0.00  0.00    +0.000 HD
BRANCH  15  21
ATOM     20  O   UNL     1       2.252   9.988  17.520  0.00  0.00    +0.000 OA
ATOM     21  N   UNL     1       1.948   8.932  18.083  0.00  0.00    +0.000 NA
ENDBRANCH  15  21
BRANCH  15  22
ATOM     22  C   UNL     1       0.811  10.376  19.760  0.00  0.00    +0.000 C 
BRANCH  22  23
ATOM     23  C   UNL     1      -0.710  10.436  19.606  0.00  0.00    +0.000 C 
ATOM     24 CL   UNL     1      -1.226  10.208  17.918  0.00  0.00    +0.000 Cl
ENDBRANCH  22  23
ENDBRANCH  15  22
ENDBRANCH  14  18
ENDBRANCH  13  14
ENDBRANCH  12  13
ENDBRANCH   1  12
BRANCH   1  25
ATOM     25  C   UNL     1       4.137   2.378  19.631  0.00  0.00    +0.000 C 
BRANCH  25  26
ATOM     26  C   UNL     1       3.740   1.465  18.481  0.00  0.00    +0.000 C 
BRANCH  26  27
ATOM     27  O   UNL     1       2.325   1.491  18.325  0.00  0.00    +0.000 OA
ATOM     28  H   UNL     1       1.938   1.066  19.111  0.00  0.00    +0.000 HD
ENDBRANCH  26  27
ENDBRANCH  25  26
ENDBRANCH   1  25
TORSDOF 11
ENDMDL
MODEL 3
REMARK VINA RESULT:      -6.2      3.707      6.522
REMARK  Name = 
REMARK  11 active torsions:
REMARK  status: ('A' for Active; 'I' for Inactive)
REMARK    1  A    between atoms: N_2  and  N_3
REMARK    2  A    between atoms: N_3  and  C_4
REMARK    3  A    between atoms: C_4  and  C_5
REMARK    4  A    between atoms: N_9  and  C_10
REMARK    5  A    between atoms: C_10  and  C_11
REMARK    6  A    between atoms: C_11  and  O_12
REMARK    7  A    between atoms: O_12  and  C_13
REMARK    8  A    between atoms: C_13  and  C_14
REMARK    9  A    between atoms: C_13  and  N_17
REMARK   10  A    between atoms: C_14  and  C_15
REMARK   11  A    between atoms: C_15  and  O_16
REMARK                            x       y       z     vdW  Elec       q    Type
REMARK                         _______ _______ _______ _____ _____    ______ ____
ROOT
ATOM      1  C   UNL     1       4.609   3.686  18.904  0.00  0.00    +0.000 C 
ENDROOT
BRANCH   1   2
ATOM      2  N   UNL     1       5.429   4.117  17.735  0.00  0.00    +0.000 N 
ATOM      3  C   UNL     1       4.910   4.070  16.447  0.00  0.00    +0.000 A 
ATOM      4  C   UNL     1       5.618   4.444  15.381  0.00  0.00    +0.000 A 
ATOM      5  F   UNL     1       5.122   4.401  14.131  0.00  0.00    +0.000 F 
ATOM      6  C   UNL     1       6.999   4.927  15.550  0.00  0.00    +0.000 A 
ATOM      7  O   UNL     1       7.716   5.234  14.609  0.00  0.00    +0.000 OA
ATOM      8  N   UNL     1       7.415   5.011  16.850  0.00  0.00    +0.000 N 
ATOM      9  C   UNL     1       6.696   4.659  17.967  0.00  0.00    +0.000 A 
ATOM     10  O   UNL     1       7.200   4.818  19.077  0.00  0.00    +0.000 OA
ATOM     11  H   UNL     1       8.347   5.365  17.008  0.00  0.00    +0.000 HD
ENDBRANCH   1   2
BRANCH   1  12
ATOM     12  O   UNL     1       3.402   4.478  18.971  0.00  0.00    +0.000 OA
BRANCH  12  13
ATOM     13  C   UNL     1       3.517   5.654  19.782  0.00  0.00    +0.000 C 
BRANCH  13  14
ATOM     14  C   UNL     1       2.134   6.191  20.171  0.00  0.00    +0.000 C 
BRANCH  14  18
ATOM     15  N   UNL     1       1.083   9.672  19.361  0.00  0.00    +0.000 N 
ATOM     16  C   UNL     1       1.450   8.578  20.149  0.00  0.00    +0.000 C 
ATOM     17  O   UNL     1       1.459   8.611  21.381  0.00  0.00    +0.000 OA
ATOM     18  N   UNL     1       1.822   7.432  19.477  0.00  0.00    +0.000 N 
ATOM     19  H   UNL     1       1.871   7.438  18.467  0.00  0.00    +0.000 HD
BRANCH  15  21
ATOM     20  O   UNL     1       2.169   9.438  17.445  0.00  0.00    +0.000 OA
ATOM     21  N   UNL     1       1.055   9.551  17.964  0.00  0.00    +0.000 NA
ENDBRANCH  15  21
BRANCH  15  22
ATOM     22  C   UNL     1       0.757  10.950  20.001  0.00  0.00    +0.000 C 
BRANCH  22  23
ATOM     23  C   UNL     1       0.496  12.107  19.035  0.00  0.00    +0.000 C 
ATOM     24 CL   UNL     1       2.001  12.892  18.501  0.00  0.00    +0.000 Cl
ENDBRANCH  22  23
ENDBRANCH  15  22
ENDBRANCH  14  18
ENDBRANCH  13  14
ENDBRANCH  12  13
ENDBRANCH   1  12
BRANCH   1  25
ATOM     25  C   UNL     1       4.268   2.182  18.874  0.00  0.00    +0.000 C 
BRANCH  25  26
ATOM     26  C   UNL     1       2.769   1.922  18.897  0.00  0.00    +0.000 C 
BRANCH  26  27
ATOM     27  O   UNL     1       2.283   1.845  17.561  0.00  0.00    +0.000 OA
ATOM     28  H   UNL     1       1.971   2.734  17.314  0.00  0.00    +0.000 HD
ENDBRANCH  26  27
ENDBRANCH  25  26
ENDBRANCH   1  25
TORSDOF 11
ENDMDL
MODEL 4
REMARK VINA RESULT:      -6.2      3.883      6.637
REMARK  Name = 
REMARK  11 active torsions:
REMARK  status: ('A' for Active; 'I' for Inactive)
REMARK    1  A    between atoms: N_2  and  N_3
REMARK    2  A    between atoms: N_3  and  C_4
REMARK    3  A    between atoms: C_4  and  C_5
REMARK    4  A    between atoms: N_9  and  C_10
REMARK    5  A    between atoms: C_10  and  C_11
REMARK    6  A    between atoms: C_11  and  O_12
REMARK    7  A    between atoms: O_12  and  C_13
REMARK    8  A    between atoms: C_13  and  C_14
REMARK    9  A    between atoms: C_13  and  N_17
REMARK   10  A    between atoms: C_14  and  C_15
REMARK   11  A    between atoms: C_15  and  O_16
REMARK                            x       y       z     vdW  Elec       q    Type
REMARK                         _______ _______ _______ _____ _____    ______ ____
ROOT
ATOM      1  C   UNL     1       3.822   3.787  18.986  0.00  0.00    +0.000 C 
ENDROOT
BRANCH   1   2
ATOM      2  N   UNL     1       4.838   4.233  17.991  0.00  0.00    +0.000 N 
ATOM      3  C   UNL     1       4.576   4.163  16.627  0.00  0.00    +0.000 A 
ATOM      4  C   UNL     1       5.465   4.551  15.713  0.00  0.00    +0.000 A 
ATOM      5  F   UNL     1       5.219   4.485  14.391  0.00  0.00    +0.000 F 
ATOM      6  C   UNL     1       6.774   5.076  16.136  0.00  0.00    +0.000 A 
ATOM      7  O   UNL     1       7.649   5.398  15.346  0.00  0.00    +0.000 OA
ATOM      8  N   UNL     1       6.931   5.179  17.492  0.00  0.00    +0.000 N 
ATOM      9  C   UNL     1       6.021   4.814  18.455  0.00  0.00    +0.000 A 
ATOM     10  O   UNL     1       6.300   4.995  19.638  0.00  0.00    +0.000 OA
ATOM     11  H   UNL     1       7.806   5.562  17.820  0.00  0.00    +0.000 HD
ENDBRANCH   1   2
BRANCH   1  12
ATOM     12  O   UNL     1       2.697   4.695  18.976  0.00  0.00    +0.000 OA
BRANCH  12  13
ATOM     13  C   UNL     1       2.669   5.605  20.082  0.00  0.00    +0.000 C 
BRANCH  13  14
ATOM     14  C   UNL     1       2.410   7.040  19.606  0.00  0.00    +0.000 C 
BRANCH  14  18
ATOM     15  N   UNL     1       0.605   9.729  21.446  0.00  0.00    +0.000 N 
ATOM     16  C   UNL     1       1.070   8.991  20.354  0.00  0.00    +0.000 C 
ATOM     17  O   UNL     1       0.856   9.317  19.185  0.00  0.00    +0.000 OA
ATOM     18  N   UNL     1       1.786   7.848  20.643  0.00  0.00    +0.000 N 
ATOM     19  H   UNL     1       1.900   7.559  21.605  0.00  0.00    +0.000 HD
BRANCH  15  21
ATOM     20  O   UNL     1       2.114   9.450  23.044  0.00  0.00    +0.000 OA
ATOM     21  N   UNL     1       0.921   9.324  22.751  0.00  0.00    +0.000 NA
ENDBRANCH  15  21
BRANCH  15  22
ATOM     22  C   UNL     1      -0.235  10.909  21.221  0.00  0.00    +0.000 C 
BRANCH  22  23
ATOM     23  C   UNL     1      -0.787  11.561  22.489  0.00  0.00    +0.000 C 
ATOM     24 CL   UNL     1      -2.165  12.635  22.150  0.00  0.00    +0.000 Cl
ENDBRANCH  22  23
ENDBRANCH  15  22
ENDBRANCH  14  18
ENDBRANCH  13  14
ENDBRANCH  12  13
ENDBRANCH   1  12
BRANCH   1  25
ATOM     25  C   UNL     1       3.349   2.337  18.750  0.00  0.00    +0.000 C 
BRANCH  25  26
ATOM     26  C   UNL     1       1.901   2.121  19.161  0.00  0.00    +0.000 C 
BRANCH  26  27
ATOM     27  O   UNL     1       1.041   2.692  18.181  0.00  0.00    +0.000 OA
ATOM     28  H   UNL     1       1.223   2.241  17.337  0.00  0.00    +0.000 HD
ENDBRANCH  26  27
ENDBRANCH  25  26
ENDBRANCH   1  25
TORSDOF 11
ENDMDL
MODEL 5
REMARK VINA RESULT:      -6.2      3.391      6.142
REMARK  Name = 
REMARK  11 active torsions:
REMARK  status: ('A' for Active; 'I' for Inactive)
REMARK    1  A    between atoms: N_2  and  N_3
REMARK    2  A    between atoms: N_3  and  C_4
REMARK    3  A    between atoms: C_4  and  C_5
REMARK    4  A    between atoms: N_9  and  C_10
REMARK    5  A    between atoms: C_10  and  C_11
REMARK    6  A    between atoms: C_11  and  O_12
REMARK    7  A    between atoms: O_12  and  C_13
REMARK    8  A    between atoms: C_13  and  C_14
REMARK    9  A    between atoms: C_13  and  N_17
REMARK   10  A    between atoms: C_14  and  C_15
REMARK   11  A    between atoms: C_15  and  O_16
REMARK                            x       y       z     vdW  Elec       q    Type
REMARK                         _______ _______ _______ _____ _____    ______ ____
ROOT
ATOM      1  C   UNL     1       4.144   4.118  18.578  0.00  0.00    +0.000 C 
ENDROOT
BRANCH   1   2
ATOM      2  N   UNL     1       5.142   4.402  17.508  0.00  0.00    +0.000 N 
ATOM      3  C   UNL     1       4.775   4.373  16.167  0.00  0.00    +0.000 A 
ATOM      4  C   UNL     1       5.645   4.618  15.187  0.00  0.00    +0.000 A 
ATOM      5  F   UNL     1       5.297   4.592  13.887  0.00  0.00    +0.000 F 
ATOM      6  C   UNL     1       7.047   4.934  15.511  0.00  0.00    +0.000 A 
ATOM      7  O   UNL     1       7.902   5.116  14.657  0.00  0.00    +0.000 OA
ATOM      8  N   UNL     1       7.315   5.011  16.850  0.00  0.00    +0.000 N 
ATOM      9  C   UNL     1       6.431   4.791  17.880  0.00  0.00    +0.000 A 
ATOM     10  O   UNL     1       6.819   4.927  19.038  0.00  0.00    +0.000 OA
ATOM     11  H   UNL     1       8.259   5.253  17.112  0.00  0.00    +0.000 HD
ENDBRANCH   1   2
BRANCH   1  12
ATOM     12  O   UNL     1       2.879   4.731  18.240  0.00  0.00    +0.000 OA
BRANCH  12  13
ATOM     13  C   UNL     1       1.974   4.853  19.345  0.00  0.00    +0.000 C 
BRANCH  13  14
ATOM     14  C   UNL     1       2.403   5.987  20.283  0.00  0.00    +0.000 C 
BRANCH  14  18
ATOM     15  N   UNL     1       1.369   9.446  19.364  0.00  0.00    +0.000 N 
ATOM     16  C   UNL     1       1.458   8.278  20.125  0.00  0.00    +0.000 C 
ATOM     17  O   UNL     1       0.843   8.118  21.181  0.00  0.00    +0.000 OA
ATOM     18  N   UNL     1       2.291   7.290  19.643  0.00  0.00    +0.000 N 
ATOM     19  H   UNL     1       2.838   7.459  18.810  0.00  0.00    +0.000 HD
BRANCH  15  21
ATOM     20  O   UNL     1       1.694   8.739  17.289  0.00  0.00    +0.000 OA
ATOM     21  N   UNL     1       2.064   9.545  18.149  0.00  0.00    +0.000 NA
ENDBRANCH  15  21
BRANCH  15  22
ATOM     22  C   UNL     1       0.571  10.573  19.854  0.00  0.00    +0.000 C 
BRANCH  22  23
ATOM     23  C   UNL     1      -0.285  11.268  18.794  0.00  0.00    +0.000 C 
ATOM     24 CL   UNL     1      -1.468  10.164  18.052  0.00  0.00    +0.000 Cl
ENDBRANCH  22  23
ENDBRANCH  15  22
ENDBRANCH  14  18
ENDBRANCH  13  14
ENDBRANCH  12  13
ENDBRANCH   1  12
BRANCH   1  25
ATOM     25  C   UNL     1       3.960   2.609  18.840  0.00  0.00    +0.000 C 
BRANCH  25  26
ATOM     26  C   UNL     1       4.281   2.221  20.275  0.00  0.00    +0.000 C 
BRANCH  26  27
ATOM     27  O   UNL     1       5.406   1.350  20.288  0.00  0.00    +0.000 OA
ATOM     28  H   UNL     1       5.085   0.464  20.533  0.00  0.00    +0.000 HD
ENDBRANCH  26  27
ENDBRANCH  25  26
ENDBRANCH   1  25
TORSDOF 11
ENDMDL
MODEL 6
REMARK VINA RESULT:      -6.1      3.468      5.445
REMARK  Name = 
REMARK  11 active torsions:
REMARK  status: ('A' for Active; 'I' for Inactive)
REMARK    1  A    between atoms: N_2  and  N_3
REMARK    2  A    between atoms: N_3  and  C_4
REMARK    3  A    between atoms: C_4  and  C_5
REMARK    4  A    between atoms: N_9  and  C_10
REMARK    5  A    between atoms: C_10  and  C_11
REMARK    6  A    between atoms: C_11  and  O_12
REMARK    7  A    between atoms: O_12  and  C_13
REMARK    8  A    between atoms: C_13  and  C_14
REMARK    9  A    between atoms: C_13  and  N_17
REMARK   10  A    between atoms: C_14  and  C_15
REMARK   11  A    between atoms: C_15  and  O_16
REMARK                            x       y       z     vdW  Elec       q    Type
REMARK                         _______ _______ _______ _____ _____    ______ ____
ROOT
ATOM      1  C   UNL     1       4.125   5.580  17.749  0.00  0.00    +0.000 C 
ENDROOT
BRANCH   1   2
ATOM      2  N   UNL     1       3.258   6.615  18.381  0.00  0.00    +0.000 N 
ATOM      3  C   UNL     1       2.881   7.754  17.679  0.00  0.00    +0.000 A 
ATOM      4  C   UNL     1       2.111   8.699  18.218  0.00  0.00    +0.000 A 
ATOM      5  F   UNL     1       1.743   9.804  17.543  0.00  0.00    +0.000 F 
ATOM      6  C   UNL     1       1.629   8.553  19.602  0.00  0.00    +0.000 A 
ATOM      7  O   UNL     1       0.965   9.409  20.168  0.00  0.00    +0.000 OA
ATOM      8  N   UNL     1       1.983   7.377  20.204  0.00  0.00    +0.000 N 
ATOM      9  C   UNL     1       2.752   6.375  19.661  0.00  0.00    +0.000 A 
ATOM     10  O   UNL     1       2.961   5.360  20.322  0.00  0.00    +0.000 OA
ATOM     11  H   UNL     1       1.647   7.228  21.144  0.00  0.00    +0.000 HD
ENDBRANCH   1   2
BRANCH   1  12
ATOM     12  O   UNL     1       5.317   5.390  18.544  0.00  0.00    +0.000 OA
BRANCH  12  13
ATOM     13  C   UNL     1       6.488   6.011  18.001  0.00  0.00    +0.000 C 
BRANCH  13  14
ATOM     14  C   UNL     1       7.359   4.989  17.261  0.00  0.00    +0.000 C 
BRANCH  14  18
ATOM     15  N   UNL     1       6.844   4.581  13.594  0.00  0.00    +0.000 N 
ATOM     16  C   UNL     1       6.713   4.316  14.960  0.00  0.00    +0.000 C 
ATOM     17  O   UNL     1       6.076   3.357  15.398  0.00  0.00    +0.000 OA
ATOM     18  N   UNL     1       7.332   5.199  15.821  0.00  0.00    +0.000 N 
ATOM     19  H   UNL     1       7.798   6.016  15.450  0.00  0.00    +0.000 HD
BRANCH  15  21
ATOM     20  O   UNL     1       8.831   5.528  13.352  0.00  0.00    +0.000 OA
ATOM     21  N   UNL     1       7.619   5.668  13.162  0.00  0.00    +0.000 NA
ENDBRANCH  15  21
BRANCH  15  22
ATOM     22  C   UNL     1       6.145   3.738  12.621  0.00  0.00    +0.000 C 
BRANCH  22  23
ATOM     23  C   UNL     1       7.054   2.944  11.682  0.00  0.00    +0.000 C 
ATOM     24 CL   UNL     1       6.278   1.457  11.088  0.00  0.00    +0.000 Cl
ENDBRANCH  22  23
ENDBRANCH  15  22
ENDBRANCH  14  18
ENDBRANCH  13  14
ENDBRANCH  12  13
ENDBRANCH   1  12
BRANCH   1  25
ATOM     25  C   UNL     1       3.396   4.237  17.538  0.00  0.00    +0.000 C 
BRANCH  25  26
ATOM     26  C   UNL     1       4.200   3.050  18.047  0.00  0.00    +0.000 C 
BRANCH  26  27
ATOM     27  O   UNL     1       4.050   2.948  19.458  0.00  0.00    +0.000 OA
ATOM     28  H   UNL     1       3.187   3.339  19.688  0.00  0.00    +0.000 HD
ENDBRANCH  26  27
ENDBRANCH  25  26
ENDBRANCH   1  25
TORSDOF 11
ENDMDL
MODEL 7
REMARK VINA RESULT:      -6.1      3.928      6.453
REMARK  Name = 
REMARK  11 active torsions:
REMARK  status: ('A' for Active; 'I' for Inactive)
REMARK    1  A    between atoms: N_2  and  N_3
REMARK    2  A    between atoms: N_3  and  C_4
REMARK    3  A    between atoms: C_4  and  C_5
REMARK    4  A    between atoms: N_9  and  C_10
REMARK    5  A    between atoms: C_10  and  C_11
REMARK    6  A    between atoms: C_11  and  O_12
REMARK    7  A    between atoms: O_12  and  C_13
REMARK    8  A    between atoms: C_13  and  C_14
REMARK    9  A    between atoms: C_13  and  N_17
REMARK   10  A    between atoms: C_14  and  C_15
REMARK   11  A    between atoms: C_15  and  O_16
REMARK                            x       y       z     vdW  Elec       q    Type
REMARK                         _______ _______ _______ _____ _____    ______ ____
ROOT
ATOM      1  C   UNL     1       4.665   4.570  19.251  0.00  0.00    +0.000 C 
ENDROOT
BRANCH   1   2
ATOM      2  N   UNL     1       5.456   4.740  17.998  0.00  0.00    +0.000 N 
ATOM      3  C   UNL     1       4.825   4.797  16.761  0.00  0.00    +0.000 A 
ATOM      4  C   UNL     1       5.504   4.944  15.624  0.00  0.00    +0.000 A 
ATOM      5  F   UNL     1       4.900   5.000  14.422  0.00  0.00    +0.000 F 
ATOM      6  C   UNL     1       6.972   5.052  15.653  0.00  0.00    +0.000 A 
ATOM      7  O   UNL     1       7.654   5.136  14.642  0.00  0.00    +0.000 OA
ATOM      8  N   UNL     1       7.515   5.057  16.909  0.00  0.00    +0.000 N 
ATOM      9  C   UNL     1       6.836   4.936  18.098  0.00  0.00    +0.000 A 
ATOM     10  O   UNL     1       7.465   4.986  19.152  0.00  0.00    +0.000 OA
ATOM     11  H   UNL     1       8.517   5.158  16.971  0.00  0.00    +0.000 HD
ENDBRANCH   1   2
BRANCH   1  12
ATOM     12  O   UNL     1       4.171   5.855  19.693  0.00  0.00    +0.000 OA
BRANCH  12  13
ATOM     13  C   UNL     1       2.746   5.990  19.623  0.00  0.00    +0.000 C 
BRANCH  13  14
ATOM     14  C   UNL     1       2.350   7.398  19.164  0.00  0.00    +0.000 C 
BRANCH  14  18
ATOM     15  N   UNL     1       0.332   9.918  21.025  0.00  0.00    +0.000 N 
ATOM     16  C   UNL     1       0.923   9.281  19.930  0.00  0.00    +0.000 C 
ATOM     17  O   UNL     1       0.843   9.714  18.779  0.00  0.00    +0.000 OA
ATOM     18  N   UNL     1       1.607   8.112  20.193  0.00  0.00    +0.000 N 
ATOM     19  H   UNL     1       1.611   7.735  21.131  0.00  0.00    +0.000 HD
BRANCH  15  21
ATOM     20  O   UNL     1       1.641   9.515  22.766  0.00  0.00    +0.000 OA
ATOM     21  N   UNL     1       0.498   9.393  22.315  0.00  0.00    +0.000 NA
ENDBRANCH  15  21
BRANCH  15  22
ATOM     22  C   UNL     1      -0.482  11.118  20.814  0.00  0.00    +0.000 C 
BRANCH  22  23
ATOM     23  C   UNL     1      -0.139  12.300  21.721  0.00  0.00    +0.000 C 
ATOM     24 CL   UNL     1      -1.297  12.481  23.060  0.00  0.00    +0.000 Cl
ENDBRANCH  22  23
ENDBRANCH  15  22
ENDBRANCH  14  18
ENDBRANCH  13  14
ENDBRANCH  12  13
ENDBRANCH   1  12
BRANCH   1  25
ATOM     25  C   UNL     1       3.502   3.569  19.094  0.00  0.00    +0.000 C 
BRANCH  25  26
ATOM     26  C   UNL     1       3.972   2.123  19.087  0.00  0.00    +0.000 C 
BRANCH  26  27
ATOM     27  O   UNL     1       5.061   1.976  19.993  0.00  0.00    +0.000 OA
ATOM     28  H   UNL     1       5.868   2.251  19.523  0.00  0.00    +0.000 HD
ENDBRANCH  26  27
ENDBRANCH  25  26
ENDBRANCH   1  25
TORSDOF 11
ENDMDL
MODEL 8
REMARK VINA RESULT:      -6.1      3.655      6.391
REMARK  Name = 
REMARK  11 active torsions:
REMARK  status: ('A' for Active; 'I' for Inactive)
REMARK    1  A    between atoms: N_2  and  N_3
REMARK    2  A    between atoms: N_3  and  C_4
REMARK    3  A    between atoms: C_4  and  C_5
REMARK    4  A    between atoms: N_9  and  C_10
REMARK    5  A    between atoms: C_10  and  C_11
REMARK    6  A    between atoms: C_11  and  O_12
REMARK    7  A    between atoms: O_12  and  C_13
REMARK    8  A    between atoms: C_13  and  C_14
REMARK    9  A    between atoms: C_13  and  N_17
REMARK   10  A    between atoms: C_14  and  C_15
REMARK   11  A    between atoms: C_15  and  O_16
REMARK                            x       y       z     vdW  Elec       q    Type
REMARK                         _______ _______ _______ _____ _____    ______ ____
ROOT
ATOM      1  C   UNL     1       4.474   3.597  18.606  0.00  0.00    +0.000 C 
ENDROOT
BRANCH   1   2
ATOM      2  N   UNL     1       5.359   4.081  17.508  0.00  0.00    +0.000 N 
ATOM      3  C   UNL     1       4.940   4.033  16.184  0.00  0.00    +0.000 A 
ATOM      4  C   UNL     1       5.709   4.454  15.180  0.00  0.00    +0.000 A 
ATOM      5  F   UNL     1       5.310   4.410  13.895  0.00  0.00    +0.000 F 
ATOM      6  C   UNL     1       7.051   4.993  15.458  0.00  0.00    +0.000 A 
ATOM      7  O   UNL     1       7.822   5.346  14.578  0.00  0.00    +0.000 OA
ATOM      8  N   UNL     1       7.364   5.073  16.787  0.00  0.00    +0.000 N 
ATOM      9  C   UNL     1       6.580   4.673  17.843  0.00  0.00    +0.000 A 
ATOM     10  O   UNL     1       6.992   4.835  18.989  0.00  0.00    +0.000 OA
ATOM     11  H   UNL     1       8.265   5.464  17.019  0.00  0.00    +0.000 HD
ENDBRANCH   1   2
BRANCH   1  12
ATOM     12  O   UNL     1       3.702   4.700  19.132  0.00  0.00    +0.000 OA
BRANCH  12  13
ATOM     13  C   UNL     1       2.846   5.327  18.169  0.00  0.00    +0.000 C 
BRANCH  13  14
ATOM     14  C   UNL     1       3.132   6.831  18.076  0.00  0.00    +0.000 C 
BRANCH  14  18
ATOM     15  N   UNL     1       0.986   9.561  19.426  0.00  0.00    +0.000 N 
ATOM     16  C   UNL     1       1.812   8.886  18.523  0.00  0.00    +0.000 C 
ATOM     17  O   UNL     1       2.185   9.380  17.458  0.00  0.00    +0.000 OA
ATOM     18  N   UNL     1       2.196   7.608  18.876  0.00  0.00    +0.000 N 
ATOM     19  H   UNL     1       1.832   7.192  19.722  0.00  0.00    +0.000 HD
BRANCH  15  21
ATOM     20  O   UNL     1       1.545   8.929  21.475  0.00  0.00    +0.000 OA
ATOM     21  N   UNL     1       0.634   8.955  20.641  0.00  0.00    +0.000 NA
ENDBRANCH  15  21
BRANCH  15  22
ATOM     22  C   UNL     1       0.468  10.888  19.084  0.00  0.00    +0.000 C 
BRANCH  22  23
ATOM     23  C   UNL     1       1.299  12.061  19.607  0.00  0.00    +0.000 C 
ATOM     24 CL   UNL     1       2.377  12.732  18.361  0.00  0.00    +0.000 Cl
ENDBRANCH  22  23
ENDBRANCH  15  22
ENDBRANCH  14  18
ENDBRANCH  13  14
ENDBRANCH  12  13
ENDBRANCH   1  12
BRANCH   1  25
ATOM     25  C   UNL     1       3.544   2.449  18.163  0.00  0.00    +0.000 C 
BRANCH  25  26
ATOM     26  C   UNL     1       2.518   2.085  19.226  0.00  0.00    +0.000 C 
BRANCH  26  27
ATOM     27  O   UNL     1       1.311   1.670  18.594  0.00  0.00    +0.000 OA
ATOM     28  H   UNL     1       1.199   2.216  17.796  0.00  0.00    +0.000 HD
ENDBRANCH  26  27
ENDBRANCH  25  26
ENDBRANCH   1  25
TORSDOF 11
ENDMDL
MODEL 9
REMARK VINA RESULT:      -6.1      3.596      6.325
REMARK  Name = 
REMARK  11 active torsions:
REMARK  status: ('A' for Active; 'I' for Inactive)
REMARK    1  A    between atoms: N_2  and  N_3
REMARK    2  A    between atoms: N_3  and  C_4
REMARK    3  A    between atoms: C_4  and  C_5
REMARK    4  A    between atoms: N_9  and  C_10
REMARK    5  A    between atoms: C_10  and  C_11
REMARK    6  A    between atoms: C_11  and  O_12
REMARK    7  A    between atoms: O_12  and  C_13
REMARK    8  A    between atoms: C_13  and  C_14
REMARK    9  A    between atoms: C_13  and  N_17
REMARK   10  A    between atoms: C_14  and  C_15
REMARK   11  A    between atoms: C_15  and  O_16
REMARK                            x       y       z     vdW  Elec       q    Type
REMARK                         _______ _______ _______ _____ _____    ______ ____
ROOT
ATOM      1  C   UNL     1       4.273   4.083  18.858  0.00  0.00    +0.000 C 
ENDROOT
BRANCH   1   2
ATOM      2  N   UNL     1       5.205   4.400  17.739  0.00  0.00    +0.000 N 
ATOM      3  C   UNL     1       4.784   4.322  16.417  0.00  0.00    +0.000 A 
ATOM      4  C   UNL     1       5.595   4.595  15.396  0.00  0.00    +0.000 A 
ATOM      5  F   UNL     1       5.193   4.521  14.113  0.00  0.00    +0.000 F 
ATOM      6  C   UNL     1       6.989   4.996  15.651  0.00  0.00    +0.000 A 
ATOM      7  O   UNL     1       7.794   5.209  14.756  0.00  0.00    +0.000 OA
ATOM      8  N   UNL     1       7.310   5.118  16.975  0.00  0.00    +0.000 N 
ATOM      9  C   UNL     1       6.485   4.870  18.046  0.00  0.00    +0.000 A 
ATOM     10  O   UNL     1       6.914   5.051  19.184  0.00  0.00    +0.000 OA
ATOM     11  H   UNL     1       8.249   5.418  17.189  0.00  0.00    +0.000 HD
ENDBRANCH   1   2
BRANCH   1  12
ATOM     12  O   UNL     1       2.908   4.291  18.429  0.00  0.00    +0.000 OA
BRANCH  12  13
ATOM     13  C   UNL     1       2.134   5.110  19.315  0.00  0.00    +0.000 C 
BRANCH  13  14
ATOM     14  C   UNL     1       2.906   6.375  19.708  0.00  0.00    +0.000 C 
BRANCH  14  18
ATOM     15  N   UNL     1       0.880   9.472  20.138  0.00  0.00    +0.000 N 
ATOM     16  C   UNL     1       1.654   8.507  19.486  0.00  0.00    +0.000 C 
ATOM     17  O   UNL     1       1.995   8.607  18.306  0.00  0.00    +0.000 OA
ATOM     18  N   UNL     1       2.021   7.406  20.231  0.00  0.00    +0.000 N 
ATOM     19  H   UNL     1       1.682   7.307  21.178  0.00  0.00    +0.000 HD
BRANCH  15  21
ATOM     20  O   UNL     1      -0.383   8.549  21.706  0.00  0.00    +0.000 OA
ATOM     21  N   UNL     1       0.563   9.315  21.495  0.00  0.00    +0.000 NA
ENDBRANCH  15  21
BRANCH  15  22
ATOM     22  C   UNL     1       0.380  10.628  19.389  0.00  0.00    +0.000 C 
BRANCH  22  23
ATOM     23  C   UNL     1       1.259  11.877  19.467  0.00  0.00    +0.000 C 
ATOM     24 CL   UNL     1       0.964  12.818  20.949  0.00  0.00    +0.000 Cl
ENDBRANCH  22  23
ENDBRANCH  15  22
ENDBRANCH  14  18
ENDBRANCH  13  14
ENDBRANCH  12  13
ENDBRANCH   1  12
BRANCH   1  25
ATOM     25  C   UNL     1       4.455   2.650  19.402  0.00  0.00    +0.000 C 
BRANCH  25  26
ATOM     26  C   UNL     1       3.476   1.662  18.786  0.00  0.00    +0.000 C 
BRANCH  26  27
ATOM     27  O   UNL     1       4.185   0.510  18.343  0.00  0.00    +0.000 OA
ATOM     28  H   UNL     1       5.125   0.647  18.558  0.00  0.00    +0.000 HD
ENDBRANCH  26  27
ENDBRANCH  25  26
ENDBRANCH   1  25
TORSDOF 11
ENDMDL
