MODEL 1
REMARK VINA RESULT:      -6.4      0.000      0.000
REMARK  Name = 
REMARK  10 active torsions:
REMARK  status: ('A' for Active; 'I' for Inactive)
REMARK    1  A    between atoms: C_1  and  C_2
REMARK    2  A    between atoms: C_2  and  C_3
REMARK    3  A    between atoms: C_3  and  N_4
REMARK    4  A    between atoms: C_3  and  C_16
REMARK    5  A    between atoms: N_4  and  S_5
REMARK    6  A    between atoms: S_5  and  N_8
REMARK    7  A    between atoms: C_11  and  O_12
REMARK    8  A    between atoms: O_12  and  C_13
REMARK    9  A    between atoms: N_20  and  C_21
REMARK   10  A    between atoms: C_21  and  C_22
REMARK                            x       y       z     vdW  Elec       q    Type
REMARK                         _______ _______ _______ _____ _____    ______ ____
ROOT
ATOM      1  N   UNL     1       4.040   5.459  20.079  0.00  0.00    +0.000 NA
ATOM      2  H   UNL     1       4.416   6.372  20.347  0.00  0.00    +0.000 HD
ENDROOT
BRANCH   1   3
ATOM      3  S   UNL     1       5.325   4.664  19.353  0.00  0.00    +0.000 S 
ATOM      4  O   UNL     1       6.569   5.302  19.695  0.00  0.00    +0.000 OA
ATOM      5  O   UNL     1       5.098   3.249  19.532  0.00  0.00    +0.000 OA
BRANCH   3   6
ATOM      6  N   UNL     1       4.985   5.070  17.735  0.00  0.00    +0.000 NA
ATOM      7  C   UNL     1       5.620   6.351  17.310  0.00  0.00    +0.000 C 
ATOM      8  C   UNL     1       5.124   6.720  15.919  0.00  0.00    +0.000 C 
ATOM      9  C   UNL     1       5.561   5.649  14.923  0.00  0.00    +0.000 C 
ATOM     10  C   UNL     1       4.975   4.303  15.362  0.00  0.00    +0.000 C 
ATOM     11  C   UNL     1       5.379   3.962  16.797  0.00  0.00    +0.000 C 
BRANCH   9  12
ATOM     12  O   UNL     1       6.986   5.499  14.863  0.00  0.00    +0.000 OA
ATOM     13  C   UNL     1       7.473   4.918  13.661  0.00  0.00    +0.000 C 
ENDBRANCH   9  12
ENDBRANCH   3   6
ENDBRANCH   1   3
BRANCH   1  14
ATOM     14  C   UNL     1       2.823   5.679  19.246  0.00  0.00    +0.000 C 
BRANCH  14  15
ATOM     15  C   UNL     1       2.048   6.845  19.815  0.00  0.00    +0.000 A 
ATOM     16  N   UNL     1       1.484   6.851  21.012  0.00  0.00    +0.000 NA
ATOM     17  C   UNL     1       1.104   8.145  21.187  0.00  0.00    +0.000 A 
ATOM     18  N   UNL     1       1.324   8.943  20.144  0.00  0.00    +0.000 NA
ATOM     19  N   UNL     1       1.919   8.102  19.272  0.00  0.00    +0.000 N 
BRANCH  19  20
ATOM     20  C   UNL     1       2.376   8.641  18.009  0.00  0.00    +0.000 C 
ATOM     21  C   UNL     1       1.963  10.092  17.797  0.00  0.00    +0.000 C 
ENDBRANCH  19  20
ENDBRANCH  14  15
BRANCH  14  23
ATOM     22  C   UNL     1       1.552   4.076  17.696  0.00  0.00    +0.000 C 
ATOM     23  C   UNL     1       1.904   4.449  19.133  0.00  0.00    +0.000 C 
ENDBRANCH  14  23
ENDBRANCH   1  14
TORSDOF 7
ENDMDL
MODEL 2
REMARK VINA RESULT:      -6.3      1.732      2.825
REMARK  Name = 
REMARK  10 active torsions:
REMARK  status: ('A' for Active; 'I' for Inactive)
REMARK    1  A    between atoms: C_1  and  C_2
REMARK    2  A    between atoms: C_2  and  C_3
REMARK    3  A    between atoms: C_3  and  N_4
REMARK    4  A    between atoms: C_3  and  C_16
REMARK    5  A    between atoms: N_4  and  S_5
REMARK    6  A    between atoms: S_5  and  N_8
REMARK    7  A    between atoms: C_11  and  O_12
REMARK    8  A    between atoms: O_12  and  C_13
REMARK    9  A    between atoms: N_20  and  C_21
REMARK   10  A    between atoms: C_21  and  C_22
REMARK                            x       y       z     vdW  Elec       q    Type
REMARK                         _______ _______ _______ _____ _____    ______ ____
ROOT
ATOM      1  N   UNL     1       3.912   4.919  19.799  0.00  0.00    +0.000 NA
ATOM      2  H   UNL     1       4.525   5.674  19.480  0.00  0.00    +0.000 HD
ENDROOT
BRANCH   1   3
ATOM      3  S   UNL     1       4.536   3.534  19.090  0.00  0.00    +0.000 S 
ATOM      4  O   UNL     1       4.947   2.594  20.100  0.00  0.00    +0.000 OA
ATOM      5  O   UNL     1       3.647   3.179  18.009  0.00  0.00    +0.000 OA
BRANCH   3   6
ATOM      6  N   UNL     1       5.953   4.209  18.432  0.00  0.00    +0.000 NA
ATOM      7  C   UNL     1       5.783   4.655  17.018  0.00  0.00    +0.000 C 
ATOM      8  C   UNL     1       7.135   5.080  16.460  0.00  0.00    +0.000 C 
ATOM      9  C   UNL     1       7.657   6.277  17.250  0.00  0.00    +0.000 C 
ATOM     10  C   UNL     1       7.787   5.873  18.722  0.00  0.00    +0.000 C 
ATOM     11  C   UNL     1       6.462   5.345  19.274  0.00  0.00    +0.000 C 
BRANCH   9  12
ATOM     12  O   UNL     1       6.774   7.405  17.189  0.00  0.00    +0.000 OA
ATOM     13  C   UNL     1       7.352   8.635  17.606  0.00  0.00    +0.000 C 
ENDBRANCH   9  12
ENDBRANCH   3   6
ENDBRANCH   1   3
BRANCH   1  14
ATOM     14  C   UNL     1       2.507   5.280  19.457  0.00  0.00    +0.000 C 
BRANCH  14  15
ATOM     15  C   UNL     1       2.463   6.735  19.050  0.00  0.00    +0.000 A 
ATOM     16  N   UNL     1       2.848   7.190  17.870  0.00  0.00    +0.000 NA
ATOM     17  C   UNL     1       2.432   8.485  17.868  0.00  0.00    +0.000 A 
ATOM     18  N   UNL     1       1.874   8.900  19.003  0.00  0.00    +0.000 NA
ATOM     19  N   UNL     1       1.906   7.778  19.753  0.00  0.00    +0.000 N 
BRANCH  19  20
ATOM     20  C   UNL     1       1.311   7.823  21.072  0.00  0.00    +0.000 C 
ATOM     21  C   UNL     1       0.310   8.960  21.234  0.00  0.00    +0.000 C 
ENDBRANCH  19  20
ENDBRANCH  14  15
BRANCH  14  23
ATOM     22  C   UNL     1       1.047   3.572  20.698  0.00  0.00    +0.000 C 
ATOM     23  C   UNL     1       1.496   5.026  20.590  0.00  0.00    +0.000 C 
ENDBRANCH  14  23
ENDBRANCH   1  14
TORSDOF 7
ENDMDL
MODEL 3
REMARK VINA RESULT:      -6.3      1.273      1.672
REMARK  Name = 
REMARK  10 active torsions:
REMARK  status: ('A' for Active; 'I' for Inactive)
REMARK    1  A    between atoms: C_1  and  C_2
REMARK    2  A    between atoms: C_2  and  C_3
REMARK    3  A    between atoms: C_3  and  N_4
REMARK    4  A    between atoms: C_3  and  C_16
REMARK    5  A    between atoms: N_4  and  S_5
REMARK    6  A    between atoms: S_5  and  N_8
REMARK    7  A    between atoms: C_11  and  O_12
REMARK    8  A    between atoms: O_12  and  C_13
REMARK    9  A    between atoms: N_20  and  C_21
REMARK   10  A    between atoms: C_21  and  C_22
REMARK                            x       y       z     vdW  Elec       q    Type
REMARK                         _______ _______ _______ _____ _____    ______ ____
ROOT
ATOM      1  N   UNL     1       3.378   4.593  20.138  0.00  0.00    +0.000 NA
ATOM      2  H   UNL     1       3.913   5.462  20.211  0.00  0.00    +0.000 HD
ENDROOT
BRANCH   1   3
ATOM      3  S   UNL     1       4.274   3.626  19.102  0.00  0.00    +0.000 S 
ATOM      4  O   UNL     1       5.269   2.889  19.837  0.00  0.00    +0.000 OA
ATOM      5  O   UNL     1       3.337   2.991  18.205  0.00  0.00    +0.000 OA
BRANCH   3   6
ATOM      6  N   UNL     1       5.089   4.857  18.256  0.00  0.00    +0.000 NA
ATOM      7  C   UNL     1       6.572   4.774  18.391  0.00  0.00    +0.000 C 
ATOM      8  C   UNL     1       7.204   6.004  17.754  0.00  0.00    +0.000 C 
ATOM      9  C   UNL     1       6.888   6.022  16.261  0.00  0.00    +0.000 C 
ATOM     10  C   UNL     1       5.367   6.047  16.082  0.00  0.00    +0.000 C 
ATOM     11  C   UNL     1       4.702   4.873  16.803  0.00  0.00    +0.000 C 
BRANCH   9  12
ATOM     12  O   UNL     1       7.383   4.861  15.578  0.00  0.00    +0.000 OA
ATOM     13  C   UNL     1       7.044   4.793  14.199  0.00  0.00    +0.000 C 
ENDBRANCH   9  12
ENDBRANCH   3   6
ENDBRANCH   1   3
BRANCH   1  14
ATOM     14  C   UNL     1       1.989   4.931  19.715  0.00  0.00    +0.000 C 
BRANCH  14  15
ATOM     15  C   UNL     1       1.682   6.348  20.143  0.00  0.00    +0.000 A 
ATOM     16  N   UNL     1       1.131   6.674  21.300  0.00  0.00    +0.000 NA
ATOM     17  C   UNL     1       1.248   8.028  21.349  0.00  0.00    +0.000 A 
ATOM     18  N   UNL     1       1.771   8.587  20.260  0.00  0.00    +0.000 NA
ATOM     19  N   UNL     1       2.038   7.508  19.494  0.00  0.00    +0.000 N 
BRANCH  19  20
ATOM     20  C   UNL     1       2.692   7.720  18.221  0.00  0.00    +0.000 C 
ATOM     21  C   UNL     1       2.213   8.979  17.509  0.00  0.00    +0.000 C 
ENDBRANCH  19  20
ENDBRANCH  14  15
BRANCH  14  23
ATOM     22  C   UNL     1       1.428   3.019  21.332  0.00  0.00    +0.000 C 
ATOM     23  C   UNL     1       0.912   3.978  20.264  0.00  0.00    +0.000 C 
ENDBRANCH  14  23
ENDBRANCH   1  14
TORSDOF 7
ENDMDL
MODEL 4
REMARK VINA RESULT:      -6.2      1.924      2.798
REMARK  Name = 
REMARK  10 active torsions:
REMARK  status: ('A' for Active; 'I' for Inactive)
REMARK    1  A    between atoms: C_1  and  C_2
REMARK    2  A    between atoms: C_2  and  C_3
REMARK    3  A    between atoms: C_3  and  N_4
REMARK    4  A    between atoms: C_3  and  C_16
REMARK    5  A    between atoms: N_4  and  S_5
REMARK    6  A    between atoms: S_5  and  N_8
REMARK    7  A    between atoms: C_11  and  O_12
REMARK    8  A    between atoms: O_12  and  C_13
REMARK    9  A    between atoms: N_20  and  C_21
REMARK   10  A    between atoms: C_21  and  C_22
REMARK                            x       y       z     vdW  Elec       q    Type
REMARK                         _______ _______ _______ _____ _____    ______ ____
ROOT
ATOM      1  N   UNL     1       3.375   4.388  19.715  0.00  0.00    +0.000 NA
ATOM      2  H   UNL     1       3.890   5.268  19.628  0.00  0.00    +0.000 HD
ENDROOT
BRANCH   1   3
ATOM      3  S   UNL     1       3.987   3.414  18.494  0.00  0.00    +0.000 S 
ATOM      4  O   UNL     1       4.025   2.040  18.920  0.00  0.00    +0.000 OA
ATOM      5  O   UNL     1       3.355   3.835  17.266  0.00  0.00    +0.000 OA
BRANCH   3   6
ATOM      6  N   UNL     1       5.591   3.984  18.504  0.00  0.00    +0.000 NA
ATOM      7  C   UNL     1       6.104   4.303  17.140  0.00  0.00    +0.000 C 
ATOM      8  C   UNL     1       7.587   4.634  17.226  0.00  0.00    +0.000 C 
ATOM      9  C   UNL     1       7.781   5.882  18.084  0.00  0.00    +0.000 C 
ATOM     10  C   UNL     1       7.209   5.611  19.479  0.00  0.00    +0.000 C 
ATOM     11  C   UNL     1       5.745   5.176  19.407  0.00  0.00    +0.000 C 
BRANCH   9  12
ATOM     12  O   UNL     1       7.098   7.027  17.554  0.00  0.00    +0.000 OA
ATOM     13  C   UNL     1       7.810   8.251  17.671  0.00  0.00    +0.000 C 
ENDBRANCH   9  12
ENDBRANCH   3   6
ENDBRANCH   1   3
BRANCH   1  14
ATOM     14  C   UNL     1       1.916   4.691  19.672  0.00  0.00    +0.000 C 
BRANCH  14  15
ATOM     15  C   UNL     1       1.716   6.162  19.953  0.00  0.00    +0.000 A 
ATOM     16  N   UNL     1       1.412   6.660  21.140  0.00  0.00    +0.000 NA
ATOM     17  C   UNL     1       1.551   8.003  20.977  0.00  0.00    +0.000 A 
ATOM     18  N   UNL     1       1.851   8.392  19.740  0.00  0.00    +0.000 NA
ATOM     19  N   UNL     1       1.947   7.211  19.093  0.00  0.00    +0.000 N 
BRANCH  19  20
ATOM     20  C   UNL     1       2.335   7.228  17.698  0.00  0.00    +0.000 C 
ATOM     21  C   UNL     1       3.836   7.393  17.501  0.00  0.00    +0.000 C 
ENDBRANCH  19  20
ENDBRANCH  14  15
BRANCH  14  23
ATOM     22  C   UNL     1       1.898   3.041  21.637  0.00  0.00    +0.000 C 
ATOM     23  C   UNL     1       1.069   3.855  20.649  0.00  0.00    +0.000 C 
ENDBRANCH  14  23
ENDBRANCH   1  14
TORSDOF 7
ENDMDL
MODEL 5
REMARK VINA RESULT:      -6.2      3.117      6.074
REMARK  Name = 
REMARK  10 active torsions:
REMARK  status: ('A' for Active; 'I' for Inactive)
REMARK    1  A    between atoms: C_1  and  C_2
REMARK    2  A    between atoms: C_2  and  C_3
REMARK    3  A    between atoms: C_3  and  N_4
REMARK    4  A    between atoms: C_3  and  C_16
REMARK    5  A    between atoms: N_4  and  S_5
REMARK    6  A    between atoms: S_5  and  N_8
REMARK    7  A    between atoms: C_11  and  O_12
REMARK    8  A    between atoms: O_12  and  C_13
REMARK    9  A    between atoms: N_20  and  C_21
REMARK   10  A    between atoms: C_21  and  C_22
REMARK                            x       y       z     vdW  Elec       q    Type
REMARK                         _______ _______ _______ _____ _____    ______ ____
ROOT
ATOM      1  N   UNL     1       4.649   3.268  17.947  0.00  0.00    +0.000 NA
ATOM      2  H   UNL     1       5.427   2.731  17.556  0.00  0.00    +0.000 HD
ENDROOT
BRANCH   1   3
ATOM      3  S   UNL     1       3.365   2.190  17.987  0.00  0.00    +0.000 S 
ATOM      4  O   UNL     1       2.541   2.346  16.817  0.00  0.00    +0.000 OA
ATOM      5  O   UNL     1       3.901   0.915  18.401  0.00  0.00    +0.000 OA
BRANCH   3   6
ATOM      6  N   UNL     1       2.512   2.872  19.293  0.00  0.00    +0.000 NA
ATOM      7  C   UNL     1       3.397   3.580  20.262  0.00  0.00    +0.000 C 
ATOM      8  C   UNL     1       2.579   4.002  21.474  0.00  0.00    +0.000 C 
ATOM      9  C   UNL     1       1.502   4.993  21.041  0.00  0.00    +0.000 C 
ATOM     10  C   UNL     1       0.607   4.318  19.997  0.00  0.00    +0.000 C 
ATOM     11  C   UNL     1       1.425   3.795  18.816  0.00  0.00    +0.000 C 
BRANCH   9  12
ATOM     12  O   UNL     1       2.050   6.174  20.439  0.00  0.00    +0.000 OA
ATOM     13  C   UNL     1       1.471   7.393  20.887  0.00  0.00    +0.000 C 
ENDBRANCH   9  12
ENDBRANCH   3   6
ENDBRANCH   1   3
BRANCH   1  14
ATOM     14  C   UNL     1       4.471   4.501  17.128  0.00  0.00    +0.000 C 
BRANCH  14  15
ATOM     15  C   UNL     1       5.621   4.608  16.153  0.00  0.00    +0.000 A 
ATOM     16  N   UNL     1       5.551   4.264  14.878  0.00  0.00    +0.000 NA
ATOM     17  C   UNL     1       6.715   4.729  14.350  0.00  0.00    +0.000 A 
ATOM     18  N   UNL     1       7.552   5.280  15.227  0.00  0.00    +0.000 NA
ATOM     19  N   UNL     1       6.848   5.191  16.376  0.00  0.00    +0.000 N 
BRANCH  19  20
ATOM     20  C   UNL     1       7.424   5.761  17.574  0.00  0.00    +0.000 C 
ATOM     21  C   UNL     1       7.622   7.268  17.480  0.00  0.00    +0.000 C 
ENDBRANCH  19  20
ENDBRANCH  14  15
BRANCH  14  23
ATOM     22  C   UNL     1       3.700   6.948  17.206  0.00  0.00    +0.000 C 
ATOM     23  C   UNL     1       4.367   5.797  17.953  0.00  0.00    +0.000 C 
ENDBRANCH  14  23
ENDBRANCH   1  14
TORSDOF 7
ENDMDL
MODEL 6
REMARK VINA RESULT:      -6.1      3.197      4.549
REMARK  Name = 
REMARK  10 active torsions:
REMARK  status: ('A' for Active; 'I' for Inactive)
REMARK    1  A    between atoms: C_1  and  C_2
REMARK    2  A    between atoms: C_2  and  C_3
REMARK    3  A    between atoms: C_3  and  N_4
REMARK    4  A    between atoms: C_3  and  C_16
REMARK    5  A    between atoms: N_4  and  S_5
REMARK    6  A    between atoms: S_5  and  N_8
REMARK    7  A    between atoms: C_11  and  O_12
REMARK    8  A    between atoms: O_12  and  C_13
REMARK    9  A    between atoms: N_20  and  C_21
REMARK   10  A    between atoms: C_21  and  C_22
REMARK                            x       y       z     vdW  Elec       q    Type
REMARK                         _______ _______ _______ _____ _____    ______ ____
ROOT
ATOM      1  N   UNL     1       5.501   4.899  16.680  0.00  0.00    +0.000 NA
ATOM      2  H   UNL     1       5.294   3.934  16.414  0.00  0.00    +0.000 HD
ENDROOT
BRANCH   1   3
ATOM      3  S   UNL     1       7.017   5.204  16.031  0.00  0.00    +0.000 S 
ATOM      4  O   UNL     1       7.392   6.576  16.252  0.00  0.00    +0.000 OA
ATOM      5  O   UNL     1       7.863   4.094  16.401  0.00  0.00    +0.000 OA
BRANCH   3   6
ATOM      6  N   UNL     1       6.615   5.057  14.383  0.00  0.00    +0.000 NA
ATOM      7  C   UNL     1       7.810   4.914  13.502  0.00  0.00    +0.000 C 
ATOM      8  C   UNL     1       7.369   4.965  12.046  0.00  0.00    +0.000 C 
ATOM      9  C   UNL     1       6.449   3.784  11.752  0.00  0.00    +0.000 C 
ATOM     10  C   UNL     1       5.235   3.864  12.683  0.00  0.00    +0.000 C 
ATOM     11  C   UNL     1       5.662   3.918  14.151  0.00  0.00    +0.000 C 
BRANCH   9  12
ATOM     12  O   UNL     1       7.085   2.519  11.982  0.00  0.00    +0.000 OA
ATOM     13  C   UNL     1       6.541   1.436  11.238  0.00  0.00    +0.000 C 
ENDBRANCH   9  12
ENDBRANCH   3   6
ENDBRANCH   1   3
BRANCH   1  14
ATOM     14  C   UNL     1       5.362   5.020  18.159  0.00  0.00    +0.000 C 
BRANCH  14  15
ATOM     15  C   UNL     1       4.767   3.739  18.698  0.00  0.00    +0.000 A 
ATOM     16  N   UNL     1       5.225   3.092  19.756  0.00  0.00    +0.000 NA
ATOM     17  C   UNL     1       4.274   2.151  20.000  0.00  0.00    +0.000 A 
ATOM     18  N   UNL     1       3.279   2.112  19.118  0.00  0.00    +0.000 NA
ATOM     19  N   UNL     1       3.607   3.125  18.286  0.00  0.00    +0.000 N 
BRANCH  19  20
ATOM     20  C   UNL     1       2.699   3.439  17.204  0.00  0.00    +0.000 C 
ATOM     21  C   UNL     1       1.442   4.161  17.673  0.00  0.00    +0.000 C 
ENDBRANCH  19  20
ENDBRANCH  14  15
BRANCH  14  23
ATOM     22  C   UNL     1       3.932   7.036  17.467  0.00  0.00    +0.000 C 
ATOM     23  C   UNL     1       4.514   6.220  18.618  0.00  0.00    +0.000 C 
ENDBRANCH  14  23
ENDBRANCH   1  14
TORSDOF 7
ENDMDL
MODEL 7
REMARK VINA RESULT:      -6.0      1.586      2.304
REMARK  Name = 
REMARK  10 active torsions:
REMARK  status: ('A' for Active; 'I' for Inactive)
REMARK    1  A    between atoms: C_1  and  C_2
REMARK    2  A    between atoms: C_2  and  C_3
REMARK    3  A    between atoms: C_3  and  N_4
REMARK    4  A    between atoms: C_3  and  C_16
REMARK    5  A    between atoms: N_4  and  S_5
REMARK    6  A    between atoms: S_5  and  N_8
REMARK    7  A    between atoms: C_11  and  O_12
REMARK    8  A    between atoms: O_12  and  C_13
REMARK    9  A    between atoms: N_20  and  C_21
REMARK   10  A    between atoms: C_21  and  C_22
REMARK                            x       y       z     vdW  Elec       q    Type
REMARK                         _______ _______ _______ _____ _____    ______ ____
ROOT
ATOM      1  N   UNL     1       3.674   4.372  19.980  0.00  0.00    +0.000 NA
ATOM      2  H   UNL     1       4.180   5.197  19.648  0.00  0.00    +0.000 HD
ENDROOT
BRANCH   1   3
ATOM      3  S   UNL     1       4.426   3.078  19.225  0.00  0.00    +0.000 S 
ATOM      4  O   UNL     1       4.970   2.172  20.203  0.00  0.00    +0.000 OA
ATOM      5  O   UNL     1       3.549   2.644  18.163  0.00  0.00    +0.000 OA
BRANCH   3   6
ATOM      6  N   UNL     1       5.737   3.919  18.540  0.00  0.00    +0.000 NA
ATOM      7  C   UNL     1       5.650   4.024  17.054  0.00  0.00    +0.000 C 
ATOM      8  C   UNL     1       6.939   4.631  16.517  0.00  0.00    +0.000 C 
ATOM      9  C   UNL     1       7.098   6.049  17.060  0.00  0.00    +0.000 C 
ATOM     10  C   UNL     1       7.131   5.986  18.590  0.00  0.00    +0.000 C 
ATOM     11  C   UNL     1       5.890   5.286  19.147  0.00  0.00    +0.000 C 
BRANCH   9  12
ATOM     12  O   UNL     1       6.010   6.907  16.688  0.00  0.00    +0.000 OA
ATOM     13  C   UNL     1       5.352   6.545  15.481  0.00  0.00    +0.000 C 
ENDBRANCH   9  12
ENDBRANCH   3   6
ENDBRANCH   1   3
BRANCH   1  14
ATOM     14  C   UNL     1       2.222   4.567  19.703  0.00  0.00    +0.000 C 
BRANCH  14  15
ATOM     15  C   UNL     1       1.845   5.985  20.063  0.00  0.00    +0.000 A 
ATOM     16  N   UNL     1       1.255   6.335  21.194  0.00  0.00    +0.000 NA
ATOM     17  C   UNL     1       1.312   7.694  21.185  0.00  0.00    +0.000 A 
ATOM     18  N   UNL     1       1.833   8.229  20.084  0.00  0.00    +0.000 NA
ATOM     19  N   UNL     1       2.163   7.131  19.371  0.00  0.00    +0.000 N 
BRANCH  19  20
ATOM     20  C   UNL     1       2.834   7.318  18.102  0.00  0.00    +0.000 C 
ATOM     21  C   UNL     1       2.609   8.703  17.510  0.00  0.00    +0.000 C 
ENDBRANCH  19  20
ENDBRANCH  14  15
BRANCH  14  23
ATOM     22  C   UNL     1       1.921   2.987  21.702  0.00  0.00    +0.000 C 
ATOM     23  C   UNL     1       1.300   3.580  20.441  0.00  0.00    +0.000 C 
ENDBRANCH  14  23
ENDBRANCH   1  14
TORSDOF 7
ENDMDL
MODEL 8
REMARK VINA RESULT:      -5.9      1.806      2.415
REMARK  Name = 
REMARK  10 active torsions:
REMARK  status: ('A' for Active; 'I' for Inactive)
REMARK    1  A    between atoms: C_1  and  C_2
REMARK    2  A    between atoms: C_2  and  C_3
REMARK    3  A    between atoms: C_3  and  N_4
REMARK    4  A    between atoms: C_3  and  C_16
REMARK    5  A    between atoms: N_4  and  S_5
REMARK    6  A    between atoms: S_5  and  N_8
REMARK    7  A    between atoms: C_11  and  O_12
REMARK    8  A    between atoms: O_12  and  C_13
REMARK    9  A    between atoms: N_20  and  C_21
REMARK   10  A    between atoms: C_21  and  C_22
REMARK                            x       y       z     vdW  Elec       q    Type
REMARK                         _______ _______ _______ _____ _____    ______ ____
ROOT
ATOM      1  N   UNL     1       3.410   4.596  19.129  0.00  0.00    +0.000 NA
ATOM      2  H   UNL     1       3.446   5.443  18.557  0.00  0.00    +0.000 HD
ENDROOT
BRANCH   1   3
ATOM      3  S   UNL     1       3.545   3.334  18.034  0.00  0.00    +0.000 S 
ATOM      4  O   UNL     1       3.816   2.098  18.721  0.00  0.00    +0.000 OA
ATOM      5  O   UNL     1       2.462   3.481  17.089  0.00  0.00    +0.000 OA
BRANCH   3   6
ATOM      6  N   UNL     1       4.993   3.814  17.280  0.00  0.00    +0.000 NA
ATOM      7  C   UNL     1       4.775   4.755  16.143  0.00  0.00    +0.000 C 
ATOM      8  C   UNL     1       6.097   4.990  15.426  0.00  0.00    +0.000 C 
ATOM      9  C   UNL     1       7.082   5.659  16.380  0.00  0.00    +0.000 C 
ATOM     10  C   UNL     1       7.285   4.746  17.594  0.00  0.00    +0.000 C 
ATOM     11  C   UNL     1       5.954   4.413  18.270  0.00  0.00    +0.000 C 
BRANCH   9  12
ATOM     12  O   UNL     1       6.607   6.922  16.867  0.00  0.00    +0.000 OA
ATOM     13  C   UNL     1       7.590   7.717  17.517  0.00  0.00    +0.000 C 
ENDBRANCH   9  12
ENDBRANCH   3   6
ENDBRANCH   1   3
BRANCH   1  14
ATOM     14  C   UNL     1       2.173   4.642  19.960  0.00  0.00    +0.000 C 
BRANCH  14  15
ATOM     15  C   UNL     1       1.801   6.087  20.199  0.00  0.00    +0.000 A 
ATOM     16  N   UNL     1       1.217   6.534  21.298  0.00  0.00    +0.000 NA
ATOM     17  C   UNL     1       1.279   7.887  21.174  0.00  0.00    +0.000 A 
ATOM     18  N   UNL     1       1.798   8.325  20.030  0.00  0.00    +0.000 NA
ATOM     19  N   UNL     1       2.122   7.169  19.412  0.00  0.00    +0.000 N 
BRANCH  19  20
ATOM     20  C   UNL     1       2.789   7.245  18.130  0.00  0.00    +0.000 C 
ATOM     21  C   UNL     1       2.644   8.607  17.464  0.00  0.00    +0.000 C 
ENDBRANCH  19  20
ENDBRANCH  14  15
BRANCH  14  23
ATOM     22  C   UNL     1       1.336   2.720  21.440  0.00  0.00    +0.000 C 
ATOM     23  C   UNL     1       2.288   3.905  21.306  0.00  0.00    +0.000 C 
ENDBRANCH  14  23
ENDBRANCH   1  14
TORSDOF 7
ENDMDL
MODEL 9
REMARK VINA RESULT:      -5.9      1.988      2.633
REMARK  Name = 
REMARK  10 active torsions:
REMARK  status: ('A' for Active; 'I' for Inactive)
REMARK    1  A    between atoms: C_1  and  C_2
REMARK    2  A    between atoms: C_2  and  C_3
REMARK    3  A    between atoms: C_3  and  N_4
REMARK    4  A    between atoms: C_3  and  C_16
REMARK    5  A    between atoms: N_4  and  S_5
REMARK    6  A    between atoms: S_5  and  N_8
REMARK    7  A    between atoms: C_11  and  O_12
REMARK    8  A    between atoms: O_12  and  C_13
REMARK    9  A    between atoms: N_20  and  C_21
REMARK   10  A    between atoms: C_21  and  C_22
REMARK                            x       y       z     vdW  Elec       q    Type
REMARK                         _______ _______ _______ _____ _____    ______ ____
ROOT
ATOM      1  N   UNL     1       5.568   3.551  19.229  0.00  0.00    +0.000 NA
ATOM      2  H   UNL     1       5.521   3.694  20.241  0.00  0.00    +0.000 HD
ENDROOT
BRANCH   1   3
ATOM      3  S   UNL     1       6.436   4.864  18.652  0.00  0.00    +0.000 S 
ATOM      4  O   UNL     1       5.958   6.084  19.247  0.00  0.00    +0.000 OA
ATOM      5  O   UNL     1       7.829   4.484  18.663  0.00  0.00    +0.000 OA
BRANCH   3   6
ATOM      6  N   UNL     1       5.879   4.842  17.044  0.00  0.00    +0.000 NA
ATOM      7  C   UNL     1       5.903   6.187  16.399  0.00  0.00    +0.000 C 
ATOM      8  C   UNL     1       5.230   6.103  15.037  0.00  0.00    +0.000 C 
ATOM      9  C   UNL     1       6.021   5.159  14.136  0.00  0.00    +0.000 C 
ATOM     10  C   UNL     1       6.069   3.778  14.797  0.00  0.00    +0.000 C 
ATOM     11  C   UNL     1       6.649   3.855  16.210  0.00  0.00    +0.000 C 
BRANCH   9  12
ATOM     12  O   UNL     1       7.375   5.589  13.940  0.00  0.00    +0.000 OA
ATOM     13  C   UNL     1       7.950   5.196  12.700  0.00  0.00    +0.000 C 
ENDBRANCH   9  12
ENDBRANCH   3   6
ENDBRANCH   1   3
BRANCH   1  14
ATOM     14  C   UNL     1       4.180   3.379  18.714  0.00  0.00    +0.000 C 
BRANCH  14  15
ATOM     15  C   UNL     1       3.206   3.719  19.819  0.00  0.00    +0.000 A 
ATOM     16  N   UNL     1       2.970   2.949  20.868  0.00  0.00    +0.000 NA
ATOM     17  C   UNL     1       2.219   3.733  21.687  0.00  0.00    +0.000 A 
ATOM     18  N   UNL     1       1.901   4.925  21.189  0.00  0.00    +0.000 NA
ATOM     19  N   UNL     1       2.528   4.904  19.994  0.00  0.00    +0.000 N 
BRANCH  19  20
ATOM     20  C   UNL     1       2.463   6.091  19.168  0.00  0.00    +0.000 C 
ATOM     21  C   UNL     1       2.175   7.355  19.966  0.00  0.00    +0.000 C 
ENDBRANCH  19  20
ENDBRANCH  14  15
BRANCH  14  23
ATOM     22  C   UNL     1       2.484   1.832  17.565  0.00  0.00    +0.000 C 
ATOM     23  C   UNL     1       3.878   1.971  18.170  0.00  0.00    +0.000 C 
ENDBRANCH  14  23
ENDBRANCH   1  14
TORSDOF 7
ENDMDL
