MODEL 1
REMARK VINA RESULT:      -8.5      0.000      0.000
REMARK  Name = 
REMARK  5 active torsions:
REMARK  status: ('A' for Active; 'I' for Inactive)
REMARK    1  A    between atoms: C_1  and  C_2
REMARK    2  A    between atoms: C_6  and  N_7
REMARK    3  A    between atoms: C_11  and  C_13
REMARK    4  A    between atoms: C_13  and  C_14
REMARK    5  A    between atoms: C_23  and  C_24
REMARK                            x       y       z     vdW  Elec       q    Type
REMARK                         _______ _______ _______ _____ _____    ______ ____
ROOT
ATOM      1  N   UNL     1       4.520   5.316  18.509  0.00  0.00    +0.000 N 
ATOM      2  C   UNL     1       5.729   5.228  19.366  0.00  0.00    +0.000 C 
ATOM      3  C   UNL     1       6.983   5.446  18.509  0.00  0.00    +0.000 C 
ATOM      4  N   UNL     1       6.931   6.755  17.852  0.00  0.00    +0.000 N 
ATOM      5  C   UNL     1       7.909   7.690  18.147  0.00  0.00    +0.000 C 
ATOM      6  O   UNL     1       8.803   7.461  18.973  0.00  0.00    +0.000 OA
ATOM      7  C   UNL     1       5.717   6.957  17.046  0.00  0.00    +0.000 C 
ATOM      8  C   UNL     1       4.420   6.643  17.841  0.00  0.00    +0.000 C 
ENDROOT
BRANCH   1  14
ATOM      9  C   UNL     1       0.690   2.057  18.664  0.00  0.00    +0.000 C 
ATOM     10  C   UNL     1       1.431   3.264  19.177  0.00  0.00    +0.000 A 
ATOM     11  C   UNL     1       0.859   3.998  20.222  0.00  0.00    +0.000 A 
ATOM     12  C   UNL     1       1.492   5.131  20.709  0.00  0.00    +0.000 A 
ATOM     13  C   UNL     1       2.686   5.561  20.132  0.00  0.00    +0.000 A 
ATOM     14  C   UNL     1       3.306   4.863  19.078  0.00  0.00    +0.000 A 
ATOM     15  C   UNL     1       2.685   3.663  18.634  0.00  0.00    +0.000 A 
ATOM     16  C   UNL     1       3.343   2.774  17.605  0.00  0.00    +0.000 C 
ENDBRANCH   1  14
BRANCH   5  17
ATOM     17  C   UNL     1       7.887   9.031  17.429  0.00  0.00    +0.000 C 
BRANCH  17  18
ATOM     18  C   UNL     1       8.557  10.141  18.202  0.00  0.00    +0.000 A 
ATOM     19  C   UNL     1       8.597  11.446  17.687  0.00  0.00    +0.000 A 
ATOM     20  C   UNL     1       9.180  12.484  18.417  0.00  0.00    +0.000 A 
ATOM     21  C   UNL     1       9.727  12.222  19.671  0.00  0.00    +0.000 A 
ATOM     22 BR   UNL     1      10.498  13.626  20.672  0.00  0.00    +0.000 Br
ATOM     23  C   UNL     1       9.696  10.933  20.198  0.00  0.00    +0.000 A 
ATOM     24  C   UNL     1       9.109   9.897  19.467  0.00  0.00    +0.000 A 
ENDBRANCH  17  18
ENDBRANCH   5  17
TORSDOF 3
ENDMDL
MODEL 2
REMARK VINA RESULT:      -8.4      6.404      8.609
REMARK  Name = 
REMARK  5 active torsions:
REMARK  status: ('A' for Active; 'I' for Inactive)
REMARK    1  A    between atoms: C_1  and  C_2
REMARK    2  A    between atoms: C_6  and  N_7
REMARK    3  A    between atoms: C_11  and  C_13
REMARK    4  A    between atoms: C_13  and  C_14
REMARK    5  A    between atoms: C_23  and  C_24
REMARK                            x       y       z     vdW  Elec       q    Type
REMARK                         _______ _______ _______ _____ _____    ______ ____
ROOT
ATOM      1  N   UNL     1       2.477   7.152  18.704  0.00  0.00    +0.000 N 
ATOM      2  C   UNL     1       1.667   7.177  19.948  0.00  0.00    +0.000 C 
ATOM      3  C   UNL     1       1.697   8.587  20.553  0.00  0.00    +0.000 C 
ATOM      4  N   UNL     1       1.172   9.564  19.596  0.00  0.00    +0.000 N 
ATOM      5  C   UNL     1       0.035  10.281  19.930  0.00  0.00    +0.000 C 
ATOM      6  O   UNL     1      -0.565  10.094  20.997  0.00  0.00    +0.000 OA
ATOM      7  C   UNL     1       1.868   9.547  18.300  0.00  0.00    +0.000 C 
ATOM      8  C   UNL     1       1.958   8.119  17.696  0.00  0.00    +0.000 C 
ENDROOT
BRANCH   1  14
ATOM      9  C   UNL     1       5.518   4.095  16.112  0.00  0.00    +0.000 C 
ATOM     10  C   UNL     1       4.276   4.363  16.920  0.00  0.00    +0.000 A 
ATOM     11  C   UNL     1       3.365   3.315  17.103  0.00  0.00    +0.000 A 
ATOM     12  C   UNL     1       2.196   3.522  17.819  0.00  0.00    +0.000 A 
ATOM     13  C   UNL     1       1.909   4.787  18.329  0.00  0.00    +0.000 A 
ATOM     14  C   UNL     1       2.787   5.877  18.175  0.00  0.00    +0.000 A 
ATOM     15  C   UNL     1       4.016   5.636  17.501  0.00  0.00    +0.000 A 
ATOM     16  C   UNL     1       5.080   6.705  17.405  0.00  0.00    +0.000 C 
ENDBRANCH   1  14
BRANCH   5  17
ATOM     17  C   UNL     1      -0.484  11.332  18.961  0.00  0.00    +0.000 C 
BRANCH  17  18
ATOM     18  C   UNL     1      -1.985  11.315  18.797  0.00  0.00    +0.000 A 
ATOM     19  C   UNL     1      -2.792  12.209  19.518  0.00  0.00    +0.000 A 
ATOM     20  C   UNL     1      -4.177  12.223  19.340  0.00  0.00    +0.000 A 
ATOM     21  C   UNL     1      -4.764  11.342  18.434  0.00  0.00    +0.000 A 
ATOM     22 BR   UNL     1      -6.635  11.372  18.173  0.00  0.00    +0.000 Br
ATOM     23  C   UNL     1      -3.979  10.449  17.710  0.00  0.00    +0.000 A 
ATOM     24  C   UNL     1      -2.593  10.438  17.888  0.00  0.00    +0.000 A 
ENDBRANCH  17  18
ENDBRANCH   5  17
TORSDOF 3
ENDMDL
MODEL 3
REMARK VINA RESULT:      -8.1      6.484      8.596
REMARK  Name = 
REMARK  5 active torsions:
REMARK  status: ('A' for Active; 'I' for Inactive)
REMARK    1  A    between atoms: C_1  and  C_2
REMARK    2  A    between atoms: C_6  and  N_7
REMARK    3  A    between atoms: C_11  and  C_13
REMARK    4  A    between atoms: C_13  and  C_14
REMARK    5  A    between atoms: C_23  and  C_24
REMARK                            x       y       z     vdW  Elec       q    Type
REMARK                         _______ _______ _______ _____ _____    ______ ____
ROOT
ATOM      1  N   UNL     1       2.537   7.365  18.673  0.00  0.00    +0.000 N 
ATOM      2  C   UNL     1       1.716   7.415  19.909  0.00  0.00    +0.000 C 
ATOM      3  C   UNL     1       1.743   8.836  20.487  0.00  0.00    +0.000 C 
ATOM      4  N   UNL     1       1.226   9.795  19.506  0.00  0.00    +0.000 N 
ATOM      5  C   UNL     1       0.087  10.519  19.815  0.00  0.00    +0.000 C 
ATOM      6  O   UNL     1      -0.522  10.354  20.881  0.00  0.00    +0.000 OA
ATOM      7  C   UNL     1       1.934   9.752  18.216  0.00  0.00    +0.000 C 
ATOM      8  C   UNL     1       2.028   8.312  17.642  0.00  0.00    +0.000 C 
ENDROOT
BRANCH   1  14
ATOM      9  C   UNL     1       5.578   4.263  16.135  0.00  0.00    +0.000 C 
ATOM     10  C   UNL     1       4.339   4.543  16.944  0.00  0.00    +0.000 A 
ATOM     11  C   UNL     1       3.435   3.496  17.157  0.00  0.00    +0.000 A 
ATOM     12  C   UNL     1       2.270   3.713  17.875  0.00  0.00    +0.000 A 
ATOM     13  C   UNL     1       1.978   4.989  18.357  0.00  0.00    +0.000 A 
ATOM     14  C   UNL     1       2.850   6.080  18.172  0.00  0.00    +0.000 A 
ATOM     15  C   UNL     1       4.076   5.829  17.497  0.00  0.00    +0.000 A 
ATOM     16  C   UNL     1       5.134   6.900  17.370  0.00  0.00    +0.000 C 
ENDBRANCH   1  14
BRANCH   5  17
ATOM     17  C   UNL     1      -0.423  11.551  18.821  0.00  0.00    +0.000 C 
BRANCH  17  18
ATOM     18  C   UNL     1      -1.928  11.597  18.715  0.00  0.00    +0.000 A 
ATOM     19  C   UNL     1      -2.601  10.809  17.769  0.00  0.00    +0.000 A 
ATOM     20  C   UNL     1      -3.995  10.817  17.695  0.00  0.00    +0.000 A 
ATOM     21  C   UNL     1      -4.727  11.616  18.572  0.00  0.00    +0.000 A 
ATOM     22 BR   UNL     1      -6.614  11.615  18.489  0.00  0.00    +0.000 Br
ATOM     23  C   UNL     1      -4.076  12.404  19.517  0.00  0.00    +0.000 A 
ATOM     24  C   UNL     1      -2.681  12.391  19.591  0.00  0.00    +0.000 A 
ENDBRANCH  17  18
ENDBRANCH   5  17
TORSDOF 3
ENDMDL
MODEL 4
REMARK VINA RESULT:      -8.0      5.990      8.005
REMARK  Name = 
REMARK  5 active torsions:
REMARK  status: ('A' for Active; 'I' for Inactive)
REMARK    1  A    between atoms: C_1  and  C_2
REMARK    2  A    between atoms: C_6  and  N_7
REMARK    3  A    between atoms: C_11  and  C_13
REMARK    4  A    between atoms: C_13  and  C_14
REMARK    5  A    between atoms: C_23  and  C_24
REMARK                            x       y       z     vdW  Elec       q    Type
REMARK                         _______ _______ _______ _____ _____    ______ ____
ROOT
ATOM      1  N   UNL     1       2.350   7.243  18.375  0.00  0.00    +0.000 N 
ATOM      2  C   UNL     1       2.426   8.518  17.620  0.00  0.00    +0.000 C 
ATOM      3  C   UNL     1       1.157   9.344  17.875  0.00  0.00    +0.000 C 
ATOM      4  N   UNL     1       1.008   9.620  19.306  0.00  0.00    +0.000 N 
ATOM      5  C   UNL     1       1.022  10.936  19.738  0.00  0.00    +0.000 C 
ATOM      6  O   UNL     1       1.190  11.878  18.953  0.00  0.00    +0.000 OA
ATOM      7  C   UNL     1       1.008   8.407  20.140  0.00  0.00    +0.000 C 
ATOM      8  C   UNL     1       2.220   7.483  19.839  0.00  0.00    +0.000 C 
ENDROOT
BRANCH   1  14
ATOM      9  C   UNL     1       3.595   2.415  17.701  0.00  0.00    +0.000 C 
ATOM     10  C   UNL     1       3.917   3.886  17.684  0.00  0.00    +0.000 A 
ATOM     11  C   UNL     1       5.226   4.276  17.375  0.00  0.00    +0.000 A 
ATOM     12  C   UNL     1       5.574   5.617  17.373  0.00  0.00    +0.000 A 
ATOM     13  C   UNL     1       4.626   6.582  17.714  0.00  0.00    +0.000 A 
ATOM     14  C   UNL     1       3.296   6.248  18.035  0.00  0.00    +0.000 A 
ATOM     15  C   UNL     1       2.931   4.875  17.964  0.00  0.00    +0.000 A 
ATOM     16  C   UNL     1       1.499   4.434  18.157  0.00  0.00    +0.000 C 
ENDBRANCH   1  14
BRANCH   5  17
ATOM     17  C   UNL     1       0.816  11.228  21.216  0.00  0.00    +0.000 C 
BRANCH  17  18
ATOM     18  C   UNL     1      -0.592  11.653  21.558  0.00  0.00    +0.000 A 
ATOM     19  C   UNL     1      -1.079  11.522  22.868  0.00  0.00    +0.000 A 
ATOM     20  C   UNL     1      -2.366  11.951  23.197  0.00  0.00    +0.000 A 
ATOM     21  C   UNL     1      -3.176  12.517  22.214  0.00  0.00    +0.000 A 
ATOM     22 BR   UNL     1      -4.911  13.118  22.658  0.00  0.00    +0.000 Br
ATOM     23  C   UNL     1      -2.709  12.655  20.910  0.00  0.00    +0.000 A 
ATOM     24  C   UNL     1      -1.419  12.228  20.584  0.00  0.00    +0.000 A 
ENDBRANCH  17  18
ENDBRANCH   5  17
TORSDOF 3
ENDMDL
MODEL 5
REMARK VINA RESULT:      -7.7      0.644      1.966
REMARK  Name = 
REMARK  5 active torsions:
REMARK  status: ('A' for Active; 'I' for Inactive)
REMARK    1  A    between atoms: C_1  and  C_2
REMARK    2  A    between atoms: C_6  and  N_7
REMARK    3  A    between atoms: C_11  and  C_13
REMARK    4  A    between atoms: C_13  and  C_14
REMARK    5  A    between atoms: C_23  and  C_24
REMARK                            x       y       z     vdW  Elec       q    Type
REMARK                         _______ _______ _______ _____ _____    ______ ____
ROOT
ATOM      1  N   UNL     1       5.114   4.742  17.777  0.00  0.00    +0.000 N 
ATOM      2  C   UNL     1       6.178   4.815  18.808  0.00  0.00    +0.000 C 
ATOM      3  C   UNL     1       7.468   5.359  18.179  0.00  0.00    +0.000 C 
ATOM      4  N   UNL     1       7.236   6.688  17.606  0.00  0.00    +0.000 N 
ATOM      5  C   UNL     1       7.942   7.766  18.112  0.00  0.00    +0.000 C 
ATOM      6  O   UNL     1       8.736   7.642  19.053  0.00  0.00    +0.000 OA
ATOM      7  C   UNL     1       6.135   6.720  16.630  0.00  0.00    +0.000 C 
ATOM      8  C   UNL     1       4.833   6.080  17.186  0.00  0.00    +0.000 C 
ENDROOT
BRANCH   1  14
ATOM      9  C   UNL     1       0.937   4.138  20.516  0.00  0.00    +0.000 C 
ATOM     10  C   UNL     1       1.895   3.704  19.438  0.00  0.00    +0.000 A 
ATOM     11  C   UNL     1       1.654   2.488  18.787  0.00  0.00    +0.000 A 
ATOM     12  C   UNL     1       2.522   2.035  17.807  0.00  0.00    +0.000 A 
ATOM     13  C   UNL     1       3.661   2.776  17.491  0.00  0.00    +0.000 A 
ATOM     14  C   UNL     1       3.955   4.005  18.114  0.00  0.00    +0.000 A 
ATOM     15  C   UNL     1       3.020   4.494  19.067  0.00  0.00    +0.000 A 
ATOM     16  C   UNL     1       3.177   5.863  19.687  0.00  0.00    +0.000 C 
ENDBRANCH   1  14
BRANCH   5  17
ATOM     17  C   UNL     1       7.741   9.137  17.485  0.00  0.00    +0.000 C 
BRANCH  17  18
ATOM     18  C   UNL     1       8.491  10.240  18.192  0.00  0.00    +0.000 A 
ATOM     19  C   UNL     1       9.202   9.977  19.374  0.00  0.00    +0.000 A 
ATOM     20  C   UNL     1       9.930  10.985  20.008  0.00  0.00    +0.000 A 
ATOM     21  C   UNL     1       9.954  12.267  19.461  0.00  0.00    +0.000 A 
ATOM     22 BR   UNL     1      10.955  13.629  20.304  0.00  0.00    +0.000 Br
ATOM     23  C   UNL     1       9.256  12.545  18.289  0.00  0.00    +0.000 A 
ATOM     24  C   UNL     1       8.530  11.535  17.655  0.00  0.00    +0.000 A 
ENDBRANCH  17  18
ENDBRANCH   5  17
TORSDOF 3
ENDMDL
MODEL 6
REMARK VINA RESULT:      -7.7      0.620      1.687
REMARK  Name = 
REMARK  5 active torsions:
REMARK  status: ('A' for Active; 'I' for Inactive)
REMARK    1  A    between atoms: C_1  and  C_2
REMARK    2  A    between atoms: C_6  and  N_7
REMARK    3  A    between atoms: C_11  and  C_13
REMARK    4  A    between atoms: C_13  and  C_14
REMARK    5  A    between atoms: C_23  and  C_24
REMARK                            x       y       z     vdW  Elec       q    Type
REMARK                         _______ _______ _______ _____ _____    ______ ____
ROOT
ATOM      1  N   UNL     1       5.075   4.732  17.769  0.00  0.00    +0.000 N 
ATOM      2  C   UNL     1       6.110   4.802  18.831  0.00  0.00    +0.000 C 
ATOM      3  C   UNL     1       7.433   5.297  18.229  0.00  0.00    +0.000 C 
ATOM      4  N   UNL     1       7.253   6.618  17.620  0.00  0.00    +0.000 N 
ATOM      5  C   UNL     1       7.972   7.689  18.123  0.00  0.00    +0.000 C 
ATOM      6  O   UNL     1       8.734   7.566  19.091  0.00  0.00    +0.000 OA
ATOM      7  C   UNL     1       6.183   6.657  16.610  0.00  0.00    +0.000 C 
ATOM      8  C   UNL     1       4.848   6.063  17.140  0.00  0.00    +0.000 C 
ENDROOT
BRANCH   1  14
ATOM      9  C   UNL     1       0.846   4.256  20.451  0.00  0.00    +0.000 C 
ATOM     10  C   UNL     1       1.802   3.795  19.383  0.00  0.00    +0.000 A 
ATOM     11  C   UNL     1       1.528   2.592  18.721  0.00  0.00    +0.000 A 
ATOM     12  C   UNL     1       2.393   2.116  17.748  0.00  0.00    +0.000 A 
ATOM     13  C   UNL     1       3.560   2.820  17.452  0.00  0.00    +0.000 A 
ATOM     14  C   UNL     1       3.888   4.034  18.087  0.00  0.00    +0.000 A 
ATOM     15  C   UNL     1       2.958   4.549  19.031  0.00  0.00    +0.000 A 
ATOM     16  C   UNL     1       3.154   5.908  19.662  0.00  0.00    +0.000 C 
ENDBRANCH   1  14
BRANCH   5  17
ATOM     17  C   UNL     1       7.826   9.051  17.461  0.00  0.00    +0.000 C 
BRANCH  17  18
ATOM     18  C   UNL     1       8.511  10.165  18.214  0.00  0.00    +0.000 A 
ATOM     19  C   UNL     1       8.483  11.480  17.725  0.00  0.00    +0.000 A 
ATOM     20  C   UNL     1       9.081  12.521  18.439  0.00  0.00    +0.000 A 
ATOM     21  C   UNL     1       9.710  12.251  19.652  0.00  0.00    +0.000 A 
ATOM     22 BR   UNL     1      10.502  13.658  20.632  0.00  0.00    +0.000 Br
ATOM     23  C   UNL     1       9.747  10.952  20.153  0.00  0.00    +0.000 A 
ATOM     24  C   UNL     1       9.146   9.914  19.438  0.00  0.00    +0.000 A 
ENDBRANCH  17  18
ENDBRANCH   5  17
TORSDOF 3
ENDMDL
MODEL 7
REMARK VINA RESULT:      -7.6      5.552      6.826
REMARK  Name = 
REMARK  5 active torsions:
REMARK  status: ('A' for Active; 'I' for Inactive)
REMARK    1  A    between atoms: C_1  and  C_2
REMARK    2  A    between atoms: C_6  and  N_7
REMARK    3  A    between atoms: C_11  and  C_13
REMARK    4  A    between atoms: C_13  and  C_14
REMARK    5  A    between atoms: C_23  and  C_24
REMARK                            x       y       z     vdW  Elec       q    Type
REMARK                         _______ _______ _______ _____ _____    ______ ____
ROOT
ATOM      1  N   UNL     1       2.514   6.966  18.759  0.00  0.00    +0.000 N 
ATOM      2  C   UNL     1       1.833   6.892  20.077  0.00  0.00    +0.000 C 
ATOM      3  C   UNL     1       1.804   8.285  20.720  0.00  0.00    +0.000 C 
ATOM      4  N   UNL     1       1.105   9.234  19.849  0.00  0.00    +0.000 N 
ATOM      5  C   UNL     1      -0.050   9.841  20.314  0.00  0.00    +0.000 C 
ATOM      6  O   UNL     1      -0.523   9.579  21.428  0.00  0.00    +0.000 OA
ATOM      7  C   UNL     1       1.667   9.307  18.491  0.00  0.00    +0.000 C 
ATOM      8  C   UNL     1       1.818   7.906  17.838  0.00  0.00    +0.000 C 
ENDROOT
BRANCH   1  14
ATOM      9  C   UNL     1       5.673   4.183  16.005  0.00  0.00    +0.000 C 
ATOM     10  C   UNL     1       4.424   4.354  16.829  0.00  0.00    +0.000 A 
ATOM     11  C   UNL     1       3.559   3.260  16.958  0.00  0.00    +0.000 A 
ATOM     12  C   UNL     1       2.386   3.378  17.686  0.00  0.00    +0.000 A 
ATOM     13  C   UNL     1       2.046   4.602  18.262  0.00  0.00    +0.000 A 
ATOM     14  C   UNL     1       2.876   5.735  18.164  0.00  0.00    +0.000 A 
ATOM     15  C   UNL     1       4.112   5.583  17.476  0.00  0.00    +0.000 A 
ATOM     16  C   UNL     1       5.128   6.700  17.435  0.00  0.00    +0.000 C 
ENDBRANCH   1  14
BRANCH   5  17
ATOM     17  C   UNL     1      -0.750  10.865  19.433  0.00  0.00    +0.000 C 
BRANCH  17  18
ATOM     18  C   UNL     1      -0.188  12.260  19.565  0.00  0.00    +0.000 A 
ATOM     19  C   UNL     1       0.711  12.573  20.596  0.00  0.00    +0.000 A 
ATOM     20  C   UNL     1       1.264  13.852  20.697  0.00  0.00    +0.000 A 
ATOM     21  C   UNL     1       0.921  14.826  19.762  0.00  0.00    +0.000 A 
ATOM     22 BR   UNL     1       1.682  16.551  19.883  0.00  0.00    +0.000 Br
ATOM     23  C   UNL     1       0.031  14.533  18.733  0.00  0.00    +0.000 A 
ATOM     24  C   UNL     1      -0.519  13.253  18.632  0.00  0.00    +0.000 A 
ENDBRANCH  17  18
ENDBRANCH   5  17
TORSDOF 3
ENDMDL
MODEL 8
REMARK VINA RESULT:      -7.6      3.248      5.063
REMARK  Name = 
REMARK  5 active torsions:
REMARK  status: ('A' for Active; 'I' for Inactive)
REMARK    1  A    between atoms: C_1  and  C_2
REMARK    2  A    between atoms: C_6  and  N_7
REMARK    3  A    between atoms: C_11  and  C_13
REMARK    4  A    between atoms: C_13  and  C_14
REMARK    5  A    between atoms: C_23  and  C_24
REMARK                            x       y       z     vdW  Elec       q    Type
REMARK                         _______ _______ _______ _____ _____    ______ ____
ROOT
ATOM      1  N   UNL     1       2.048   7.004  19.530  0.00  0.00    +0.000 N 
ATOM      2  C   UNL     1       2.444   5.880  20.415  0.00  0.00    +0.000 C 
ATOM      3  C   UNL     1       2.717   4.629  19.567  0.00  0.00    +0.000 C 
ATOM      4  N   UNL     1       3.779   4.896  18.592  0.00  0.00    +0.000 N 
ATOM      5  C   UNL     1       4.951   4.161  18.664  0.00  0.00    +0.000 C 
ATOM      6  O   UNL     1       5.136   3.312  19.546  0.00  0.00    +0.000 OA
ATOM      7  C   UNL     1       3.502   6.053  17.726  0.00  0.00    +0.000 C 
ATOM      8  C   UNL     1       3.113   7.319  18.538  0.00  0.00    +0.000 C 
ENDROOT
BRANCH   1  14
ATOM      9  C   UNL     1       0.267  11.705  19.331  0.00  0.00    +0.000 C 
ATOM     10  C   UNL     1       0.600  10.439  20.076  0.00  0.00    +0.000 A 
ATOM     11  C   UNL     1       0.404  10.414  21.463  0.00  0.00    +0.000 A 
ATOM     12  C   UNL     1       0.720   9.280  22.193  0.00  0.00    +0.000 A 
ATOM     13  C   UNL     1       1.270   8.171  21.551  0.00  0.00    +0.000 A 
ATOM     14  C   UNL     1       1.491   8.140  20.161  0.00  0.00    +0.000 A 
ATOM     15  C   UNL     1       1.096   9.282  19.411  0.00  0.00    +0.000 A 
ATOM     16  C   UNL     1       1.167   9.291  17.902  0.00  0.00    +0.000 C 
ENDBRANCH   1  14
BRANCH   5  17
ATOM     17  C   UNL     1       6.034   4.399  17.623  0.00  0.00    +0.000 C 
BRANCH  17  18
ATOM     18  C   UNL     1       6.797   5.685  17.828  0.00  0.00    +0.000 A 
ATOM     19  C   UNL     1       6.587   6.783  16.980  0.00  0.00    +0.000 A 
ATOM     20  C   UNL     1       7.261   7.988  17.191  0.00  0.00    +0.000 A 
ATOM     21  C   UNL     1       8.151   8.102  18.257  0.00  0.00    +0.000 A 
ATOM     22 BR   UNL     1       9.049   9.736  18.560  0.00  0.00    +0.000 Br
ATOM     23  C   UNL     1       8.371   7.023  19.109  0.00  0.00    +0.000 A 
ATOM     24  C   UNL     1       7.693   5.820  18.897  0.00  0.00    +0.000 A 
ENDBRANCH  17  18
ENDBRANCH   5  17
TORSDOF 3
ENDMDL
MODEL 9
REMARK VINA RESULT:      -7.6      5.616      6.751
REMARK  Name = 
REMARK  5 active torsions:
REMARK  status: ('A' for Active; 'I' for Inactive)
REMARK    1  A    between atoms: C_1  and  C_2
REMARK    2  A    between atoms: C_6  and  N_7
REMARK    3  A    between atoms: C_11  and  C_13
REMARK    4  A    between atoms: C_13  and  C_14
REMARK    5  A    between atoms: C_23  and  C_24
REMARK                            x       y       z     vdW  Elec       q    Type
REMARK                         _______ _______ _______ _____ _____    ______ ____
ROOT
ATOM      1  N   UNL     1       2.511   7.025  18.681  0.00  0.00    +0.000 N 
ATOM      2  C   UNL     1       1.769   6.983  19.966  0.00  0.00    +0.000 C 
ATOM      3  C   UNL     1       1.763   8.379  20.603  0.00  0.00    +0.000 C 
ATOM      4  N   UNL     1       1.140   9.350  19.699  0.00  0.00    +0.000 N 
ATOM      5  C   UNL     1      -0.011  10.001  20.109  0.00  0.00    +0.000 C 
ATOM      6  O   UNL     1      -0.543   9.762  21.202  0.00  0.00    +0.000 OA
ATOM      7  C   UNL     1       1.765   9.395  18.367  0.00  0.00    +0.000 C 
ATOM      8  C   UNL     1       1.892   7.986  17.726  0.00  0.00    +0.000 C 
ENDROOT
BRANCH   1  14
ATOM      9  C   UNL     1       5.639   4.139  15.999  0.00  0.00    +0.000 C 
ATOM     10  C   UNL     1       4.385   4.347  16.807  0.00  0.00    +0.000 A 
ATOM     11  C   UNL     1       3.497   3.274  16.941  0.00  0.00    +0.000 A 
ATOM     12  C   UNL     1       2.319   3.426  17.655  0.00  0.00    +0.000 A 
ATOM     13  C   UNL     1       1.999   4.665  18.211  0.00  0.00    +0.000 A 
ATOM     14  C   UNL     1       2.853   5.779  18.106  0.00  0.00    +0.000 A 
ATOM     15  C   UNL     1       4.092   5.591  17.434  0.00  0.00    +0.000 A 
ATOM     16  C   UNL     1       5.133   6.686  17.388  0.00  0.00    +0.000 C 
ENDBRANCH   1  14
BRANCH   5  17
ATOM     17  C   UNL     1      -0.632  11.046  19.194  0.00  0.00    +0.000 C 
BRANCH  17  18
ATOM     18  C   UNL     1      -0.061  12.430  19.383  0.00  0.00    +0.000 A 
ATOM     19  C   UNL     1      -0.485  13.494  18.572  0.00  0.00    +0.000 A 
ATOM     20  C   UNL     1       0.011  14.785  18.770  0.00  0.00    +0.000 A 
ATOM     21  C   UNL     1       0.936  15.019  19.785  0.00  0.00    +0.000 A 
ATOM     22 BR   UNL     1       1.594  16.767  20.070  0.00  0.00    +0.000 Br
ATOM     23  C   UNL     1       1.368  13.975  20.599  0.00  0.00    +0.000 A 
ATOM     24  C   UNL     1       0.868  12.686  20.401  0.00  0.00    +0.000 A 
ENDBRANCH  17  18
ENDBRANCH   5  17
TORSDOF 3
ENDMDL
