MODEL 1
REMARK VINA RESULT:      -7.9      0.000      0.000
REMARK  Name = 
REMARK  13 active torsions:
REMARK  status: ('A' for Active; 'I' for Inactive)
REMARK    1  A    between atoms: CD1_1  and  CG_2
REMARK    2  A    between atoms: CG_2  and  CD2_3
REMARK    3  A    between atoms: CG_2  and  CB_4
REMARK    4  A    between atoms: CB_4  and  CA_5
REMARK    5  A    between atoms: CA_5  and  N_6
REMARK    6  A    between atoms: CA_5  and  C_17
REMARK    7  A    between atoms: C_7  and  O_9
REMARK    8  A    between atoms: O_9  and  C_10
REMARK    9  A    between atoms: C_10  and  C_11
REMARK   10  A    between atoms: N_19  and  CA_20
REMARK   11  A    between atoms: CA_20  and  C_21
REMARK   12  A    between atoms: CA_20  and  CB_23
REMARK   13  A    between atoms: CB_23  and  CG_24
REMARK                            x       y       z     vdW  Elec       q    Type
REMARK                         _______ _______ _______ _____ _____    ______ ____
ROOT
ATOM      1  CA  LEU A   1       2.707   5.753  19.793  0.00  0.00    +0.000 C 
ENDROOT
BRANCH   1   2
ATOM      2  N   LEU A   1       4.171   5.732  19.808  0.00  0.00    +0.000 N 
ATOM      3  C   UNK A   0       4.900   4.635  19.455  0.00  0.00    +0.000 C 
ATOM      4  O   UNK A   0       4.418   3.592  19.037  0.00  0.00    +0.000 OA
ATOM      5  H   LEU A   1       4.666   6.528  20.190  0.00  0.00    +0.000 HD
BRANCH   3   6
ATOM      6  O   UNK A   0       6.218   4.861  19.677  0.00  0.00    +0.000 OA
BRANCH   6   7
ATOM      7  C   UNK A   0       6.851   5.820  18.811  0.00  0.00    +0.000 C 
BRANCH   7   8
ATOM      8  C   UNK A   0       6.537   5.522  17.365  0.00  0.00    +0.000 A 
ATOM      9  C   UNK A   0       5.630   6.313  16.646  0.00  0.00    +0.000 A 
ATOM     10  C   UNK A   0       5.348   6.036  15.306  0.00  0.00    +0.000 A 
ATOM     11  C   UNK A   0       5.982   4.974  14.663  0.00  0.00    +0.000 A 
ATOM     12  C   UNK A   0       6.895   4.187  15.362  0.00  0.00    +0.000 A 
ATOM     13  C   UNK A   0       7.175   4.460  16.701  0.00  0.00    +0.000 A 
ENDBRANCH   7   8
ENDBRANCH   6   7
ENDBRANCH   3   6
ENDBRANCH   1   2
BRANCH   1  14
ATOM     14  C   LEU A   1       2.235   7.229  19.823  0.00  0.00    +0.000 C 
ATOM     15  O   LEU A   1       2.322   7.968  18.841  0.00  0.00    +0.000 OA
ATOM     16  N   HIS A   2       1.718   7.666  21.025  0.00  0.00    +0.000 N 
ATOM     17  H   HIS A   2       1.736   7.061  21.838  0.00  0.00    +0.000 HD
BRANCH  16  18
ATOM     18  CA  HIS A   2       1.173   9.013  21.204  0.00  0.00    +0.000 C 
BRANCH  18  19
ATOM     19  C   HIS A   2       1.026   9.320  22.687  0.00  0.00    +0.000 C 
ATOM     20  O   HIS A   2       0.235  10.136  23.155  0.00  0.00    +0.000 OA
ENDBRANCH  18  19
BRANCH  18  21
ATOM     21  CB  HIS A   2      -0.212   9.207  20.573  0.00  0.00    +0.000 C 
BRANCH  21  22
ATOM     22  CG  HIS A   2      -0.261  10.344  19.619  0.00  0.00    +0.000 A 
ATOM     23  CD2 HIS A   2       0.761  11.138  19.145  0.00  0.00    +0.000 A 
ATOM     24  NE2 HIS A   2       0.163  12.013  18.280  0.00  0.00    +0.000 N 
ATOM     25  CE1 HIS A   2      -1.174  11.734  18.272  0.00  0.00    +0.000 A 
ATOM     26  ND1 HIS A   2      -1.461  10.732  19.071  0.00  0.00    +0.000 NA
ATOM     27  HE2 HIS A   2       0.620  12.734  17.739  0.00  0.00    +0.000 HD
ENDBRANCH  21  22
ENDBRANCH  18  21
ENDBRANCH  16  18
ENDBRANCH   1  14
BRANCH   1  28
ATOM     28  CB  LEU A   1       2.166   4.939  20.988  0.00  0.00    +0.000 C 
BRANCH  28  30
ATOM     29  CD1 LEU A   1       1.078   3.510  19.168  0.00  0.00    +0.000 C 
ATOM     30  CG  LEU A   1       1.119   3.859  20.656  0.00  0.00    +0.000 C 
ATOM     31  CD2 LEU A   1       1.387   2.584  21.462  0.00  0.00    +0.000 C 
ENDBRANCH  28  30
ENDBRANCH   1  28
TORSDOF 11
ENDMDL
MODEL 2
REMARK VINA RESULT:      -7.6      2.455      7.261
REMARK  Name = 
REMARK  13 active torsions:
REMARK  status: ('A' for Active; 'I' for Inactive)
REMARK    1  A    between atoms: CD1_1  and  CG_2
REMARK    2  A    between atoms: CG_2  and  CD2_3
REMARK    3  A    between atoms: CG_2  and  CB_4
REMARK    4  A    between atoms: CB_4  and  CA_5
REMARK    5  A    between atoms: CA_5  and  N_6
REMARK    6  A    between atoms: CA_5  and  C_17
REMARK    7  A    between atoms: C_7  and  O_9
REMARK    8  A    between atoms: O_9  and  C_10
REMARK    9  A    between atoms: C_10  and  C_11
REMARK   10  A    between atoms: N_19  and  CA_20
REMARK   11  A    between atoms: CA_20  and  C_21
REMARK   12  A    between atoms: CA_20  and  CB_23
REMARK   13  A    between atoms: CB_23  and  CG_24
REMARK                            x       y       z     vdW  Elec       q    Type
REMARK                         _______ _______ _______ _____ _____    ______ ____
ROOT
ATOM      1  CA  LEU A   1       3.245   4.949  19.039  0.00  0.00    +0.000 C 
ENDROOT
BRANCH   1   2
ATOM      2  N   LEU A   1       3.271   6.347  18.604  0.00  0.00    +0.000 N 
ATOM      3  C   UNK A   0       2.552   7.328  19.221  0.00  0.00    +0.000 C 
ATOM      4  O   UNK A   0       1.872   7.158  20.222  0.00  0.00    +0.000 OA
ATOM      5  H   LEU A   1       3.762   6.583  17.751  0.00  0.00    +0.000 HD
BRANCH   3   6
ATOM      6  O   UNK A   0       2.673   8.493  18.538  0.00  0.00    +0.000 OA
BRANCH   6   7
ATOM      7  C   UNK A   0       1.594   8.818  17.644  0.00  0.00    +0.000 C 
BRANCH   7   8
ATOM      8  C   UNK A   0       0.640   9.792  18.291  0.00  0.00    +0.000 A 
ATOM      9  C   UNK A   0       1.074  10.663  19.301  0.00  0.00    +0.000 A 
ATOM     10  C   UNK A   0       0.188  11.566  19.892  0.00  0.00    +0.000 A 
ATOM     11  C   UNK A   0      -1.139  11.622  19.469  0.00  0.00    +0.000 A 
ATOM     12  C   UNK A   0      -1.580  10.772  18.457  0.00  0.00    +0.000 A 
ATOM     13  C   UNK A   0      -0.698   9.867  17.869  0.00  0.00    +0.000 A 
ENDBRANCH   7   8
ENDBRANCH   6   7
ENDBRANCH   3   6
ENDBRANCH   1   2
BRANCH   1  14
ATOM     14  C   LEU A   1       4.706   4.443  19.162  0.00  0.00    +0.000 C 
ATOM     15  O   LEU A   1       4.980   3.317  19.577  0.00  0.00    +0.000 OA
ATOM     16  N   HIS A   2       5.682   5.343  18.785  0.00  0.00    +0.000 N 
ATOM     17  H   HIS A   2       5.430   6.291  18.527  0.00  0.00    +0.000 HD
BRANCH  16  18
ATOM     18  CA  HIS A   2       7.106   5.005  18.782  0.00  0.00    +0.000 C 
BRANCH  18  19
ATOM     19  C   HIS A   2       7.927   6.213  19.207  0.00  0.00    +0.000 C 
ATOM     20  O   HIS A   2       8.148   7.191  18.495  0.00  0.00    +0.000 OA
ENDBRANCH  18  19
BRANCH  18  21
ATOM     21  CB  HIS A   2       7.634   4.571  17.409  0.00  0.00    +0.000 C 
BRANCH  21  22
ATOM     22  CG  HIS A   2       6.641   4.759  16.320  0.00  0.00    +0.000 A 
ATOM     23  CD2 HIS A   2       6.030   3.820  15.516  0.00  0.00    +0.000 A 
ATOM     24  NE2 HIS A   2       5.194   4.536  14.704  0.00  0.00    +0.000 N 
ATOM     25  CE1 HIS A   2       5.335   5.855  15.026  0.00  0.00    +0.000 A 
ATOM     26  ND1 HIS A   2       6.202   6.022  15.998  0.00  0.00    +0.000 NA
ATOM     27  HE2 HIS A   2       4.577   4.163  13.995  0.00  0.00    +0.000 HD
ENDBRANCH  21  22
ENDBRANCH  18  21
ENDBRANCH  16  18
ENDBRANCH   1  14
BRANCH   1  28
ATOM     28  CB  LEU A   1       2.416   4.112  18.042  0.00  0.00    +0.000 C 
BRANCH  28  30
ATOM     29  CD1 LEU A   1       1.787   1.756  18.813  0.00  0.00    +0.000 C 
ATOM     30  CG  LEU A   1       1.330   3.207  18.654  0.00  0.00    +0.000 C 
ATOM     31  CD2 LEU A   1       0.887   3.745  20.019  0.00  0.00    +0.000 C 
ENDBRANCH  28  30
ENDBRANCH   1  28
TORSDOF 11
ENDMDL
MODEL 3
REMARK VINA RESULT:      -7.5      2.424      7.703
REMARK  Name = 
REMARK  13 active torsions:
REMARK  status: ('A' for Active; 'I' for Inactive)
REMARK    1  A    between atoms: CD1_1  and  CG_2
REMARK    2  A    between atoms: CG_2  and  CD2_3
REMARK    3  A    between atoms: CG_2  and  CB_4
REMARK    4  A    between atoms: CB_4  and  CA_5
REMARK    5  A    between atoms: CA_5  and  N_6
REMARK    6  A    between atoms: CA_5  and  C_17
REMARK    7  A    between atoms: C_7  and  O_9
REMARK    8  A    between atoms: O_9  and  C_10
REMARK    9  A    between atoms: C_10  and  C_11
REMARK   10  A    between atoms: N_19  and  CA_20
REMARK   11  A    between atoms: CA_20  and  C_21
REMARK   12  A    between atoms: CA_20  and  CB_23
REMARK   13  A    between atoms: CB_23  and  CG_24
REMARK                            x       y       z     vdW  Elec       q    Type
REMARK                         _______ _______ _______ _____ _____    ______ ____
ROOT
ATOM      1  CA  LEU A   1       2.760   5.384  18.680  0.00  0.00    +0.000 C 
ENDROOT
BRANCH   1   2
ATOM      2  N   LEU A   1       2.555   6.655  17.981  0.00  0.00    +0.000 N 
ATOM      3  C   UNK A   0       2.143   7.790  18.613  0.00  0.00    +0.000 C 
ATOM      4  O   UNK A   0       1.965   7.882  19.819  0.00  0.00    +0.000 OA
ATOM      5  H   LEU A   1       2.624   6.671  16.971  0.00  0.00    +0.000 HD
BRANCH   3   6
ATOM      6  O   UNK A   0       1.924   8.774  17.707  0.00  0.00    +0.000 OA
BRANCH   6   7
ATOM      7  C   UNK A   0       1.807  10.107  18.234  0.00  0.00    +0.000 C 
BRANCH   7   8
ATOM      8  C   UNK A   0       0.362  10.445  18.513  0.00  0.00    +0.000 A 
ATOM      9  C   UNK A   0       0.013  11.314  19.557  0.00  0.00    +0.000 A 
ATOM     10  C   UNK A   0      -1.324  11.627  19.807  0.00  0.00    +0.000 A 
ATOM     11  C   UNK A   0      -2.330  11.089  19.006  0.00  0.00    +0.000 A 
ATOM     12  C   UNK A   0      -1.997  10.235  17.957  0.00  0.00    +0.000 A 
ATOM     13  C   UNK A   0      -0.662   9.918  17.708  0.00  0.00    +0.000 A 
ENDBRANCH   7   8
ENDBRANCH   6   7
ENDBRANCH   3   6
ENDBRANCH   1   2
BRANCH   1  14
ATOM     14  C   LEU A   1       4.160   4.834  18.303  0.00  0.00    +0.000 C 
ATOM     15  O   LEU A   1       4.361   3.637  18.092  0.00  0.00    +0.000 OA
ATOM     16  N   HIS A   2       5.169   5.771  18.227  0.00  0.00    +0.000 N 
ATOM     17  H   HIS A   2       4.991   6.735  18.488  0.00  0.00    +0.000 HD
BRANCH  16  18
ATOM     18  CA  HIS A   2       6.534   5.428  17.825  0.00  0.00    +0.000 C 
BRANCH  18  19
ATOM     19  C   HIS A   2       7.518   5.877  18.895  0.00  0.00    +0.000 C 
ATOM     20  O   HIS A   2       8.240   6.867  18.805  0.00  0.00    +0.000 OA
ENDBRANCH  18  19
BRANCH  18  21
ATOM     21  CB  HIS A   2       6.974   6.089  16.512  0.00  0.00    +0.000 C 
BRANCH  21  22
ATOM     22  CG  HIS A   2       6.842   5.191  15.338  0.00  0.00    +0.000 A 
ATOM     23  CD2 HIS A   2       6.006   4.112  15.145  0.00  0.00    +0.000 A 
ATOM     24  NE2 HIS A   2       6.284   3.664  13.883  0.00  0.00    +0.000 N 
ATOM     25  CE1 HIS A   2       7.269   4.460  13.371  0.00  0.00    +0.000 A 
ATOM     26  ND1 HIS A   2       7.627   5.390  14.226  0.00  0.00    +0.000 NA
ATOM     27  HE2 HIS A   2       5.844   2.889  13.407  0.00  0.00    +0.000 HD
ENDBRANCH  21  22
ENDBRANCH  18  21
ENDBRANCH  16  18
ENDBRANCH   1  14
BRANCH   1  28
ATOM     28  CB  LEU A   1       1.625   4.404  18.316  0.00  0.00    +0.000 C 
BRANCH  28  30
ATOM     29  CD1 LEU A   1       1.473   2.120  19.457  0.00  0.00    +0.000 C 
ATOM     30  CG  LEU A   1       1.035   3.585  19.479  0.00  0.00    +0.000 C 
ATOM     31  CD2 LEU A   1       1.426   4.204  20.826  0.00  0.00    +0.000 C 
ENDBRANCH  28  30
ENDBRANCH   1  28
TORSDOF 11
ENDMDL
MODEL 4
REMARK VINA RESULT:      -7.4      2.476      7.438
REMARK  Name = 
REMARK  13 active torsions:
REMARK  status: ('A' for Active; 'I' for Inactive)
REMARK    1  A    between atoms: CD1_1  and  CG_2
REMARK    2  A    between atoms: CG_2  and  CD2_3
REMARK    3  A    between atoms: CG_2  and  CB_4
REMARK    4  A    between atoms: CB_4  and  CA_5
REMARK    5  A    between atoms: CA_5  and  N_6
REMARK    6  A    between atoms: CA_5  and  C_17
REMARK    7  A    between atoms: C_7  and  O_9
REMARK    8  A    between atoms: O_9  and  C_10
REMARK    9  A    between atoms: C_10  and  C_11
REMARK   10  A    between atoms: N_19  and  CA_20
REMARK   11  A    between atoms: CA_20  and  C_21
REMARK   12  A    between atoms: CA_20  and  CB_23
REMARK   13  A    between atoms: CB_23  and  CG_24
REMARK                            x       y       z     vdW  Elec       q    Type
REMARK                         _______ _______ _______ _____ _____    ______ ____
ROOT
ATOM      1  CA  LEU A   1       3.313   5.134  19.108  0.00  0.00    +0.000 C 
ENDROOT
BRANCH   1   2
ATOM      2  N   LEU A   1       2.975   6.274  18.253  0.00  0.00    +0.000 N 
ATOM      3  C   UNK A   0       2.392   7.411  18.729  0.00  0.00    +0.000 C 
ATOM      4  O   UNK A   0       2.152   7.619  19.909  0.00  0.00    +0.000 OA
ATOM      5  H   LEU A   1       3.085   6.180  17.251  0.00  0.00    +0.000 HD
BRANCH   3   6
ATOM      6  O   UNK A   0       2.087   8.242  17.704  0.00  0.00    +0.000 OA
BRANCH   6   7
ATOM      7  C   UNK A   0       2.148   9.650  17.990  0.00  0.00    +0.000 C 
BRANCH   7   8
ATOM      8  C   UNK A   0       0.799  10.164  18.430  0.00  0.00    +0.000 A 
ATOM      9  C   UNK A   0       0.681  11.040  19.519  0.00  0.00    +0.000 A 
ATOM     10  C   UNK A   0      -0.569  11.517  19.918  0.00  0.00    +0.000 A 
ATOM     11  C   UNK A   0      -1.717  11.137  19.224  0.00  0.00    +0.000 A 
ATOM     12  C   UNK A   0      -1.613  10.278  18.132  0.00  0.00    +0.000 A 
ATOM     13  C   UNK A   0      -0.365   9.798  17.735  0.00  0.00    +0.000 A 
ENDBRANCH   7   8
ENDBRANCH   6   7
ENDBRANCH   3   6
ENDBRANCH   1   2
BRANCH   1  14
ATOM     14  C   LEU A   1       4.856   5.045  19.225  0.00  0.00    +0.000 C 
ATOM     15  O   LEU A   1       5.413   4.353  20.078  0.00  0.00    +0.000 OA
ATOM     16  N   HIS A   2       5.567   5.802  18.317  0.00  0.00    +0.000 N 
ATOM     17  H   HIS A   2       5.083   6.427  17.682  0.00  0.00    +0.000 HD
BRANCH  16  18
ATOM     18  CA  HIS A   2       7.030   5.785  18.253  0.00  0.00    +0.000 C 
BRANCH  18  19
ATOM     19  C   HIS A   2       7.537   7.086  17.649  0.00  0.00    +0.000 C 
ATOM     20  O   HIS A   2       6.823   7.931  17.113  0.00  0.00    +0.000 OA
ENDBRANCH  18  19
BRANCH  18  21
ATOM     21  CB  HIS A   2       7.595   4.647  17.393  0.00  0.00    +0.000 C 
BRANCH  21  22
ATOM     22  CG  HIS A   2       6.928   4.531  16.072  0.00  0.00    +0.000 A 
ATOM     23  CD2 HIS A   2       7.385   4.885  14.821  0.00  0.00    +0.000 A 
ATOM     24  NE2 HIS A   2       6.379   4.541  13.961  0.00  0.00    +0.000 N 
ATOM     25  CE1 HIS A   2       5.363   4.015  14.706  0.00  0.00    +0.000 A 
ATOM     26  ND1 HIS A   2       5.663   3.996  15.984  0.00  0.00    +0.000 NA
ATOM     27  HE2 HIS A   2       6.381   4.649  12.956  0.00  0.00    +0.000 HD
ENDBRANCH  21  22
ENDBRANCH  18  21
ENDBRANCH  16  18
ENDBRANCH   1  14
BRANCH   1  28
ATOM     28  CB  LEU A   1       2.693   3.847  18.524  0.00  0.00    +0.000 C 
BRANCH  28  30
ATOM     29  CD1 LEU A   1       1.306   3.819  20.672  0.00  0.00    +0.000 C 
ATOM     30  CG  LEU A   1       1.833   3.008  19.488  0.00  0.00    +0.000 C 
ATOM     31  CD2 LEU A   1       0.648   2.381  18.745  0.00  0.00    +0.000 C 
ENDBRANCH  28  30
ENDBRANCH   1  28
TORSDOF 11
ENDMDL
MODEL 5
REMARK VINA RESULT:      -7.4      2.330      7.608
REMARK  Name = 
REMARK  13 active torsions:
REMARK  status: ('A' for Active; 'I' for Inactive)
REMARK    1  A    between atoms: CD1_1  and  CG_2
REMARK    2  A    between atoms: CG_2  and  CD2_3
REMARK    3  A    between atoms: CG_2  and  CB_4
REMARK    4  A    between atoms: CB_4  and  CA_5
REMARK    5  A    between atoms: CA_5  and  N_6
REMARK    6  A    between atoms: CA_5  and  C_17
REMARK    7  A    between atoms: C_7  and  O_9
REMARK    8  A    between atoms: O_9  and  C_10
REMARK    9  A    between atoms: C_10  and  C_11
REMARK   10  A    between atoms: N_19  and  CA_20
REMARK   11  A    between atoms: CA_20  and  C_21
REMARK   12  A    between atoms: CA_20  and  CB_23
REMARK   13  A    between atoms: CB_23  and  CG_24
REMARK                            x       y       z     vdW  Elec       q    Type
REMARK                         _______ _______ _______ _____ _____    ______ ____
ROOT
ATOM      1  CA  LEU A   1       3.132   5.236  19.078  0.00  0.00    +0.000 C 
ENDROOT
BRANCH   1   2
ATOM      2  N   LEU A   1       3.050   6.652  18.711  0.00  0.00    +0.000 N 
ATOM      3  C   UNK A   0       2.310   7.558  19.412  0.00  0.00    +0.000 C 
ATOM      4  O   UNK A   0       1.698   7.300  20.438  0.00  0.00    +0.000 OA
ATOM      5  H   LEU A   1       3.478   6.956  17.845  0.00  0.00    +0.000 HD
BRANCH   3   6
ATOM      6  O   UNK A   0       2.323   8.757  18.781  0.00  0.00    +0.000 OA
BRANCH   6   7
ATOM      7  C   UNK A   0       1.317   8.953  17.772  0.00  0.00    +0.000 C 
BRANCH   7   8
ATOM      8  C   UNK A   0       0.224   9.864  18.278  0.00  0.00    +0.000 A 
ATOM      9  C   UNK A   0      -1.019   9.926  17.634  0.00  0.00    +0.000 A 
ATOM     10  C   UNK A   0      -2.028  10.767  18.110  0.00  0.00    +0.000 A 
ATOM     11  C   UNK A   0      -1.812  11.544  19.246  0.00  0.00    +0.000 A 
ATOM     12  C   UNK A   0      -0.586  11.483  19.904  0.00  0.00    +0.000 A 
ATOM     13  C   UNK A   0       0.424  10.647  19.428  0.00  0.00    +0.000 A 
ENDBRANCH   7   8
ENDBRANCH   6   7
ENDBRANCH   3   6
ENDBRANCH   1   2
BRANCH   1  14
ATOM     14  C   LEU A   1       4.604   4.773  18.931  0.00  0.00    +0.000 C 
ATOM     15  O   LEU A   1       5.010   3.709  19.400  0.00  0.00    +0.000 OA
ATOM     16  N   HIS A   2       5.436   5.637  18.248  0.00  0.00    +0.000 N 
ATOM     17  H   HIS A   2       5.094   6.543  17.947  0.00  0.00    +0.000 HD
BRANCH  16  18
ATOM     18  CA  HIS A   2       6.838   5.324  17.970  0.00  0.00    +0.000 C 
BRANCH  18  19
ATOM     19  C   HIS A   2       7.736   6.019  18.983  0.00  0.00    +0.000 C 
ATOM     20  O   HIS A   2       8.308   7.089  18.789  0.00  0.00    +0.000 OA
ENDBRANCH  18  19
BRANCH  18  21
ATOM     21  CB  HIS A   2       7.306   5.777  16.580  0.00  0.00    +0.000 C 
BRANCH  21  22
ATOM     22  CG  HIS A   2       6.816   4.898  15.489  0.00  0.00    +0.000 A 
ATOM     23  CD2 HIS A   2       7.136   4.900  14.147  0.00  0.00    +0.000 A 
ATOM     24  NE2 HIS A   2       6.417   3.870  13.607  0.00  0.00    +0.000 N 
ATOM     25  CE1 HIS A   2       5.691   3.300  14.614  0.00  0.00    +0.000 A 
ATOM     26  ND1 HIS A   2       5.911   3.899  15.762  0.00  0.00    +0.000 NA
ATOM     27  HE2 HIS A   2       6.420   3.574  12.640  0.00  0.00    +0.000 HD
ENDBRANCH  21  22
ENDBRANCH  18  21
ENDBRANCH  16  18
ENDBRANCH   1  14
BRANCH   1  28
ATOM     28  CB  LEU A   1       2.168   4.416  18.195  0.00  0.00    +0.000 C 
BRANCH  28  30
ATOM     29  CD1 LEU A   1       1.893   1.984  18.936  0.00  0.00    +0.000 C 
ATOM     30  CG  LEU A   1       1.285   3.388  18.926  0.00  0.00    +0.000 C 
ATOM     31  CD2 LEU A   1       1.026   3.831  20.370  0.00  0.00    +0.000 C 
ENDBRANCH  28  30
ENDBRANCH   1  28
TORSDOF 11
ENDMDL
MODEL 6
REMARK VINA RESULT:      -7.3      2.381      7.752
REMARK  Name = 
REMARK  13 active torsions:
REMARK  status: ('A' for Active; 'I' for Inactive)
REMARK    1  A    between atoms: CD1_1  and  CG_2
REMARK    2  A    between atoms: CG_2  and  CD2_3
REMARK    3  A    between atoms: CG_2  and  CB_4
REMARK    4  A    between atoms: CB_4  and  CA_5
REMARK    5  A    between atoms: CA_5  and  N_6
REMARK    6  A    between atoms: CA_5  and  C_17
REMARK    7  A    between atoms: C_7  and  O_9
REMARK    8  A    between atoms: O_9  and  C_10
REMARK    9  A    between atoms: C_10  and  C_11
REMARK   10  A    between atoms: N_19  and  CA_20
REMARK   11  A    between atoms: CA_20  and  C_21
REMARK   12  A    between atoms: CA_20  and  CB_23
REMARK   13  A    between atoms: CB_23  and  CG_24
REMARK                            x       y       z     vdW  Elec       q    Type
REMARK                         _______ _______ _______ _____ _____    ______ ____
ROOT
ATOM      1  CA  LEU A   1       3.268   4.813  19.430  0.00  0.00    +0.000 C 
ENDROOT
BRANCH   1   2
ATOM      2  N   LEU A   1       2.716   6.054  19.980  0.00  0.00    +0.000 N 
ATOM      3  C   UNK A   0       2.424   7.140  19.209  0.00  0.00    +0.000 C 
ATOM      4  O   UNK A   0       2.530   7.169  17.992  0.00  0.00    +0.000 OA
ATOM      5  H   LEU A   1       2.641   6.150  20.985  0.00  0.00    +0.000 HD
BRANCH   3   6
ATOM      6  O   UNK A   0       2.044   8.178  19.992  0.00  0.00    +0.000 OA
BRANCH   6   7
ATOM      7  C   UNK A   0       1.133   7.865  21.061  0.00  0.00    +0.000 C 
BRANCH   7   8
ATOM      8  C   UNK A   0       0.392   9.101  21.510  0.00  0.00    +0.000 A 
ATOM      9  C   UNK A   0      -0.185   9.173  22.786  0.00  0.00    +0.000 A 
ATOM     10  C   UNK A   0      -0.865  10.321  23.197  0.00  0.00    +0.000 A 
ATOM     11  C   UNK A   0      -0.962  11.420  22.345  0.00  0.00    +0.000 A 
ATOM     12  C   UNK A   0      -0.382  11.367  21.080  0.00  0.00    +0.000 A 
ATOM     13  C   UNK A   0       0.294  10.220  20.665  0.00  0.00    +0.000 A 
ENDBRANCH   7   8
ENDBRANCH   6   7
ENDBRANCH   3   6
ENDBRANCH   1   2
BRANCH   1  14
ATOM     14  C   LEU A   1       4.807   4.961  19.325  0.00  0.00    +0.000 C 
ATOM     15  O   LEU A   1       5.579   4.370  20.082  0.00  0.00    +0.000 OA
ATOM     16  N   HIS A   2       5.258   5.808  18.335  0.00  0.00    +0.000 N 
ATOM     17  H   HIS A   2       4.599   6.346  17.783  0.00  0.00    +0.000 HD
BRANCH  16  18
ATOM     18  CA  HIS A   2       6.682   6.014  18.062  0.00  0.00    +0.000 C 
BRANCH  18  19
ATOM     19  C   HIS A   2       6.871   7.245  17.189  0.00  0.00    +0.000 C 
ATOM     20  O   HIS A   2       7.897   7.921  17.150  0.00  0.00    +0.000 OA
ENDBRANCH  18  19
BRANCH  18  21
ATOM     21  CB  HIS A   2       7.344   4.842  17.325  0.00  0.00    +0.000 C 
BRANCH  21  22
ATOM     22  CG  HIS A   2       6.783   4.620  15.968  0.00  0.00    +0.000 A 
ATOM     23  CD2 HIS A   2       7.361   4.826  14.733  0.00  0.00    +0.000 A 
ATOM     24  NE2 HIS A   2       6.414   4.439  13.826  0.00  0.00    +0.000 N 
ATOM     25  CE1 HIS A   2       5.313   4.035  14.526  0.00  0.00    +0.000 A 
ATOM     26  ND1 HIS A   2       5.505   4.134  15.821  0.00  0.00    +0.000 NA
ATOM     27  HE2 HIS A   2       6.505   4.443  12.819  0.00  0.00    +0.000 HD
ENDBRANCH  21  22
ENDBRANCH  18  21
ENDBRANCH  16  18
ENDBRANCH   1  14
BRANCH   1  28
ATOM     28  CB  LEU A   1       2.612   4.515  18.065  0.00  0.00    +0.000 C 
BRANCH  28  30
ATOM     29  CD1 LEU A   1       3.091   2.009  17.899  0.00  0.00    +0.000 C 
ATOM     30  CG  LEU A   1       2.023   3.103  17.887  0.00  0.00    +0.000 C 
ATOM     31  CD2 LEU A   1       0.992   2.808  18.983  0.00  0.00    +0.000 C 
ENDBRANCH  28  30
ENDBRANCH   1  28
TORSDOF 11
ENDMDL
MODEL 7
REMARK VINA RESULT:      -7.3      2.525      7.776
REMARK  Name = 
REMARK  13 active torsions:
REMARK  status: ('A' for Active; 'I' for Inactive)
REMARK    1  A    between atoms: CD1_1  and  CG_2
REMARK    2  A    between atoms: CG_2  and  CD2_3
REMARK    3  A    between atoms: CG_2  and  CB_4
REMARK    4  A    between atoms: CB_4  and  CA_5
REMARK    5  A    between atoms: CA_5  and  N_6
REMARK    6  A    between atoms: CA_5  and  C_17
REMARK    7  A    between atoms: C_7  and  O_9
REMARK    8  A    between atoms: O_9  and  C_10
REMARK    9  A    between atoms: C_10  and  C_11
REMARK   10  A    between atoms: N_19  and  CA_20
REMARK   11  A    between atoms: CA_20  and  C_21
REMARK   12  A    between atoms: CA_20  and  CB_23
REMARK   13  A    between atoms: CB_23  and  CG_24
REMARK                            x       y       z     vdW  Elec       q    Type
REMARK                         _______ _______ _______ _____ _____    ______ ____
ROOT
ATOM      1  CA  LEU A   1       3.145   5.130  18.649  0.00  0.00    +0.000 C 
ENDROOT
BRANCH   1   2
ATOM      2  N   LEU A   1       2.530   6.212  19.422  0.00  0.00    +0.000 N 
ATOM      3  C   UNK A   0       2.014   6.029  20.671  0.00  0.00    +0.000 C 
ATOM      4  O   UNK A   0       2.066   4.977  21.290  0.00  0.00    +0.000 OA
ATOM      5  H   LEU A   1       2.390   7.110  18.977  0.00  0.00    +0.000 HD
BRANCH   3   6
ATOM      6  O   UNK A   0       1.407   7.164  21.094  0.00  0.00    +0.000 OA
BRANCH   6   7
ATOM      7  C   UNK A   0       1.458   8.284  20.194  0.00  0.00    +0.000 C 
BRANCH   7   8
ATOM      8  C   UNK A   0       0.767   9.484  20.794  0.00  0.00    +0.000 A 
ATOM      9  C   UNK A   0       0.090   9.389  22.018  0.00  0.00    +0.000 A 
ATOM     10  C   UNK A   0      -0.544  10.504  22.572  0.00  0.00    +0.000 A 
ATOM     11  C   UNK A   0      -0.493  11.733  21.917  0.00  0.00    +0.000 A 
ATOM     12  C   UNK A   0       0.188  11.846  20.707  0.00  0.00    +0.000 A 
ATOM     13  C   UNK A   0       0.818  10.732  20.151  0.00  0.00    +0.000 A 
ENDBRANCH   7   8
ENDBRANCH   6   7
ENDBRANCH   3   6
ENDBRANCH   1   2
BRANCH   1  14
ATOM     14  C   LEU A   1       4.001   5.757  17.519  0.00  0.00    +0.000 C 
ATOM     15  O   LEU A   1       4.056   6.974  17.332  0.00  0.00    +0.000 OA
ATOM     16  N   HIS A   2       4.691   4.863  16.727  0.00  0.00    +0.000 N 
ATOM     17  H   HIS A   2       4.560   3.865  16.851  0.00  0.00    +0.000 HD
BRANCH  16  18
ATOM     18  CA  HIS A   2       5.591   5.291  15.655  0.00  0.00    +0.000 C 
BRANCH  18  19
ATOM     19  C   HIS A   2       5.309   4.493  14.391  0.00  0.00    +0.000 C 
ATOM     20  O   HIS A   2       6.175   4.019  13.659  0.00  0.00    +0.000 OA
ENDBRANCH  18  19
BRANCH  18  21
ATOM     21  CB  HIS A   2       7.077   5.093  15.982  0.00  0.00    +0.000 C 
BRANCH  21  22
ATOM     22  CG  HIS A   2       7.456   5.639  17.310  0.00  0.00    +0.000 A 
ATOM     23  CD2 HIS A   2       7.764   6.933  17.673  0.00  0.00    +0.000 A 
ATOM     24  NE2 HIS A   2       8.016   6.877  19.017  0.00  0.00    +0.000 N 
ATOM     25  CE1 HIS A   2       7.869   5.577  19.409  0.00  0.00    +0.000 A 
ATOM     26  ND1 HIS A   2       7.532   4.806  18.402  0.00  0.00    +0.000 NA
ATOM     27  HE2 HIS A   2       8.261   7.652  19.617  0.00  0.00    +0.000 HD
ENDBRANCH  21  22
ENDBRANCH  18  21
ENDBRANCH  16  18
ENDBRANCH   1  14
BRANCH   1  28
ATOM     28  CB  LEU A   1       2.046   4.195  18.103  0.00  0.00    +0.000 C 
BRANCH  28  30
ATOM     29  CD1 LEU A   1       0.588   2.191  18.737  0.00  0.00    +0.000 C 
ATOM     30  CG  LEU A   1       2.000   2.777  18.703  0.00  0.00    +0.000 C 
ATOM     31  CD2 LEU A   1       2.916   1.831  17.919  0.00  0.00    +0.000 C 
ENDBRANCH  28  30
ENDBRANCH   1  28
TORSDOF 11
ENDMDL
MODEL 8
REMARK VINA RESULT:      -7.3      2.496      7.830
REMARK  Name = 
REMARK  13 active torsions:
REMARK  status: ('A' for Active; 'I' for Inactive)
REMARK    1  A    between atoms: CD1_1  and  CG_2
REMARK    2  A    between atoms: CG_2  and  CD2_3
REMARK    3  A    between atoms: CG_2  and  CB_4
REMARK    4  A    between atoms: CB_4  and  CA_5
REMARK    5  A    between atoms: CA_5  and  N_6
REMARK    6  A    between atoms: CA_5  and  C_17
REMARK    7  A    between atoms: C_7  and  O_9
REMARK    8  A    between atoms: O_9  and  C_10
REMARK    9  A    between atoms: C_10  and  C_11
REMARK   10  A    between atoms: N_19  and  CA_20
REMARK   11  A    between atoms: CA_20  and  C_21
REMARK   12  A    between atoms: CA_20  and  CB_23
REMARK   13  A    between atoms: CB_23  and  CG_24
REMARK                            x       y       z     vdW  Elec       q    Type
REMARK                         _______ _______ _______ _____ _____    ______ ____
ROOT
ATOM      1  CA  LEU A   1       3.174   5.838  18.474  0.00  0.00    +0.000 C 
ENDROOT
BRANCH   1   2
ATOM      2  N   LEU A   1       2.594   7.112  18.905  0.00  0.00    +0.000 N 
ATOM      3  C   UNK A   0       1.910   7.256  20.075  0.00  0.00    +0.000 C 
ATOM      4  O   UNK A   0       1.766   6.369  20.903  0.00  0.00    +0.000 OA
ATOM      5  H   LEU A   1       2.611   7.896  18.265  0.00  0.00    +0.000 HD
BRANCH   3   6
ATOM      6  O   UNK A   0       1.387   8.504  20.158  0.00  0.00    +0.000 OA
BRANCH   6   7
ATOM      7  C   UNK A   0       1.298   9.236  18.923  0.00  0.00    +0.000 C 
BRANCH   7   8
ATOM      8  C   UNK A   0       0.029  10.053  18.878  0.00  0.00    +0.000 A 
ATOM      9  C   UNK A   0      -0.309  10.919  19.927  0.00  0.00    +0.000 A 
ATOM     10  C   UNK A   0      -1.482  11.676  19.878  0.00  0.00    +0.000 A 
ATOM     11  C   UNK A   0      -2.323  11.590  18.770  0.00  0.00    +0.000 A 
ATOM     12  C   UNK A   0      -1.993  10.743  17.714  0.00  0.00    +0.000 A 
ATOM     13  C   UNK A   0      -0.824   9.983  17.764  0.00  0.00    +0.000 A 
ENDBRANCH   7   8
ENDBRANCH   6   7
ENDBRANCH   3   6
ENDBRANCH   1   2
BRANCH   1  14
ATOM     14  C   LEU A   1       4.140   6.110  17.292  0.00  0.00    +0.000 C 
ATOM     15  O   LEU A   1       4.366   7.247  16.876  0.00  0.00    +0.000 OA
ATOM     16  N   HIS A   2       4.722   4.994  16.728  0.00  0.00    +0.000 N 
ATOM     17  H   HIS A   2       4.452   4.066  17.037  0.00  0.00    +0.000 HD
BRANCH  16  18
ATOM     18  CA  HIS A   2       5.702   5.080  15.645  0.00  0.00    +0.000 C 
BRANCH  18  19
ATOM     19  C   HIS A   2       5.360   4.076  14.554  0.00  0.00    +0.000 C 
ATOM     20  O   HIS A   2       6.060   3.851  13.569  0.00  0.00    +0.000 OA
ENDBRANCH  18  19
BRANCH  18  21
ATOM     21  CB  HIS A   2       7.140   4.778  16.089  0.00  0.00    +0.000 C 
BRANCH  21  22
ATOM     22  CG  HIS A   2       7.505   5.444  17.365  0.00  0.00    +0.000 A 
ATOM     23  CD2 HIS A   2       7.762   6.775  17.620  0.00  0.00    +0.000 A 
ATOM     24  NE2 HIS A   2       8.024   6.838  18.961  0.00  0.00    +0.000 N 
ATOM     25  CE1 HIS A   2       7.933   5.569  19.458  0.00  0.00    +0.000 A 
ATOM     26  ND1 HIS A   2       7.621   4.706  18.519  0.00  0.00    +0.000 NA
ATOM     27  HE2 HIS A   2       8.241   7.668  19.495  0.00  0.00    +0.000 HD
ENDBRANCH  21  22
ENDBRANCH  18  21
ENDBRANCH  16  18
ENDBRANCH   1  14
BRANCH   1  28
ATOM     28  CB  LEU A   1       2.045   4.856  18.096  0.00  0.00    +0.000 C 
BRANCH  28  30
ATOM     29  CD1 LEU A   1       0.796   3.163  19.550  0.00  0.00    +0.000 C 
ATOM     30  CG  LEU A   1       2.082   3.479  18.784  0.00  0.00    +0.000 C 
ATOM     31  CD2 LEU A   1       2.339   2.371  17.757  0.00  0.00    +0.000 C 
ENDBRANCH  28  30
ENDBRANCH   1  28
TORSDOF 11
ENDMDL
MODEL 9
REMARK VINA RESULT:      -7.3      3.747      6.704
REMARK  Name = 
REMARK  13 active torsions:
REMARK  status: ('A' for Active; 'I' for Inactive)
REMARK    1  A    between atoms: CD1_1  and  CG_2
REMARK    2  A    between atoms: CG_2  and  CD2_3
REMARK    3  A    between atoms: CG_2  and  CB_4
REMARK    4  A    between atoms: CB_4  and  CA_5
REMARK    5  A    between atoms: CA_5  and  N_6
REMARK    6  A    between atoms: CA_5  and  C_17
REMARK    7  A    between atoms: C_7  and  O_9
REMARK    8  A    between atoms: O_9  and  C_10
REMARK    9  A    between atoms: C_10  and  C_11
REMARK   10  A    between atoms: N_19  and  CA_20
REMARK   11  A    between atoms: CA_20  and  C_21
REMARK   12  A    between atoms: CA_20  and  CB_23
REMARK   13  A    between atoms: CB_23  and  CG_24
REMARK                            x       y       z     vdW  Elec       q    Type
REMARK                         _______ _______ _______ _____ _____    ______ ____
ROOT
ATOM      1  CA  LEU A   1       6.727   5.565  16.860  0.00  0.00    +0.000 C 
ENDROOT
BRANCH   1   2
ATOM      2  N   LEU A   1       7.687   6.627  17.170  0.00  0.00    +0.000 N 
ATOM      3  C   UNK A   0       7.307   7.890  17.519  0.00  0.00    +0.000 C 
ATOM      4  O   UNK A   0       6.147   8.244  17.668  0.00  0.00    +0.000 OA
ATOM      5  H   LEU A   1       8.673   6.451  17.024  0.00  0.00    +0.000 HD
BRANCH   3   6
ATOM      6  O   UNK A   0       8.396   8.689  17.632  0.00  0.00    +0.000 OA
BRANCH   6   7
ATOM      7  C   UNK A   0       8.136  10.083  17.872  0.00  0.00    +0.000 C 
BRANCH   7   8
ATOM      8  C   UNK A   0       9.318  10.737  18.546  0.00  0.00    +0.000 A 
ATOM      9  C   UNK A   0      10.381  11.256  17.794  0.00  0.00    +0.000 A 
ATOM     10  C   UNK A   0      11.470  11.864  18.423  0.00  0.00    +0.000 A 
ATOM     11  C   UNK A   0      11.501  11.978  19.811  0.00  0.00    +0.000 A 
ATOM     12  C   UNK A   0      10.445  11.479  20.571  0.00  0.00    +0.000 A 
ATOM     13  C   UNK A   0       9.359  10.867  19.944  0.00  0.00    +0.000 A 
ENDBRANCH   7   8
ENDBRANCH   6   7
ENDBRANCH   3   6
ENDBRANCH   1   2
BRANCH   1  14
ATOM     14  C   LEU A   1       6.232   4.944  18.191  0.00  0.00    +0.000 C 
ATOM     15  O   LEU A   1       7.001   4.653  19.108  0.00  0.00    +0.000 OA
ATOM     16  N   HIS A   2       4.872   4.728  18.279  0.00  0.00    +0.000 N 
ATOM     17  H   HIS A   2       4.275   4.899  17.477  0.00  0.00    +0.000 HD
BRANCH  16  18
ATOM     18  CA  HIS A   2       4.235   4.205  19.488  0.00  0.00    +0.000 C 
BRANCH  18  19
ATOM     19  C   HIS A   2       4.305   2.685  19.497  0.00  0.00    +0.000 C 
ATOM     20  O   HIS A   2       4.821   2.016  20.389  0.00  0.00    +0.000 OA
ENDBRANCH  18  19
BRANCH  18  21
ATOM     21  CB  HIS A   2       2.752   4.581  19.615  0.00  0.00    +0.000 C 
BRANCH  21  22
ATOM     22  CG  HIS A   2       2.496   6.022  19.364  0.00  0.00    +0.000 A 
ATOM     23  CD2 HIS A   2       2.079   7.006  20.235  0.00  0.00    +0.000 A 
ATOM     24  NE2 HIS A   2       2.027   8.148  19.486  0.00  0.00    +0.000 N 
ATOM     25  CE1 HIS A   2       2.391   7.822  18.211  0.00  0.00    +0.000 A 
ATOM     26  ND1 HIS A   2       2.679   6.545  18.105  0.00  0.00    +0.000 NA
ATOM     27  HE2 HIS A   2       1.771   9.071  19.809  0.00  0.00    +0.000 HD
ENDBRANCH  21  22
ENDBRANCH  18  21
ENDBRANCH  16  18
ENDBRANCH   1  14
BRANCH   1  28
ATOM     28  CB  LEU A   1       7.391   4.522  15.936  0.00  0.00    +0.000 C 
BRANCH  28  30
ATOM     29  CD1 LEU A   1       5.166   4.585  14.678  0.00  0.00    +0.000 C 
ATOM     30  CG  LEU A   1       6.644   4.199  14.629  0.00  0.00    +0.000 C 
ATOM     31  CD2 LEU A   1       7.307   4.906  13.441  0.00  0.00    +0.000 C 
ENDBRANCH  28  30
ENDBRANCH   1  28
TORSDOF 11
ENDMDL
