MODEL 1
REMARK VINA RESULT:      -8.6      0.000      0.000
REMARK  Name = 
REMARK  7 active torsions:
REMARK  status: ('A' for Active; 'I' for Inactive)
REMARK    1  A    between atoms: C_1  and  O_2
REMARK    2  A    between atoms: O_2  and  C_3
REMARK    3  A    between atoms: C_3  and  C_5
REMARK    4  A    between atoms: C_5  and  C_6
REMARK    5  A    between atoms: C_5  and  N_13
REMARK    6  A    between atoms: C_6  and  C_7
REMARK    7  A    between atoms: N_13  and  C_14
REMARK                            x       y       z     vdW  Elec       q    Type
REMARK                         _______ _______ _______ _____ _____    ______ ____
ROOT
ATOM      1  N   UNL     1       3.833   4.627  17.445  0.00  0.00    +0.000 N 
ATOM      2  H   UNL     1       3.201   4.783  16.656  0.00  0.00    +0.000 HD
ENDROOT
BRANCH   1   3
ATOM      3  C   UNL     1       3.351   5.313  18.579  0.00  0.00    +0.000 A 
ATOM      4  C   UNL     1       2.828   6.642  18.632  0.00  0.00    +0.000 A 
ATOM      5  C   UNL     1       2.959   7.663  17.653  0.00  0.00    +0.000 A 
ATOM      6  C   UNL     1       2.377   8.926  17.828  0.00  0.00    +0.000 A 
ATOM      7  C   UNL     1       1.718   9.228  19.012  0.00  0.00    +0.000 A 
ATOM      8  C   UNL     1       1.588   8.248  19.990  0.00  0.00    +0.000 A 
ATOM      9  C   UNL     1       2.055   6.958  19.773  0.00  0.00    +0.000 A 
ATOM     10  N   UNL     1       1.667   6.015  20.629  0.00  0.00    +0.000 NA
ATOM     11  C   UNL     1       2.136   4.778  20.434  0.00  0.00    +0.000 A 
ATOM     12  C   UNL     1       1.303   3.677  20.559  0.00  0.00    +0.000 A 
ATOM     13  C   UNL     1       1.765   2.383  20.232  0.00  0.00    +0.000 A 
ATOM     14  C   UNL     1       3.116   2.194  20.088  0.00  0.00    +0.000 A 
ATOM     15  C   UNL     1       3.924   3.309  20.009  0.00  0.00    +0.000 A 
ATOM     16  C   UNL     1       3.304   4.552  19.779  0.00  0.00    +0.000 A 
ENDBRANCH   1   3
BRANCH   1  17
ATOM     17  C   UNL     1       5.228   4.645  16.928  0.00  0.00    +0.000 C 
BRANCH  17  18
ATOM     18  C   UNL     1       6.328   5.194  17.873  0.00  0.00    +0.000 C 
ATOM     19  O   UNL     1       7.009   4.454  18.585  0.00  0.00    +0.000 OA
BRANCH  18  21
ATOM     20  C   UNL     1       7.796   6.994  18.078  0.00  0.00    +0.000 C 
ATOM     21  O   UNL     1       6.441   6.549  17.890  0.00  0.00    +0.000 OA
ENDBRANCH  18  21
ENDBRANCH  17  18
BRANCH  17  22
ATOM     22  C   UNL     1       5.232   5.515  15.645  0.00  0.00    +0.000 C 
BRANCH  22  23
ATOM     23  C   UNL     1       5.914   4.859  14.449  0.00  0.00    +0.000 A 
ATOM     24  C   UNL     1       7.192   5.285  14.053  0.00  0.00    +0.000 A 
ATOM     25  C   UNL     1       7.769   4.797  12.877  0.00  0.00    +0.000 A 
ATOM     26  C   UNL     1       7.074   3.889  12.081  0.00  0.00    +0.000 A 
ATOM     27  C   UNL     1       5.825   3.427  12.485  0.00  0.00    +0.000 A 
ATOM     28  C   UNL     1       5.264   3.889  13.676  0.00  0.00    +0.000 A 
ENDBRANCH  22  23
ENDBRANCH  17  22
ENDBRANCH   1  17
TORSDOF 6
ENDMDL
MODEL 2
REMARK VINA RESULT:      -8.0      0.625      1.274
REMARK  Name = 
REMARK  7 active torsions:
REMARK  status: ('A' for Active; 'I' for Inactive)
REMARK    1  A    between atoms: C_1  and  O_2
REMARK    2  A    between atoms: O_2  and  C_3
REMARK    3  A    between atoms: C_3  and  C_5
REMARK    4  A    between atoms: C_5  and  C_6
REMARK    5  A    between atoms: C_5  and  N_13
REMARK    6  A    between atoms: C_6  and  C_7
REMARK    7  A    between atoms: N_13  and  C_14
REMARK                            x       y       z     vdW  Elec       q    Type
REMARK                         _______ _______ _______ _____ _____    ______ ____
ROOT
ATOM      1  N   UNL     1       4.269   4.649  17.207  0.00  0.00    +0.000 N 
ATOM      2  H   UNL     1       3.590   4.717  16.445  0.00  0.00    +0.000 HD
ENDROOT
BRANCH   1   3
ATOM      3  C   UNL     1       3.734   5.238  18.371  0.00  0.00    +0.000 A 
ATOM      4  C   UNL     1       3.100   6.515  18.485  0.00  0.00    +0.000 A 
ATOM      5  C   UNL     1       3.143   7.587  17.555  0.00  0.00    +0.000 A 
ATOM      6  C   UNL     1       2.458   8.787  17.788  0.00  0.00    +0.000 A 
ATOM      7  C   UNL     1       1.778   8.977  18.984  0.00  0.00    +0.000 A 
ATOM      8  C   UNL     1       1.734   7.945  19.915  0.00  0.00    +0.000 A 
ATOM      9  C   UNL     1       2.306   6.711  19.638  0.00  0.00    +0.000 A 
ATOM     10  N   UNL     1       2.001   5.699  20.449  0.00  0.00    +0.000 NA
ATOM     11  C   UNL     1       2.572   4.517  20.197  0.00  0.00    +0.000 A 
ATOM     12  C   UNL     1       1.835   3.344  20.269  0.00  0.00    +0.000 A 
ATOM     13  C   UNL     1       2.403   2.111  19.883  0.00  0.00    +0.000 A 
ATOM     14  C   UNL     1       3.765   2.043  19.732  0.00  0.00    +0.000 A 
ATOM     15  C   UNL     1       4.476   3.225  19.707  0.00  0.00    +0.000 A 
ATOM     16  C   UNL     1       3.753   4.420  19.533  0.00  0.00    +0.000 A 
ENDBRANCH   1   3
BRANCH   1  17
ATOM     17  C   UNL     1       5.623   4.885  16.639  0.00  0.00    +0.000 C 
BRANCH  17  18
ATOM     18  C   UNL     1       6.646   5.636  17.531  0.00  0.00    +0.000 C 
ATOM     19  O   UNL     1       6.874   6.840  17.396  0.00  0.00    +0.000 OA
BRANCH  18  21
ATOM     20  C   UNL     1       7.814   5.598  19.548  0.00  0.00    +0.000 C 
ATOM     21  O   UNL     1       7.302   4.854  18.428  0.00  0.00    +0.000 OA
ENDBRANCH  18  21
ENDBRANCH  17  18
BRANCH  17  22
ATOM     22  C   UNL     1       5.440   5.708  15.338  0.00  0.00    +0.000 C 
BRANCH  22  23
ATOM     23  C   UNL     1       5.941   5.007  14.081  0.00  0.00    +0.000 A 
ATOM     24  C   UNL     1       5.174   3.986  13.496  0.00  0.00    +0.000 A 
ATOM     25  C   UNL     1       5.683   3.237  12.433  0.00  0.00    +0.000 A 
ATOM     26  C   UNL     1       6.965   3.490  11.949  0.00  0.00    +0.000 A 
ATOM     27  C   UNL     1       7.719   4.526  12.491  0.00  0.00    +0.000 A 
ATOM     28  C   UNL     1       7.196   5.296  13.532  0.00  0.00    +0.000 A 
ENDBRANCH  22  23
ENDBRANCH  17  22
ENDBRANCH   1  17
TORSDOF 6
ENDMDL
MODEL 3
REMARK VINA RESULT:      -7.9      1.782      6.849
REMARK  Name = 
REMARK  7 active torsions:
REMARK  status: ('A' for Active; 'I' for Inactive)
REMARK    1  A    between atoms: C_1  and  O_2
REMARK    2  A    between atoms: O_2  and  C_3
REMARK    3  A    between atoms: C_3  and  C_5
REMARK    4  A    between atoms: C_5  and  C_6
REMARK    5  A    between atoms: C_5  and  N_13
REMARK    6  A    between atoms: C_6  and  C_7
REMARK    7  A    between atoms: N_13  and  C_14
REMARK                            x       y       z     vdW  Elec       q    Type
REMARK                         _______ _______ _______ _____ _____    ______ ____
ROOT
ATOM      1  N   UNL     1       4.953   3.672  17.011  0.00  0.00    +0.000 N 
ATOM      2  H   UNL     1       5.287   3.577  17.974  0.00  0.00    +0.000 HD
ENDROOT
BRANCH   1   3
ATOM      3  C   UNL     1       6.027   4.033  16.172  0.00  0.00    +0.000 A 
ATOM      4  C   UNL     1       6.069   3.980  14.744  0.00  0.00    +0.000 A 
ATOM      5  C   UNL     1       5.188   3.278  13.879  0.00  0.00    +0.000 A 
ATOM      6  C   UNL     1       5.336   3.325  12.486  0.00  0.00    +0.000 A 
ATOM      7  C   UNL     1       6.408   4.008  11.925  0.00  0.00    +0.000 A 
ATOM      8  C   UNL     1       7.290   4.692  12.754  0.00  0.00    +0.000 A 
ATOM      9  C   UNL     1       7.079   4.751  14.125  0.00  0.00    +0.000 A 
ATOM     10  N   UNL     1       7.800   5.631  14.818  0.00  0.00    +0.000 NA
ATOM     11  C   UNL     1       7.615   5.671  16.142  0.00  0.00    +0.000 A 
ATOM     12  C   UNL     1       7.531   6.883  16.809  0.00  0.00    +0.000 A 
ATOM     13  C   UNL     1       7.212   6.928  18.184  0.00  0.00    +0.000 A 
ATOM     14  C   UNL     1       7.288   5.765  18.906  0.00  0.00    +0.000 A 
ATOM     15  C   UNL     1       7.413   4.577  18.215  0.00  0.00    +0.000 A 
ATOM     16  C   UNL     1       7.154   4.595  16.831  0.00  0.00    +0.000 A 
ENDBRANCH   1   3
BRANCH   1  17
ATOM     17  C   UNL     1       3.609   4.309  17.051  0.00  0.00    +0.000 C 
BRANCH  17  18
ATOM     18  C   UNL     1       3.395   5.452  18.077  0.00  0.00    +0.000 C 
ATOM     19  O   UNL     1       4.115   5.584  19.070  0.00  0.00    +0.000 OA
BRANCH  18  21
ATOM     20  C   UNL     1       2.492   7.584  18.347  0.00  0.00    +0.000 C 
ATOM     21  O   UNL     1       2.328   6.254  17.823  0.00  0.00    +0.000 OA
ENDBRANCH  18  21
ENDBRANCH  17  18
BRANCH  17  22
ATOM     22  C   UNL     1       2.580   3.194  17.366  0.00  0.00    +0.000 C 
BRANCH  22  23
ATOM     23  C   UNL     1       2.351   2.960  18.855  0.00  0.00    +0.000 A 
ATOM     24  C   UNL     1       1.150   3.377  19.452  0.00  0.00    +0.000 A 
ATOM     25  C   UNL     1       0.984   3.302  20.838  0.00  0.00    +0.000 A 
ATOM     26  C   UNL     1       2.015   2.820  21.641  0.00  0.00    +0.000 A 
ATOM     27  C   UNL     1       3.193   2.364  21.058  0.00  0.00    +0.000 A 
ATOM     28  C   UNL     1       3.346   2.409  19.672  0.00  0.00    +0.000 A 
ENDBRANCH  22  23
ENDBRANCH  17  22
ENDBRANCH   1  17
TORSDOF 6
ENDMDL
MODEL 4
REMARK VINA RESULT:      -7.8      1.977      6.631
REMARK  Name = 
REMARK  7 active torsions:
REMARK  status: ('A' for Active; 'I' for Inactive)
REMARK    1  A    between atoms: C_1  and  O_2
REMARK    2  A    between atoms: O_2  and  C_3
REMARK    3  A    between atoms: C_3  and  C_5
REMARK    4  A    between atoms: C_5  and  C_6
REMARK    5  A    between atoms: C_5  and  N_13
REMARK    6  A    between atoms: C_6  and  C_7
REMARK    7  A    between atoms: N_13  and  C_14
REMARK                            x       y       z     vdW  Elec       q    Type
REMARK                         _______ _______ _______ _____ _____    ______ ____
ROOT
ATOM      1  N   UNL     1       4.706   3.267  16.596  0.00  0.00    +0.000 N 
ATOM      2  H   UNL     1       4.779   2.247  16.560  0.00  0.00    +0.000 HD
ENDROOT
BRANCH   1   3
ATOM      3  C   UNL     1       5.863   3.843  16.032  0.00  0.00    +0.000 A 
ATOM      4  C   UNL     1       6.193   3.948  14.645  0.00  0.00    +0.000 A 
ATOM      5  C   UNL     1       5.609   3.240  13.562  0.00  0.00    +0.000 A 
ATOM      6  C   UNL     1       6.021   3.453  12.240  0.00  0.00    +0.000 A 
ATOM      7  C   UNL     1       7.075   4.317  11.972  0.00  0.00    +0.000 A 
ATOM      8  C   UNL     1       7.670   5.011  13.019  0.00  0.00    +0.000 A 
ATOM      9  C   UNL     1       7.187   4.898  14.316  0.00  0.00    +0.000 A 
ATOM     10  N   UNL     1       7.625   5.780  15.212  0.00  0.00    +0.000 NA
ATOM     11  C   UNL     1       7.178   5.656  16.465  0.00  0.00    +0.000 A 
ATOM     12  C   UNL     1       6.794   6.772  17.195  0.00  0.00    +0.000 A 
ATOM     13  C   UNL     1       6.206   6.631  18.470  0.00  0.00    +0.000 A 
ATOM     14  C   UNL     1       6.301   5.415  19.098  0.00  0.00    +0.000 A 
ATOM     15  C   UNL     1       6.727   4.332  18.357  0.00  0.00    +0.000 A 
ATOM     16  C   UNL     1       6.747   4.465  16.956  0.00  0.00    +0.000 A 
ENDBRANCH   1   3
BRANCH   1  17
ATOM     17  C   UNL     1       4.074   3.638  17.890  0.00  0.00    +0.000 C 
BRANCH  17  18
ATOM     18  C   UNL     1       3.730   2.484  18.868  0.00  0.00    +0.000 C 
ATOM     19  O   UNL     1       3.133   1.470  18.501  0.00  0.00    +0.000 OA
BRANCH  18  21
ATOM     20  C   UNL     1       2.996   2.528  21.081  0.00  0.00    +0.000 C 
ATOM     21  O   UNL     1       4.088   2.706  20.161  0.00  0.00    +0.000 OA
ENDBRANCH  18  21
ENDBRANCH  17  18
BRANCH  17  22
ATOM     22  C   UNL     1       2.757   4.386  17.562  0.00  0.00    +0.000 C 
BRANCH  22  23
ATOM     23  C   UNL     1       2.595   5.713  18.296  0.00  0.00    +0.000 A 
ATOM     24  C   UNL     1       2.237   5.722  19.654  0.00  0.00    +0.000 A 
ATOM     25  C   UNL     1       1.944   6.925  20.302  0.00  0.00    +0.000 A 
ATOM     26  C   UNL     1       1.995   8.128  19.601  0.00  0.00    +0.000 A 
ATOM     27  C   UNL     1       2.389   8.137  18.266  0.00  0.00    +0.000 A 
ATOM     28  C   UNL     1       2.714   6.938  17.629  0.00  0.00    +0.000 A 
ENDBRANCH  22  23
ENDBRANCH  17  22
ENDBRANCH   1  17
TORSDOF 6
ENDMDL
MODEL 5
REMARK VINA RESULT:      -7.8      1.320      3.337
REMARK  Name = 
REMARK  7 active torsions:
REMARK  status: ('A' for Active; 'I' for Inactive)
REMARK    1  A    between atoms: C_1  and  O_2
REMARK    2  A    between atoms: O_2  and  C_3
REMARK    3  A    between atoms: C_3  and  C_5
REMARK    4  A    between atoms: C_5  and  C_6
REMARK    5  A    between atoms: C_5  and  N_13
REMARK    6  A    between atoms: C_6  and  C_7
REMARK    7  A    between atoms: N_13  and  C_14
REMARK                            x       y       z     vdW  Elec       q    Type
REMARK                         _______ _______ _______ _____ _____    ______ ____
ROOT
ATOM      1  N   UNL     1       3.609   4.842  17.438  0.00  0.00    +0.000 N 
ATOM      2  H   UNL     1       2.879   4.861  16.722  0.00  0.00    +0.000 HD
ENDROOT
BRANCH   1   3
ATOM      3  C   UNL     1       3.156   5.515  18.592  0.00  0.00    +0.000 A 
ATOM      4  C   UNL     1       2.653   6.851  18.676  0.00  0.00    +0.000 A 
ATOM      5  C   UNL     1       2.782   7.885  17.711  0.00  0.00    +0.000 A 
ATOM      6  C   UNL     1       2.222   9.153  17.917  0.00  0.00    +0.000 A 
ATOM      7  C   UNL     1       1.587   9.445  19.118  0.00  0.00    +0.000 A 
ATOM      8  C   UNL     1       1.460   8.450  20.081  0.00  0.00    +0.000 A 
ATOM      9  C   UNL     1       1.904   7.158  19.835  0.00  0.00    +0.000 A 
ATOM     10  N   UNL     1       1.518   6.206  20.682  0.00  0.00    +0.000 NA
ATOM     11  C   UNL     1       1.966   4.966  20.458  0.00  0.00    +0.000 A 
ATOM     12  C   UNL     1       1.119   3.875  20.580  0.00  0.00    +0.000 A 
ATOM     13  C   UNL     1       1.557   2.580  20.224  0.00  0.00    +0.000 A 
ATOM     14  C   UNL     1       2.902   2.375  20.053  0.00  0.00    +0.000 A 
ATOM     15  C   UNL     1       3.725   3.480  19.978  0.00  0.00    +0.000 A 
ATOM     16  C   UNL     1       3.119   4.734  19.779  0.00  0.00    +0.000 A 
ENDBRANCH   1   3
BRANCH   1  17
ATOM     17  C   UNL     1       4.921   5.028  16.764  0.00  0.00    +0.000 C 
BRANCH  17  18
ATOM     18  C   UNL     1       5.294   4.021  15.645  0.00  0.00    +0.000 C 
ATOM     19  O   UNL     1       5.598   2.852  15.891  0.00  0.00    +0.000 OA
BRANCH  18  21
ATOM     20  C   UNL     1       6.462   4.136  13.631  0.00  0.00    +0.000 C 
ATOM     21  O   UNL     1       5.309   4.542  14.390  0.00  0.00    +0.000 OA
ENDBRANCH  18  21
ENDBRANCH  17  18
BRANCH  17  22
ATOM     22  C   UNL     1       6.017   4.945  17.856  0.00  0.00    +0.000 C 
BRANCH  22  23
ATOM     23  C   UNL     1       6.899   6.184  17.950  0.00  0.00    +0.000 A 
ATOM     24  C   UNL     1       7.890   6.264  18.942  0.00  0.00    +0.000 A 
ATOM     25  C   UNL     1       8.608   7.448  19.134  0.00  0.00    +0.000 A 
ATOM     26  C   UNL     1       8.338   8.565  18.347  0.00  0.00    +0.000 A 
ATOM     27  C   UNL     1       7.389   8.486  17.333  0.00  0.00    +0.000 A 
ATOM     28  C   UNL     1       6.696   7.293  17.120  0.00  0.00    +0.000 A 
ENDBRANCH  22  23
ENDBRANCH  17  22
ENDBRANCH   1  17
TORSDOF 6
ENDMDL
MODEL 6
REMARK VINA RESULT:      -7.8      1.652      3.533
REMARK  Name = 
REMARK  7 active torsions:
REMARK  status: ('A' for Active; 'I' for Inactive)
REMARK    1  A    between atoms: C_1  and  O_2
REMARK    2  A    between atoms: O_2  and  C_3
REMARK    3  A    between atoms: C_3  and  C_5
REMARK    4  A    between atoms: C_5  and  C_6
REMARK    5  A    between atoms: C_5  and  N_13
REMARK    6  A    between atoms: C_6  and  C_7
REMARK    7  A    between atoms: N_13  and  C_14
REMARK                            x       y       z     vdW  Elec       q    Type
REMARK                         _______ _______ _______ _____ _____    ______ ____
ROOT
ATOM      1  N   UNL     1       4.076   4.553  16.577  0.00  0.00    +0.000 N 
ATOM      2  H   UNL     1       3.310   4.585  15.900  0.00  0.00    +0.000 HD
ENDROOT
BRANCH   1   3
ATOM      3  C   UNL     1       3.610   4.975  17.839  0.00  0.00    +0.000 A 
ATOM      4  C   UNL     1       3.082   6.258  18.185  0.00  0.00    +0.000 A 
ATOM      5  C   UNL     1       3.194   7.466  17.448  0.00  0.00    +0.000 A 
ATOM      6  C   UNL     1       2.611   8.657  17.900  0.00  0.00    +0.000 A 
ATOM      7  C   UNL     1       1.969   8.692  19.131  0.00  0.00    +0.000 A 
ATOM      8  C   UNL     1       1.859   7.524  19.876  0.00  0.00    +0.000 A 
ATOM      9  C   UNL     1       2.326   6.314  19.379  0.00  0.00    +0.000 A 
ATOM     10  N   UNL     1       1.955   5.206  20.016  0.00  0.00    +0.000 NA
ATOM     11  C   UNL     1       2.426   4.044  19.553  0.00  0.00    +0.000 A 
ATOM     12  C   UNL     1       1.599   2.935  19.449  0.00  0.00    +0.000 A 
ATOM     13  C   UNL     1       2.060   1.746  18.844  0.00  0.00    +0.000 A 
ATOM     14  C   UNL     1       3.409   1.602  18.643  0.00  0.00    +0.000 A 
ATOM     15  C   UNL     1       4.212   2.714  18.795  0.00  0.00    +0.000 A 
ATOM     16  C   UNL     1       3.584   3.972  18.847  0.00  0.00    +0.000 A 
ENDBRANCH   1   3
BRANCH   1  17
ATOM     17  C   UNL     1       5.314   5.014  15.893  0.00  0.00    +0.000 C 
BRANCH  17  18
ATOM     18  C   UNL     1       5.631   4.395  14.507  0.00  0.00    +0.000 C 
ATOM     19  O   UNL     1       4.751   3.931  13.780  0.00  0.00    +0.000 OA
BRANCH  18  21
ATOM     20  C   UNL     1       7.187   4.443  12.771  0.00  0.00    +0.000 C 
ATOM     21  O   UNL     1       6.952   4.358  14.188  0.00  0.00    +0.000 OA
ENDBRANCH  18  21
ENDBRANCH  17  18
BRANCH  17  22
ATOM     22  C   UNL     1       6.505   4.698  16.834  0.00  0.00    +0.000 C 
BRANCH  22  23
ATOM     23  C   UNL     1       7.088   5.921  17.533  0.00  0.00    +0.000 A 
ATOM     24  C   UNL     1       7.001   7.183  16.923  0.00  0.00    +0.000 A 
ATOM     25  C   UNL     1       7.655   8.286  17.479  0.00  0.00    +0.000 A 
ATOM     26  C   UNL     1       8.409   8.139  18.641  0.00  0.00    +0.000 A 
ATOM     27  C   UNL     1       8.468   6.904  19.279  0.00  0.00    +0.000 A 
ATOM     28  C   UNL     1       7.788   5.810  18.740  0.00  0.00    +0.000 A 
ENDBRANCH  22  23
ENDBRANCH  17  22
ENDBRANCH   1  17
TORSDOF 6
ENDMDL
MODEL 7
REMARK VINA RESULT:      -7.7      2.002      6.722
REMARK  Name = 
REMARK  7 active torsions:
REMARK  status: ('A' for Active; 'I' for Inactive)
REMARK    1  A    between atoms: C_1  and  O_2
REMARK    2  A    between atoms: O_2  and  C_3
REMARK    3  A    between atoms: C_3  and  C_5
REMARK    4  A    between atoms: C_5  and  C_6
REMARK    5  A    between atoms: C_5  and  N_13
REMARK    6  A    between atoms: C_6  and  C_7
REMARK    7  A    between atoms: N_13  and  C_14
REMARK                            x       y       z     vdW  Elec       q    Type
REMARK                         _______ _______ _______ _____ _____    ______ ____
ROOT
ATOM      1  N   UNL     1       4.971   3.199  16.631  0.00  0.00    +0.000 N 
ATOM      2  H   UNL     1       5.182   2.205  16.753  0.00  0.00    +0.000 HD
ENDROOT
BRANCH   1   3
ATOM      3  C   UNL     1       6.061   3.839  16.007  0.00  0.00    +0.000 A 
ATOM      4  C   UNL     1       6.319   3.945  14.605  0.00  0.00    +0.000 A 
ATOM      5  C   UNL     1       5.731   3.186  13.558  0.00  0.00    +0.000 A 
ATOM      6  C   UNL     1       6.067   3.406  12.216  0.00  0.00    +0.000 A 
ATOM      7  C   UNL     1       7.049   4.331  11.888  0.00  0.00    +0.000 A 
ATOM      8  C   UNL     1       7.647   5.077  12.898  0.00  0.00    +0.000 A 
ATOM      9  C   UNL     1       7.232   4.952  14.217  0.00  0.00    +0.000 A 
ATOM     10  N   UNL     1       7.654   5.873  15.081  0.00  0.00    +0.000 NA
ATOM     11  C   UNL     1       7.276   5.738  16.356  0.00  0.00    +0.000 A 
ATOM     12  C   UNL     1       6.856   6.838  17.090  0.00  0.00    +0.000 A 
ATOM     13  C   UNL     1       6.339   6.678  18.394  0.00  0.00    +0.000 A 
ATOM     14  C   UNL     1       6.541   5.479  19.030  0.00  0.00    +0.000 A 
ATOM     15  C   UNL     1       7.000   4.415  18.282  0.00  0.00    +0.000 A 
ATOM     16  C   UNL     1       6.946   4.529  16.880  0.00  0.00    +0.000 A 
ENDBRANCH   1   3
BRANCH   1  17
ATOM     17  C   UNL     1       4.247   3.667  17.843  0.00  0.00    +0.000 C 
BRANCH  17  18
ATOM     18  C   UNL     1       3.805   2.588  18.866  0.00  0.00    +0.000 C 
ATOM     19  O   UNL     1       4.359   2.457  19.959  0.00  0.00    +0.000 OA
BRANCH  18  21
ATOM     20  C   UNL     1       1.656   1.801  19.309  0.00  0.00    +0.000 C 
ATOM     21  O   UNL     1       2.802   1.775  18.441  0.00  0.00    +0.000 OA
ENDBRANCH  18  21
ENDBRANCH  17  18
BRANCH  17  22
ATOM     22  C   UNL     1       2.974   4.408  17.360  0.00  0.00    +0.000 C 
BRANCH  22  23
ATOM     23  C   UNL     1       2.530   5.544  18.274  0.00  0.00    +0.000 A 
ATOM     24  C   UNL     1       2.633   6.875  17.836  0.00  0.00    +0.000 A 
ATOM     25  C   UNL     1       2.368   7.932  18.711  0.00  0.00    +0.000 A 
ATOM     26  C   UNL     1       2.008   7.674  20.032  0.00  0.00    +0.000 A 
ATOM     27  C   UNL     1       1.862   6.360  20.467  0.00  0.00    +0.000 A 
ATOM     28  C   UNL     1       2.095   5.305  19.583  0.00  0.00    +0.000 A 
ENDBRANCH  22  23
ENDBRANCH  17  22
ENDBRANCH   1  17
TORSDOF 6
ENDMDL
MODEL 8
REMARK VINA RESULT:      -7.6      2.187      6.706
REMARK  Name = 
REMARK  7 active torsions:
REMARK  status: ('A' for Active; 'I' for Inactive)
REMARK    1  A    between atoms: C_1  and  O_2
REMARK    2  A    between atoms: O_2  and  C_3
REMARK    3  A    between atoms: C_3  and  C_5
REMARK    4  A    between atoms: C_5  and  C_6
REMARK    5  A    between atoms: C_5  and  N_13
REMARK    6  A    between atoms: C_6  and  C_7
REMARK    7  A    between atoms: N_13  and  C_14
REMARK                            x       y       z     vdW  Elec       q    Type
REMARK                         _______ _______ _______ _____ _____    ______ ____
ROOT
ATOM      1  N   UNL     1       5.201   3.458  17.298  0.00  0.00    +0.000 N 
ATOM      2  H   UNL     1       5.652   2.932  18.050  0.00  0.00    +0.000 HD
ENDROOT
BRANCH   1   3
ATOM      3  C   UNL     1       6.183   3.965  16.422  0.00  0.00    +0.000 A 
ATOM      4  C   UNL     1       6.155   3.966  14.993  0.00  0.00    +0.000 A 
ATOM      5  C   UNL     1       5.311   3.200  14.145  0.00  0.00    +0.000 A 
ATOM      6  C   UNL     1       5.379   3.312  12.749  0.00  0.00    +0.000 A 
ATOM      7  C   UNL     1       6.338   4.128  12.164  0.00  0.00    +0.000 A 
ATOM      8  C   UNL     1       7.183   4.878  12.975  0.00  0.00    +0.000 A 
ATOM      9  C   UNL     1       7.040   4.866  14.357  0.00  0.00    +0.000 A 
ATOM     10  N   UNL     1       7.696   5.796  15.048  0.00  0.00    +0.000 NA
ATOM     11  C   UNL     1       7.578   5.770  16.379  0.00  0.00    +0.000 A 
ATOM     12  C   UNL     1       7.398   6.942  17.098  0.00  0.00    +0.000 A 
ATOM     13  C   UNL     1       7.149   6.904  18.487  0.00  0.00    +0.000 A 
ATOM     14  C   UNL     1       7.390   5.732  19.157  0.00  0.00    +0.000 A 
ATOM     15  C   UNL     1       7.608   4.590  18.414  0.00  0.00    +0.000 A 
ATOM     16  C   UNL     1       7.275   4.626  17.047  0.00  0.00    +0.000 A 
ENDBRANCH   1   3
BRANCH   1  17
ATOM     17  C   UNL     1       4.063   4.216  17.883  0.00  0.00    +0.000 C 
BRANCH  17  18
ATOM     18  C   UNL     1       2.658   3.564  17.799  0.00  0.00    +0.000 C 
ATOM     19  O   UNL     1       2.095   3.360  16.722  0.00  0.00    +0.000 OA
BRANCH  18  21
ATOM     20  C   UNL     1       1.567   1.950  19.079  0.00  0.00    +0.000 C 
ATOM     21  O   UNL     1       2.083   3.290  19.000  0.00  0.00    +0.000 OA
ENDBRANCH  18  21
ENDBRANCH  17  18
BRANCH  17  22
ATOM     22  C   UNL     1       3.994   5.581  17.153  0.00  0.00    +0.000 C 
BRANCH  22  23
ATOM     23  C   UNL     1       3.294   6.678  17.947  0.00  0.00    +0.000 A 
ATOM     24  C   UNL     1       2.932   6.451  19.285  0.00  0.00    +0.000 A 
ATOM     25  C   UNL     1       2.165   7.388  19.981  0.00  0.00    +0.000 A 
ATOM     26  C   UNL     1       1.742   8.555  19.348  0.00  0.00    +0.000 A 
ATOM     27  C   UNL     1       2.129   8.812  18.037  0.00  0.00    +0.000 A 
ATOM     28  C   UNL     1       2.924   7.890  17.352  0.00  0.00    +0.000 A 
ENDBRANCH  22  23
ENDBRANCH  17  22
ENDBRANCH   1  17
TORSDOF 6
ENDMDL
MODEL 9
REMARK VINA RESULT:      -7.5      0.850      3.480
REMARK  Name = 
REMARK  7 active torsions:
REMARK  status: ('A' for Active; 'I' for Inactive)
REMARK    1  A    between atoms: C_1  and  O_2
REMARK    2  A    between atoms: O_2  and  C_3
REMARK    3  A    between atoms: C_3  and  C_5
REMARK    4  A    between atoms: C_5  and  C_6
REMARK    5  A    between atoms: C_5  and  N_13
REMARK    6  A    between atoms: C_6  and  C_7
REMARK    7  A    between atoms: N_13  and  C_14
REMARK                            x       y       z     vdW  Elec       q    Type
REMARK                         _______ _______ _______ _____ _____    ______ ____
ROOT
ATOM      1  N   UNL     1       4.710   6.096  17.843  0.00  0.00    +0.000 N 
ATOM      2  H   UNL     1       5.273   6.678  18.469  0.00  0.00    +0.000 HD
ENDROOT
BRANCH   1   3
ATOM      3  C   UNL     1       3.626   5.546  18.558  0.00  0.00    +0.000 A 
ATOM      4  C   UNL     1       3.634   4.381  19.387  0.00  0.00    +0.000 A 
ATOM      5  C   UNL     1       4.619   3.359  19.431  0.00  0.00    +0.000 A 
ATOM      6  C   UNL     1       4.508   2.273  20.309  0.00  0.00    +0.000 A 
ATOM      7  C   UNL     1       3.379   2.137  21.107  0.00  0.00    +0.000 A 
ATOM      8  C   UNL     1       2.396   3.120  21.070  0.00  0.00    +0.000 A 
ATOM      9  C   UNL     1       2.557   4.260  20.294  0.00  0.00    +0.000 A 
ATOM     10  N   UNL     1       1.715   5.269  20.507  0.00  0.00    +0.000 NA
ATOM     11  C   UNL     1       1.854   6.357  19.743  0.00  0.00    +0.000 A 
ATOM     12  C   UNL     1       1.769   7.627  20.296  0.00  0.00    +0.000 A 
ATOM     13  C   UNL     1       2.040   8.771  19.514  0.00  0.00    +0.000 A 
ATOM     14  C   UNL     1       2.083   8.631  18.151  0.00  0.00    +0.000 A 
ATOM     15  C   UNL     1       2.123   7.354  17.629  0.00  0.00    +0.000 A 
ATOM     16  C   UNL     1       2.420   6.297  18.510  0.00  0.00    +0.000 A 
ENDBRANCH   1   3
BRANCH   1  17
ATOM     17  C   UNL     1       5.636   5.363  16.940  0.00  0.00    +0.000 C 
BRANCH  17  18
ATOM     18  C   UNL     1       7.147   5.402  17.288  0.00  0.00    +0.000 C 
ATOM     19  O   UNL     1       7.696   4.499  17.923  0.00  0.00    +0.000 OA
BRANCH  18  21
ATOM     20  C   UNL     1       7.819   7.548  17.901  0.00  0.00    +0.000 C 
ATOM     21  O   UNL     1       7.796   6.527  16.888  0.00  0.00    +0.000 OA
ENDBRANCH  18  21
ENDBRANCH  17  18
BRANCH  17  22
ATOM     22  C   UNL     1       5.465   5.961  15.520  0.00  0.00    +0.000 C 
BRANCH  22  23
ATOM     23  C   UNL     1       5.955   5.053  14.398  0.00  0.00    +0.000 A 
ATOM     24  C   UNL     1       7.193   5.306  13.784  0.00  0.00    +0.000 A 
ATOM     25  C   UNL     1       7.590   4.574  12.662  0.00  0.00    +0.000 A 
ATOM     26  C   UNL     1       6.754   3.592  12.135  0.00  0.00    +0.000 A 
ATOM     27  C   UNL     1       5.544   3.303  12.758  0.00  0.00    +0.000 A 
ATOM     28  C   UNL     1       5.163   4.012  13.899  0.00  0.00    +0.000 A 
ENDBRANCH  22  23
ENDBRANCH  17  22
ENDBRANCH   1  17
TORSDOF 6
ENDMDL
