MODEL 1
REMARK VINA RESULT:      -6.1      0.000      0.000
REMARK  Name = 
REMARK  5 active torsions:
REMARK  status: ('A' for Active; 'I' for Inactive)
REMARK    1  A    between atoms: C_1  and  O_2
REMARK    2  A    between atoms: O_2  and  C_3
REMARK    3  A    between atoms: C_8  and  N_9
REMARK    4  A    between atoms: C_10  and  S_11
REMARK    5  A    between atoms: C_16  and  C_18
REMARK                            x       y       z     vdW  Elec       q    Type
REMARK                         _______ _______ _______ _____ _____    ______ ____
ROOT
ATOM      1  N   UNL     1       3.884   6.477  17.062  0.00  0.00    +0.000 NA
ATOM      2  C   UNL     1       3.448   6.364  18.288  0.00  0.00    +0.000 C 
ATOM      3  N   UNL     1       2.296   7.022  18.693  0.00  0.00    +0.000 N 
ATOM      4  C   UNL     1       1.536   6.757  19.926  0.00  0.00    +0.000 C 
ATOM      5  C   UNL     1       1.634   7.972  20.854  0.00  0.00    +0.000 C 
ATOM      6  N   UNL     1       1.138   9.172  20.166  0.00  0.00    +0.000 N 
ATOM      7  C   UNL     1       0.049   9.846  20.697  0.00  0.00    +0.000 C 
ATOM      8  O   UNL     1      -0.445   9.497  21.775  0.00  0.00    +0.000 OA
ATOM      9  C   UNL     1       1.796   9.439  18.875  0.00  0.00    +0.000 C 
ATOM     10  C   UNL     1       1.782   8.194  17.955  0.00  0.00    +0.000 C 
ENDROOT
BRANCH   1  16
ATOM     11  C   UNL     1       6.312   6.252  16.550  0.00  0.00    +0.000 A 
ATOM     12  C   UNL     1       7.353   5.481  16.019  0.00  0.00    +0.000 A 
ATOM     13  C   UNL     1       7.110   4.183  15.570  0.00  0.00    +0.000 A 
ATOM     14  C   UNL     1       5.825   3.654  15.641  0.00  0.00    +0.000 A 
ATOM     15  C   UNL     1       4.771   4.447  16.102  0.00  0.00    +0.000 A 
ATOM     16  C   UNL     1       4.985   5.765  16.530  0.00  0.00    +0.000 A 
BRANCH  11  18
ATOM     17  C   UNL     1       7.751   7.808  17.634  0.00  0.00    +0.000 C 
ATOM     18  O   UNL     1       6.482   7.495  17.109  0.00  0.00    +0.000 OA
ENDBRANCH  11  18
ENDBRANCH   1  16
BRANCH   7  19
ATOM     19  C   UNL     1      -0.498  11.076  19.943  0.00  0.00    +0.000 C 
ATOM     20  C   UNL     1      -1.284  12.002  20.867  0.00  0.00    +0.000 C 
ATOM     21  C   UNL     1      -2.276  12.658  19.945  0.00  0.00    +0.000 C 
ATOM     22  C   UNL     1      -2.533  11.588  18.910  0.00  0.00    +0.000 C 
ATOM     23  O   UNL     1      -1.380  10.739  18.864  0.00  0.00    +0.000 OA
ENDBRANCH   7  19
BRANCH   2  24
ATOM     24  S   UNL     1       4.271   5.409  19.529  0.00  0.00    +0.000 S 
ATOM     25  H   UNL     1       5.137   6.393  19.821  0.00  0.00    +0.000 HD
ENDBRANCH   2  24
TORSDOF 4
ENDMDL
MODEL 2
REMARK VINA RESULT:      -6.0      2.618      3.883
REMARK  Name = 
REMARK  5 active torsions:
REMARK  status: ('A' for Active; 'I' for Inactive)
REMARK    1  A    between atoms: C_1  and  O_2
REMARK    2  A    between atoms: O_2  and  C_3
REMARK    3  A    between atoms: C_8  and  N_9
REMARK    4  A    between atoms: C_10  and  S_11
REMARK    5  A    between atoms: C_16  and  C_18
REMARK                            x       y       z     vdW  Elec       q    Type
REMARK                         _______ _______ _______ _____ _____    ______ ____
ROOT
ATOM      1  N   UNL     1       2.086   6.081  20.370  0.00  0.00    +0.000 NA
ATOM      2  C   UNL     1       1.944   7.107  19.574  0.00  0.00    +0.000 C 
ATOM      3  N   UNL     1       1.710   8.374  20.087  0.00  0.00    +0.000 N 
ATOM      4  C   UNL     1       1.827   9.642  19.347  0.00  0.00    +0.000 C 
ATOM      5  C   UNL     1       0.440  10.281  19.211  0.00  0.00    +0.000 C 
ATOM      6  N   UNL     1      -0.150  10.488  20.541  0.00  0.00    +0.000 N 
ATOM      7  C   UNL     1      -0.464  11.778  20.939  0.00  0.00    +0.000 C 
ATOM      8  O   UNL     1      -0.332  12.730  20.162  0.00  0.00    +0.000 OA
ATOM      9  C   UNL     1      -0.207   9.270  21.370  0.00  0.00    +0.000 C 
ATOM     10  C   UNL     1       1.169   8.564  21.447  0.00  0.00    +0.000 C 
ENDROOT
BRANCH   1  16
ATOM     11  C   UNL     1       3.744   4.383  19.613  0.00  0.00    +0.000 A 
ATOM     12  C   UNL     1       4.008   3.065  19.220  0.00  0.00    +0.000 A 
ATOM     13  C   UNL     1       3.000   2.102  19.266  0.00  0.00    +0.000 A 
ATOM     14  C   UNL     1       1.724   2.453  19.695  0.00  0.00    +0.000 A 
ATOM     15  C   UNL     1       1.440   3.783  20.017  0.00  0.00    +0.000 A 
ATOM     16  C   UNL     1       2.428   4.775  19.949  0.00  0.00    +0.000 A 
BRANCH  11  18
ATOM     17  C   UNL     1       5.881   5.197  18.954  0.00  0.00    +0.000 C 
ATOM     18  O   UNL     1       4.698   5.367  19.698  0.00  0.00    +0.000 OA
ENDBRANCH  11  18
ENDBRANCH   1  16
BRANCH   7  19
ATOM     19  C   UNL     1      -1.037  11.994  22.356  0.00  0.00    +0.000 C 
ATOM     20  C   UNL     1      -2.524  12.338  22.318  0.00  0.00    +0.000 C 
ATOM     21  C   UNL     1      -2.723  13.173  23.554  0.00  0.00    +0.000 C 
ATOM     22  C   UNL     1      -1.392  13.871  23.706  0.00  0.00    +0.000 C 
ATOM     23  O   UNL     1      -0.396  13.057  23.075  0.00  0.00    +0.000 OA
ENDBRANCH   7  19
BRANCH   2  24
ATOM     24  S   UNL     1       2.007   6.985  17.810  0.00  0.00    +0.000 S 
ATOM     25  H   UNL     1       3.349   6.982  17.780  0.00  0.00    +0.000 HD
ENDBRANCH   2  24
TORSDOF 4
ENDMDL
MODEL 3
REMARK VINA RESULT:      -5.9      3.764      8.982
REMARK  Name = 
REMARK  5 active torsions:
REMARK  status: ('A' for Active; 'I' for Inactive)
REMARK    1  A    between atoms: C_1  and  O_2
REMARK    2  A    between atoms: O_2  and  C_3
REMARK    3  A    between atoms: C_8  and  N_9
REMARK    4  A    between atoms: C_10  and  S_11
REMARK    5  A    between atoms: C_16  and  C_18
REMARK                            x       y       z     vdW  Elec       q    Type
REMARK                         _______ _______ _______ _____ _____    ______ ____
ROOT
ATOM      1  N   UNL     1       3.712   4.111  18.137  0.00  0.00    +0.000 NA
ATOM      2  C   UNL     1       4.820   4.750  17.876  0.00  0.00    +0.000 C 
ATOM      3  N   UNL     1       5.175   5.048  16.568  0.00  0.00    +0.000 N 
ATOM      4  C   UNL     1       6.215   6.003  16.149  0.00  0.00    +0.000 C 
ATOM      5  C   UNL     1       7.360   5.241  15.473  0.00  0.00    +0.000 C 
ATOM      6  N   UNL     1       6.847   4.472  14.331  0.00  0.00    +0.000 N 
ATOM      7  C   UNL     1       7.336   4.749  13.064  0.00  0.00    +0.000 C 
ATOM      8  O   UNL     1       8.248   5.568  12.903  0.00  0.00    +0.000 OA
ATOM      9  C   UNL     1       5.735   3.565  14.668  0.00  0.00    +0.000 C 
ATOM     10  C   UNL     1       4.606   4.300  15.430  0.00  0.00    +0.000 C 
ENDROOT
BRANCH   1  16
ATOM     11  C   UNL     1       2.306   4.703  20.106  0.00  0.00    +0.000 A 
ATOM     12  C   UNL     1       1.847   4.373  21.387  0.00  0.00    +0.000 A 
ATOM     13  C   UNL     1       2.193   3.151  21.967  0.00  0.00    +0.000 A 
ATOM     14  C   UNL     1       3.006   2.261  21.272  0.00  0.00    +0.000 A 
ATOM     15  C   UNL     1       3.525   2.620  20.026  0.00  0.00    +0.000 A 
ATOM     16  C   UNL     1       3.217   3.854  19.437  0.00  0.00    +0.000 A 
BRANCH  11  18
ATOM     17  C   UNL     1       2.220   7.079  20.008  0.00  0.00    +0.000 C 
ATOM     18  O   UNL     1       1.931   5.832  19.422  0.00  0.00    +0.000 OA
ENDBRANCH  11  18
ENDBRANCH   1  16
BRANCH   7  19
ATOM     19  C   UNL     1       6.757   3.972  11.862  0.00  0.00    +0.000 C 
ATOM     20  C   UNL     1       5.238   3.854  11.945  0.00  0.00    +0.000 C 
ATOM     21  C   UNL     1       4.945   2.573  11.212  0.00  0.00    +0.000 C 
ATOM     22  C   UNL     1       6.173   1.739  11.489  0.00  0.00    +0.000 C 
ATOM     23  O   UNL     1       7.260   2.634  11.752  0.00  0.00    +0.000 OA
ENDBRANCH   7  19
BRANCH   2  24
ATOM     24  S   UNL     1       5.964   5.264  19.124  0.00  0.00    +0.000 S 
ATOM     25  H   UNL     1       6.230   4.006  19.508  0.00  0.00    +0.000 HD
ENDBRANCH   2  24
TORSDOF 4
ENDMDL
MODEL 4
REMARK VINA RESULT:      -5.9      3.813      9.769
REMARK  Name = 
REMARK  5 active torsions:
REMARK  status: ('A' for Active; 'I' for Inactive)
REMARK    1  A    between atoms: C_1  and  O_2
REMARK    2  A    between atoms: O_2  and  C_3
REMARK    3  A    between atoms: C_8  and  N_9
REMARK    4  A    between atoms: C_10  and  S_11
REMARK    5  A    between atoms: C_16  and  C_18
REMARK                            x       y       z     vdW  Elec       q    Type
REMARK                         _______ _______ _______ _____ _____    ______ ____
ROOT
ATOM      1  N   UNL     1      -1.480  11.693  22.183  0.00  0.00    +0.000 NA
ATOM      2  C   UNL     1      -0.947  11.585  20.995  0.00  0.00    +0.000 C 
ATOM      3  N   UNL     1      -0.556  10.348  20.505  0.00  0.00    +0.000 N 
ATOM      4  C   UNL     1      -0.228  10.037  19.103  0.00  0.00    +0.000 C 
ATOM      5  C   UNL     1       1.261   9.690  18.995  0.00  0.00    +0.000 C 
ATOM      6  N   UNL     1       1.581   8.564  19.884  0.00  0.00    +0.000 N 
ATOM      7  C   UNL     1       2.078   7.395  19.329  0.00  0.00    +0.000 C 
ATOM      8  O   UNL     1       2.331   7.326  18.121  0.00  0.00    +0.000 OA
ATOM      9  C   UNL     1       1.187   8.776  21.288  0.00  0.00    +0.000 C 
ATOM     10  C   UNL     1      -0.293   9.211  21.410  0.00  0.00    +0.000 C 
ENDROOT
BRANCH   1  16
ATOM     11  C   UNL     1      -3.377  13.222  22.704  0.00  0.00    +0.000 A 
ATOM     12  C   UNL     1      -3.820  14.420  23.278  0.00  0.00    +0.000 A 
ATOM     13  C   UNL     1      -2.931  15.239  23.974  0.00  0.00    +0.000 A 
ATOM     14  C   UNL     1      -1.595  14.870  24.092  0.00  0.00    +0.000 A 
ATOM     15  C   UNL     1      -1.135  13.713  23.457  0.00  0.00    +0.000 A 
ATOM     16  C   UNL     1      -2.002  12.890  22.725  0.00  0.00    +0.000 A 
BRANCH  11  18
ATOM     17  C   UNL     1      -4.764  12.662  20.853  0.00  0.00    +0.000 C 
ATOM     18  O   UNL     1      -4.201  12.309  22.095  0.00  0.00    +0.000 OA
ENDBRANCH  11  18
ENDBRANCH   1  16
BRANCH   7  19
ATOM     19  C   UNL     1       2.365   6.199  20.261  0.00  0.00    +0.000 C 
ATOM     20  C   UNL     1       3.301   5.186  19.609  0.00  0.00    +0.000 C 
ATOM     21  C   UNL     1       2.909   3.882  20.251  0.00  0.00    +0.000 C 
ATOM     22  C   UNL     1       1.435   4.069  20.519  0.00  0.00    +0.000 C 
ATOM     23  O   UNL     1       1.186   5.474  20.639  0.00  0.00    +0.000 OA
ENDBRANCH   7  19
BRANCH   2  24
ATOM     24  S   UNL     1      -0.652  12.968  19.932  0.00  0.00    +0.000 S 
ATOM     25  H   UNL     1       0.645  12.663  19.767  0.00  0.00    +0.000 HD
ENDBRANCH   2  24
TORSDOF 4
ENDMDL
MODEL 5
REMARK VINA RESULT:      -5.9      3.905      8.299
REMARK  Name = 
REMARK  5 active torsions:
REMARK  status: ('A' for Active; 'I' for Inactive)
REMARK    1  A    between atoms: C_1  and  O_2
REMARK    2  A    between atoms: O_2  and  C_3
REMARK    3  A    between atoms: C_8  and  N_9
REMARK    4  A    between atoms: C_10  and  S_11
REMARK    5  A    between atoms: C_16  and  C_18
REMARK                            x       y       z     vdW  Elec       q    Type
REMARK                         _______ _______ _______ _____ _____    ______ ____
ROOT
ATOM      1  N   UNL     1       0.514  12.085  20.141  0.00  0.00    +0.000 NA
ATOM      2  C   UNL     1       1.162  11.439  19.209  0.00  0.00    +0.000 C 
ATOM      3  N   UNL     1       1.031  10.065  19.078  0.00  0.00    +0.000 N 
ATOM      4  C   UNL     1       1.452   9.261  17.918  0.00  0.00    +0.000 C 
ATOM      5  C   UNL     1       2.604   8.339  18.330  0.00  0.00    +0.000 C 
ATOM      6  N   UNL     1       2.189   7.485  19.451  0.00  0.00    +0.000 N 
ATOM      7  C   UNL     1       2.194   6.109  19.282  0.00  0.00    +0.000 C 
ATOM      8  O   UNL     1       2.621   5.602  18.238  0.00  0.00    +0.000 OA
ATOM      9  C   UNL     1       1.666   8.229  20.611  0.00  0.00    +0.000 C 
ATOM     10  C   UNL     1       0.558   9.229  20.200  0.00  0.00    +0.000 C 
ENDROOT
BRANCH   1  16
ATOM     11  C   UNL     1       1.515  14.215  20.959  0.00  0.00    +0.000 A 
ATOM     12  C   UNL     1       1.442  15.611  21.048  0.00  0.00    +0.000 A 
ATOM     13  C   UNL     1       0.436  16.308  20.378  0.00  0.00    +0.000 A 
ATOM     14  C   UNL     1      -0.506  15.613  19.625  0.00  0.00    +0.000 A 
ATOM     15  C   UNL     1      -0.480  14.217  19.597  0.00  0.00    +0.000 A 
ATOM     16  C   UNL     1       0.502  13.492  20.287  0.00  0.00    +0.000 A 
BRANCH  11  18
ATOM     17  C   UNL     1       3.835  13.979  21.431  0.00  0.00    +0.000 C 
ATOM     18  O   UNL     1       2.527  13.461  21.498  0.00  0.00    +0.000 OA
ENDBRANCH  11  18
ENDBRANCH   1  16
BRANCH   7  19
ATOM     19  C   UNL     1       1.709   5.220  20.446  0.00  0.00    +0.000 C 
ATOM     20  C   UNL     1       2.850   4.406  21.049  0.00  0.00    +0.000 C 
ATOM     21  C   UNL     1       2.163   3.177  21.581  0.00  0.00    +0.000 C 
ATOM     22  C   UNL     1       1.012   2.994  20.621  0.00  0.00    +0.000 C 
ATOM     23  O   UNL     1       0.700   4.275  20.061  0.00  0.00    +0.000 OA
ENDBRANCH   7  19
BRANCH   2  24
ATOM     24  S   UNL     1       2.262  12.224  18.067  0.00  0.00    +0.000 S 
ATOM     25  H   UNL     1       2.000  13.453  18.539  0.00  0.00    +0.000 HD
ENDBRANCH   2  24
TORSDOF 4
ENDMDL
MODEL 6
REMARK VINA RESULT:      -5.7      0.858      1.056
REMARK  Name = 
REMARK  5 active torsions:
REMARK  status: ('A' for Active; 'I' for Inactive)
REMARK    1  A    between atoms: C_1  and  O_2
REMARK    2  A    between atoms: O_2  and  C_3
REMARK    3  A    between atoms: C_8  and  N_9
REMARK    4  A    between atoms: C_10  and  S_11
REMARK    5  A    between atoms: C_16  and  C_18
REMARK                            x       y       z     vdW  Elec       q    Type
REMARK                         _______ _______ _______ _____ _____    ______ ____
ROOT
ATOM      1  N   UNL     1       3.863   6.439  17.123  0.00  0.00    +0.000 NA
ATOM      2  C   UNL     1       3.465   6.254  18.353  0.00  0.00    +0.000 C 
ATOM      3  N   UNL     1       2.304   6.852  18.819  0.00  0.00    +0.000 N 
ATOM      4  C   UNL     1       1.588   6.503  20.058  0.00  0.00    +0.000 C 
ATOM      5  C   UNL     1       1.670   7.677  21.039  0.00  0.00    +0.000 C 
ATOM      6  N   UNL     1       1.114   8.889  20.421  0.00  0.00    +0.000 N 
ATOM      7  C   UNL     1       0.018   9.499  21.012  0.00  0.00    +0.000 C 
ATOM      8  O   UNL     1      -0.434   9.084  22.085  0.00  0.00    +0.000 OA
ATOM      9  C   UNL     1       1.725   9.238  19.127  0.00  0.00    +0.000 C 
ATOM     10  C   UNL     1       1.729   8.037  18.151  0.00  0.00    +0.000 C 
ENDROOT
BRANCH   1  16
ATOM     11  C   UNL     1       6.288   6.308  16.567  0.00  0.00    +0.000 A 
ATOM     12  C   UNL     1       7.339   5.601  15.970  0.00  0.00    +0.000 A 
ATOM     13  C   UNL     1       7.119   4.331  15.435  0.00  0.00    +0.000 A 
ATOM     14  C   UNL     1       5.848   3.767  15.487  0.00  0.00    +0.000 A 
ATOM     15  C   UNL     1       4.783   4.502  16.014  0.00  0.00    +0.000 A 
ATOM     16  C   UNL     1       4.972   5.792  16.529  0.00  0.00    +0.000 A 
BRANCH  11  18
ATOM     17  C   UNL     1       7.742   7.914  17.550  0.00  0.00    +0.000 C 
ATOM     18  O   UNL     1       6.437   7.513  17.207  0.00  0.00    +0.000 OA
ENDBRANCH  11  18
ENDBRANCH   1  16
BRANCH   7  19
ATOM     19  C   UNL     1      -0.592  10.742  20.331  0.00  0.00    +0.000 C 
ATOM     20  C   UNL     1      -1.193  10.403  18.969  0.00  0.00    +0.000 C 
ATOM     21  C   UNL     1      -1.064  11.689  18.198  0.00  0.00    +0.000 C 
ATOM     22  C   UNL     1       0.191  12.301  18.774  0.00  0.00    +0.000 C 
ATOM     23  O   UNL     1       0.358  11.792  20.102  0.00  0.00    +0.000 OA
ENDBRANCH   7  19
BRANCH   2  24
ATOM     24  S   UNL     1       4.356   5.274  19.527  0.00  0.00    +0.000 S 
ATOM     25  H   UNL     1       3.261   5.020  20.261  0.00  0.00    +0.000 HD
ENDBRANCH   2  24
TORSDOF 4
ENDMDL
MODEL 7
REMARK VINA RESULT:      -5.7      1.910      8.596
REMARK  Name = 
REMARK  5 active torsions:
REMARK  status: ('A' for Active; 'I' for Inactive)
REMARK    1  A    between atoms: C_1  and  O_2
REMARK    2  A    between atoms: O_2  and  C_3
REMARK    3  A    between atoms: C_8  and  N_9
REMARK    4  A    between atoms: C_10  and  S_11
REMARK    5  A    between atoms: C_16  and  C_18
REMARK                            x       y       z     vdW  Elec       q    Type
REMARK                         _______ _______ _______ _____ _____    ______ ____
ROOT
ATOM      1  N   UNL     1       0.405  10.332  19.486  0.00  0.00    +0.000 NA
ATOM      2  C   UNL     1       0.623   9.244  20.175  0.00  0.00    +0.000 C 
ATOM      3  N   UNL     1       1.700   8.422  19.878  0.00  0.00    +0.000 N 
ATOM      4  C   UNL     1       2.234   7.350  20.736  0.00  0.00    +0.000 C 
ATOM      5  C   UNL     1       2.001   5.995  20.060  0.00  0.00    +0.000 C 
ATOM      6  N   UNL     1       2.629   5.981  18.732  0.00  0.00    +0.000 N 
ATOM      7  C   UNL     1       3.623   5.051  18.472  0.00  0.00    +0.000 C 
ATOM      8  O   UNL     1       3.919   4.191  19.309  0.00  0.00    +0.000 OA
ATOM      9  C   UNL     1       2.206   7.089  17.855  0.00  0.00    +0.000 C 
ATOM     10  C   UNL     1       2.354   8.462  18.555  0.00  0.00    +0.000 C 
ENDROOT
BRANCH   1  16
ATOM     11  C   UNL     1      -1.870  11.291  19.154  0.00  0.00    +0.000 A 
ATOM     12  C   UNL     1      -2.822  12.255  19.509  0.00  0.00    +0.000 A 
ATOM     13  C   UNL     1      -2.572  13.140  20.558  0.00  0.00    +0.000 A 
ATOM     14  C   UNL     1      -1.366  13.071  21.250  0.00  0.00    +0.000 A 
ATOM     15  C   UNL     1      -0.385  12.160  20.849  0.00  0.00    +0.000 A 
ATOM     16  C   UNL     1      -0.601  11.282  19.778  0.00  0.00    +0.000 A 
BRANCH  11  18
ATOM     17  C   UNL     1      -2.334  10.733  16.888  0.00  0.00    +0.000 C 
ATOM     18  O   UNL     1      -2.076  10.318  18.208  0.00  0.00    +0.000 OA
ENDBRANCH  11  18
ENDBRANCH   1  16
BRANCH   7  19
ATOM     19  C   UNL     1       4.313   5.074  17.091  0.00  0.00    +0.000 C 
ATOM     20  C   UNL     1       4.834   3.695  16.697  0.00  0.00    +0.000 C 
ATOM     21  C   UNL     1       6.008   4.004  15.807  0.00  0.00    +0.000 C 
ATOM     22  C   UNL     1       6.528   5.302  16.376  0.00  0.00    +0.000 C 
ATOM     23  O   UNL     1       5.438   5.962  17.030  0.00  0.00    +0.000 OA
ENDBRANCH   7  19
BRANCH   2  24
ATOM     24  S   UNL     1      -0.419   8.706  21.501  0.00  0.00    +0.000 S 
ATOM     25  H   UNL     1       0.498   7.848  21.975  0.00  0.00    +0.000 HD
ENDBRANCH   2  24
TORSDOF 4
ENDMDL
MODEL 8
REMARK VINA RESULT:      -5.7      5.142      9.098
REMARK  Name = 
REMARK  5 active torsions:
REMARK  status: ('A' for Active; 'I' for Inactive)
REMARK    1  A    between atoms: C_1  and  O_2
REMARK    2  A    between atoms: O_2  and  C_3
REMARK    3  A    between atoms: C_8  and  N_9
REMARK    4  A    between atoms: C_10  and  S_11
REMARK    5  A    between atoms: C_16  and  C_18
REMARK                            x       y       z     vdW  Elec       q    Type
REMARK                         _______ _______ _______ _____ _____    ______ ____
ROOT
ATOM      1  N   UNL     1       3.579   4.113  18.055  0.00  0.00    +0.000 NA
ATOM      2  C   UNL     1       4.696   4.750  17.827  0.00  0.00    +0.000 C 
ATOM      3  N   UNL     1       5.087   5.052  16.530  0.00  0.00    +0.000 N 
ATOM      4  C   UNL     1       6.141   6.005  16.144  0.00  0.00    +0.000 C 
ATOM      5  C   UNL     1       7.302   5.243  15.496  0.00  0.00    +0.000 C 
ATOM      6  N   UNL     1       6.817   4.480  14.337  0.00  0.00    +0.000 N 
ATOM      7  C   UNL     1       7.341   4.761  13.085  0.00  0.00    +0.000 C 
ATOM      8  O   UNL     1       8.260   5.577  12.952  0.00  0.00    +0.000 OA
ATOM      9  C   UNL     1       5.694   3.575  14.640  0.00  0.00    +0.000 C 
ATOM     10  C   UNL     1       4.546   4.310  15.374  0.00  0.00    +0.000 C 
ENDROOT
BRANCH   1  16
ATOM     11  C   UNL     1       3.399   2.723  20.115  0.00  0.00    +0.000 A 
ATOM     12  C   UNL     1       2.844   2.543  21.388  0.00  0.00    +0.000 A 
ATOM     13  C   UNL     1       2.031   3.529  21.948  0.00  0.00    +0.000 A 
ATOM     14  C   UNL     1       1.764   4.694  21.236  0.00  0.00    +0.000 A 
ATOM     15  C   UNL     1       2.256   4.843  19.937  0.00  0.00    +0.000 A 
ATOM     16  C   UNL     1       3.048   3.853  19.340  0.00  0.00    +0.000 A 
BRANCH  11  18
ATOM     17  C   UNL     1       3.811   1.019  18.506  0.00  0.00    +0.000 C 
ATOM     18  O   UNL     1       4.289   1.855  19.533  0.00  0.00    +0.000 OA
ENDBRANCH  11  18
ENDBRANCH   1  16
BRANCH   7  19
ATOM     19  C   UNL     1       6.792   3.991  11.865  0.00  0.00    +0.000 C 
ATOM     20  C   UNL     1       5.276   3.831  11.933  0.00  0.00    +0.000 C 
ATOM     21  C   UNL     1       5.023   2.555  11.174  0.00  0.00    +0.000 C 
ATOM     22  C   UNL     1       6.271   1.750  11.446  0.00  0.00    +0.000 C 
ATOM     23  O   UNL     1       7.332   2.668  11.734  0.00  0.00    +0.000 OA
ENDBRANCH   7  19
BRANCH   2  24
ATOM     24  S   UNL     1       5.807   5.255  19.108  0.00  0.00    +0.000 S 
ATOM     25  H   UNL     1       6.414   6.165  18.329  0.00  0.00    +0.000 HD
ENDBRANCH   2  24
TORSDOF 4
ENDMDL
MODEL 9
REMARK VINA RESULT:      -5.7      3.710      8.620
REMARK  Name = 
REMARK  5 active torsions:
REMARK  status: ('A' for Active; 'I' for Inactive)
REMARK    1  A    between atoms: C_1  and  O_2
REMARK    2  A    between atoms: O_2  and  C_3
REMARK    3  A    between atoms: C_8  and  N_9
REMARK    4  A    between atoms: C_10  and  S_11
REMARK    5  A    between atoms: C_16  and  C_18
REMARK                            x       y       z     vdW  Elec       q    Type
REMARK                         _______ _______ _______ _____ _____    ______ ____
ROOT
ATOM      1  N   UNL     1       0.680  11.980  20.357  0.00  0.00    +0.000 NA
ATOM      2  C   UNL     1       1.238  11.340  19.364  0.00  0.00    +0.000 C 
ATOM      3  N   UNL     1       1.058   9.973  19.214  0.00  0.00    +0.000 N 
ATOM      4  C   UNL     1       1.367   9.186  18.008  0.00  0.00    +0.000 C 
ATOM      5  C   UNL     1       2.521   8.224  18.310  0.00  0.00    +0.000 C 
ATOM      6  N   UNL     1       2.167   7.355  19.441  0.00  0.00    +0.000 N 
ATOM      7  C   UNL     1       2.120   5.984  19.241  0.00  0.00    +0.000 C 
ATOM      8  O   UNL     1       2.453   5.491  18.157  0.00  0.00    +0.000 OA
ATOM      9  C   UNL     1       1.754   8.084  20.654  0.00  0.00    +0.000 C 
ATOM     10  C   UNL     1       0.648   9.123  20.350  0.00  0.00    +0.000 C 
ENDROOT
BRANCH   1  16
ATOM     11  C   UNL     1      -0.370  14.237  20.246  0.00  0.00    +0.000 A 
ATOM     12  C   UNL     1      -0.260  15.616  20.464  0.00  0.00    +0.000 A 
ATOM     13  C   UNL     1       0.879  16.144  21.072  0.00  0.00    +0.000 A 
ATOM     14  C   UNL     1       1.915  15.299  21.456  0.00  0.00    +0.000 A 
ATOM     15  C   UNL     1       1.840  13.933  21.173  0.00  0.00    +0.000 A 
ATOM     16  C   UNL     1       0.720  13.383  20.534  0.00  0.00    +0.000 A 
BRANCH  11  18
ATOM     17  C   UNL     1      -2.559  13.392  20.643  0.00  0.00    +0.000 C 
ATOM     18  O   UNL     1      -1.493  13.622  19.752  0.00  0.00    +0.000 OA
ENDBRANCH  11  18
ENDBRANCH   1  16
BRANCH   7  19
ATOM     19  C   UNL     1       1.699   5.080  20.419  0.00  0.00    +0.000 C 
ATOM     20  C   UNL     1       2.882   4.296  20.981  0.00  0.00    +0.000 C 
ATOM     21  C   UNL     1       2.247   3.049  21.533  0.00  0.00    +0.000 C 
ATOM     22  C   UNL     1       1.069   2.836  20.613  0.00  0.00    +0.000 C 
ATOM     23  O   UNL     1       0.704   4.109  20.067  0.00  0.00    +0.000 OA
ENDBRANCH   7  19
BRANCH   2  24
ATOM     24  S   UNL     1       2.271  12.122  18.160  0.00  0.00    +0.000 S 
ATOM     25  H   UNL     1       1.933  13.359  18.560  0.00  0.00    +0.000 HD
ENDBRANCH   2  24
TORSDOF 4
ENDMDL
