MODEL 1
REMARK VINA RESULT:      -7.7      0.000      0.000
REMARK  Name = 
REMARK  4 active torsions:
REMARK  status: ('A' for Active; 'I' for Inactive)
REMARK    1  A    between atoms: C_1  and  C_2
REMARK    2  A    between atoms: N_4  and  C_5
REMARK    3  A    between atoms: C_8  and  N_9
REMARK    4  A    between atoms: C_24  and  C_26
REMARK                            x       y       z     vdW  Elec       q    Type
REMARK                         _______ _______ _______ _____ _____    ______ ____
ROOT
ATOM      1  C   UNL     1       0.960   8.800  20.981  0.00  0.00    +0.000 A 
ATOM      2  N   UNL     1       1.010   9.049  22.311  0.00  0.00    +0.000 NA
ATOM      3  N   UNL     1       0.326  10.110  22.881  0.00  0.00    +0.000 NA
ATOM      4  C   UNL     1      -0.435  10.944  22.131  0.00  0.00    +0.000 A 
ATOM      5  C   UNL     1      -0.543  10.711  20.736  0.00  0.00    +0.000 A 
ATOM      6  C   UNL     1      -1.417  11.435  19.879  0.00  0.00    +0.000 A 
ATOM      7  C   UNL     1      -1.501  11.210  18.507  0.00  0.00    +0.000 A 
ATOM      8  C   UNL     1      -0.668  10.279  17.928  0.00  0.00    +0.000 A 
ATOM      9  C   UNL     1       0.202   9.557  18.736  0.00  0.00    +0.000 A 
ATOM     10  C   UNL     1       0.216   9.674  20.150  0.00  0.00    +0.000 A 
ENDROOT
BRANCH   1  14
ATOM     11  C   UNL     1       2.191   7.269  17.482  0.00  0.00    +0.000 C 
ATOM     12  C   UNL     1       3.060   6.844  18.672  0.00  0.00    +0.000 C 
ATOM     13  C   UNL     1       2.953   7.864  19.847  0.00  0.00    +0.000 C 
ATOM     14  N   UNL     1       1.633   7.700  20.468  0.00  0.00    +0.000 N 
ATOM     15  C   UNL     1       1.473   6.363  21.068  0.00  0.00    +0.000 C 
ATOM     16  C   UNL     1       1.498   5.334  19.922  0.00  0.00    +0.000 C 
ATOM     17  N   UNL     1       2.728   5.449  19.121  0.00  0.00    +0.000 N 
ATOM     18  C   UNL     1       3.214   4.267  18.552  0.00  0.00    +0.000 C 
ATOM     19  O   UNL     1       2.644   3.181  18.667  0.00  0.00    +0.000 OA
BRANCH  18  20
ATOM     20  C   UNL     1       4.490   4.289  17.791  0.00  0.00    +0.000 A 
ATOM     21  C   UNL     1       5.719   4.489  18.429  0.00  0.00    +0.000 A 
ATOM     22  C   UNL     1       6.888   4.607  17.680  0.00  0.00    +0.000 A 
ATOM     23  C   UNL     1       6.848   4.419  16.301  0.00  0.00    +0.000 A 
ATOM     24  C   UNL     1       5.641   4.108  15.672  0.00  0.00    +0.000 A 
ATOM     25  C   UNL     1       4.460   4.052  16.413  0.00  0.00    +0.000 A 
ENDBRANCH  18  20
ENDBRANCH   1  14
BRANCH   4  26
ATOM     26  N   UNL     1      -1.146  12.003  22.759  0.00  0.00    +0.000 N 
ATOM     27  C   UNL     1      -2.438  11.658  23.354  0.00  0.00    +0.000 C 
ATOM     28  C   UNL     1      -3.196  12.914  23.705  0.00  0.00    +0.000 C 
ATOM     29  C   UNL     1      -2.627  14.123  23.757  0.00  0.00    +0.000 C 
ATOM     30  C   UNL     1      -1.175  14.142  23.526  0.00  0.00    +0.000 C 
ATOM     31  N   UNL     1      -0.461  13.147  23.109  0.00  0.00    +0.000 NA
ENDBRANCH   4  26
TORSDOF 3
ENDMDL
MODEL 2
REMARK VINA RESULT:      -7.5      2.529      9.612
REMARK  Name = 
REMARK  4 active torsions:
REMARK  status: ('A' for Active; 'I' for Inactive)
REMARK    1  A    between atoms: C_1  and  C_2
REMARK    2  A    between atoms: N_4  and  C_5
REMARK    3  A    between atoms: C_8  and  N_9
REMARK    4  A    between atoms: C_24  and  C_26
REMARK                            x       y       z     vdW  Elec       q    Type
REMARK                         _______ _______ _______ _____ _____    ______ ____
ROOT
ATOM      1  C   UNL     1       2.138   8.485  18.618  0.00  0.00    +0.000 A 
ATOM      2  N   UNL     1       2.956   8.754  17.573  0.00  0.00    +0.000 NA
ATOM      3  N   UNL     1       3.890   7.837  17.121  0.00  0.00    +0.000 NA
ATOM      4  C   UNL     1       4.022   6.619  17.702  0.00  0.00    +0.000 A 
ATOM      5  C   UNL     1       3.171   6.276  18.784  0.00  0.00    +0.000 A 
ATOM      6  C   UNL     1       3.128   4.984  19.376  0.00  0.00    +0.000 A 
ATOM      7  C   UNL     1       2.301   4.664  20.451  0.00  0.00    +0.000 A 
ATOM      8  C   UNL     1       1.518   5.647  21.011  0.00  0.00    +0.000 A 
ATOM      9  C   UNL     1       1.540   6.924  20.459  0.00  0.00    +0.000 A 
ATOM     10  C   UNL     1       2.272   7.243  19.288  0.00  0.00    +0.000 A 
ENDROOT
BRANCH   1  14
ATOM     11  C   UNL     1      -0.370   9.303  21.642  0.00  0.00    +0.000 C 
ATOM     12  C   UNL     1       0.091  10.551  20.879  0.00  0.00    +0.000 C 
ATOM     13  C   UNL     1       1.449  10.303  20.152  0.00  0.00    +0.000 C 
ATOM     14  N   UNL     1       1.193   9.424  19.004  0.00  0.00    +0.000 N 
ATOM     15  C   UNL     1       0.308  10.063  18.014  0.00  0.00    +0.000 C 
ATOM     16  C   UNL     1      -1.070  10.253  18.677  0.00  0.00    +0.000 C 
ATOM     17  N   UNL     1      -0.965  11.030  19.923  0.00  0.00    +0.000 N 
ATOM     18  C   UNL     1      -2.062  11.835  20.250  0.00  0.00    +0.000 C 
ATOM     19  O   UNL     1      -3.089  11.881  19.571  0.00  0.00    +0.000 OA
BRANCH  18  20
ATOM     20  C   UNL     1      -2.002  12.704  21.454  0.00  0.00    +0.000 A 
ATOM     21  C   UNL     1      -1.189  13.842  21.496  0.00  0.00    +0.000 A 
ATOM     22  C   UNL     1      -1.074  14.580  22.671  0.00  0.00    +0.000 A 
ATOM     23  C   UNL     1      -1.852  14.247  23.776  0.00  0.00    +0.000 A 
ATOM     24  C   UNL     1      -2.749  13.180  23.705  0.00  0.00    +0.000 A 
ATOM     25  C   UNL     1      -2.818  12.401  22.548  0.00  0.00    +0.000 A 
ENDBRANCH  18  20
ENDBRANCH   1  14
BRANCH   4  26
ATOM     26  N   UNL     1       4.972   5.695  17.189  0.00  0.00    +0.000 N 
ATOM     27  C   UNL     1       6.246   5.607  17.902  0.00  0.00    +0.000 C 
ATOM     28  C   UNL     1       7.244   4.827  17.081  0.00  0.00    +0.000 C 
ATOM     29  C   UNL     1       6.901   4.075  16.031  0.00  0.00    +0.000 C 
ATOM     30  C   UNL     1       5.456   3.988  15.769  0.00  0.00    +0.000 C 
ATOM     31  N   UNL     1       4.538   4.701  16.337  0.00  0.00    +0.000 NA
ENDBRANCH   4  26
TORSDOF 3
ENDMDL
MODEL 3
REMARK VINA RESULT:      -7.4      2.719      9.642
REMARK  Name = 
REMARK  4 active torsions:
REMARK  status: ('A' for Active; 'I' for Inactive)
REMARK    1  A    between atoms: C_1  and  C_2
REMARK    2  A    between atoms: N_4  and  C_5
REMARK    3  A    between atoms: C_8  and  N_9
REMARK    4  A    between atoms: C_24  and  C_26
REMARK                            x       y       z     vdW  Elec       q    Type
REMARK                         _______ _______ _______ _____ _____    ______ ____
ROOT
ATOM      1  C   UNL     1       1.886   8.839  18.474  0.00  0.00    +0.000 A 
ATOM      2  N   UNL     1       2.673   9.022  17.389  0.00  0.00    +0.000 NA
ATOM      3  N   UNL     1       3.619   8.086  17.005  0.00  0.00    +0.000 NA
ATOM      4  C   UNL     1       3.795   6.935  17.699  0.00  0.00    +0.000 A 
ATOM      5  C   UNL     1       2.977   6.681  18.830  0.00  0.00    +0.000 A 
ATOM      6  C   UNL     1       2.979   5.453  19.547  0.00  0.00    +0.000 A 
ATOM      7  C   UNL     1       2.185   5.221  20.668  0.00  0.00    +0.000 A 
ATOM      8  C   UNL     1       1.391   6.238  21.149  0.00  0.00    +0.000 A 
ATOM      9  C   UNL     1       1.368   7.453  20.474  0.00  0.00    +0.000 A 
ATOM     10  C   UNL     1       2.066   7.672  19.259  0.00  0.00    +0.000 A 
ENDROOT
BRANCH   1  14
ATOM     11  C   UNL     1      -0.025  10.385  21.646  0.00  0.00    +0.000 C 
ATOM     12  C   UNL     1       0.100  11.365  20.473  0.00  0.00    +0.000 C 
ATOM     13  C   UNL     1       1.298  10.993  19.547  0.00  0.00    +0.000 C 
ATOM     14  N   UNL     1       0.927   9.790  18.791  0.00  0.00    +0.000 N 
ATOM     15  C   UNL     1      -0.220  10.038  17.898  0.00  0.00    +0.000 C 
ATOM     16  C   UNL     1      -1.443  10.335  18.787  0.00  0.00    +0.000 C 
ATOM     17  N   UNL     1      -1.185  11.461  19.700  0.00  0.00    +0.000 N 
ATOM     18  C   UNL     1      -2.286  12.257  20.035  0.00  0.00    +0.000 C 
ATOM     19  O   UNL     1      -3.428  12.029  19.634  0.00  0.00    +0.000 OA
BRANCH  18  20
ATOM     20  C   UNL     1      -2.092  13.455  20.892  0.00  0.00    +0.000 A 
ATOM     21  C   UNL     1      -2.556  13.495  22.211  0.00  0.00    +0.000 A 
ATOM     22  C   UNL     1      -2.452  14.666  22.958  0.00  0.00    +0.000 A 
ATOM     23  C   UNL     1      -1.787  15.768  22.427  0.00  0.00    +0.000 A 
ATOM     24  C   UNL     1      -1.224  15.698  21.152  0.00  0.00    +0.000 A 
ATOM     25  C   UNL     1      -1.383  14.546  20.379  0.00  0.00    +0.000 A 
ENDBRANCH  18  20
ENDBRANCH   1  14
BRANCH   4  26
ATOM     26  N   UNL     1       4.756   5.986  17.256  0.00  0.00    +0.000 N 
ATOM     27  C   UNL     1       6.102   6.113  17.814  0.00  0.00    +0.000 C 
ATOM     28  C   UNL     1       7.066   5.249  17.037  0.00  0.00    +0.000 C 
ATOM     29  C   UNL     1       6.673   4.289  16.194  0.00  0.00    +0.000 C 
ATOM     30  C   UNL     1       5.221   4.068  16.130  0.00  0.00    +0.000 C 
ATOM     31  N   UNL     1       4.315   4.822  16.662  0.00  0.00    +0.000 NA
ENDBRANCH   4  26
TORSDOF 3
ENDMDL
MODEL 4
REMARK VINA RESULT:      -7.3      0.587      1.306
REMARK  Name = 
REMARK  4 active torsions:
REMARK  status: ('A' for Active; 'I' for Inactive)
REMARK    1  A    between atoms: C_1  and  C_2
REMARK    2  A    between atoms: N_4  and  C_5
REMARK    3  A    between atoms: C_8  and  N_9
REMARK    4  A    between atoms: C_24  and  C_26
REMARK                            x       y       z     vdW  Elec       q    Type
REMARK                         _______ _______ _______ _____ _____    ______ ____
ROOT
ATOM      1  C   UNL     1       0.662   8.973  21.209  0.00  0.00    +0.000 A 
ATOM      2  N   UNL     1       0.644   9.188  22.545  0.00  0.00    +0.000 NA
ATOM      3  N   UNL     1      -0.082  10.224  23.109  0.00  0.00    +0.000 NA
ATOM      4  C   UNL     1      -0.818  11.068  22.345  0.00  0.00    +0.000 A 
ATOM      5  C   UNL     1      -0.856  10.870  20.941  0.00  0.00    +0.000 A 
ATOM      6  C   UNL     1      -1.699  11.605  20.062  0.00  0.00    +0.000 A 
ATOM      7  C   UNL     1      -1.713  11.414  18.682  0.00  0.00    +0.000 A 
ATOM      8  C   UNL     1      -0.841  10.511  18.120  0.00  0.00    +0.000 A 
ATOM      9  C   UNL     1       0.001   9.779  18.951  0.00  0.00    +0.000 A 
ATOM     10  C   UNL     1      -0.054   9.859  20.366  0.00  0.00    +0.000 A 
ENDROOT
BRANCH   1  14
ATOM     11  C   UNL     1       1.900   7.443  17.712  0.00  0.00    +0.000 C 
ATOM     12  C   UNL     1       2.807   7.076  18.893  0.00  0.00    +0.000 C 
ATOM     13  C   UNL     1       2.675   8.109  20.054  0.00  0.00    +0.000 C 
ATOM     14  N   UNL     1       1.374   7.897  20.701  0.00  0.00    +0.000 N 
ATOM     15  C   UNL     1       1.285   6.564  21.325  0.00  0.00    +0.000 C 
ATOM     16  C   UNL     1       1.336   5.518  20.194  0.00  0.00    +0.000 C 
ATOM     17  N   UNL     1       2.546   5.676  19.369  0.00  0.00    +0.000 N 
ATOM     18  C   UNL     1       3.075   4.507  18.810  0.00  0.00    +0.000 C 
ATOM     19  O   UNL     1       2.556   3.399  18.952  0.00  0.00    +0.000 OA
BRANCH  18  20
ATOM     20  C   UNL     1       4.335   4.574  18.026  0.00  0.00    +0.000 A 
ATOM     21  C   UNL     1       4.330   4.545  16.627  0.00  0.00    +0.000 A 
ATOM     22  C   UNL     1       5.530   4.506  15.921  0.00  0.00    +0.000 A 
ATOM     23  C   UNL     1       6.738   4.604  16.604  0.00  0.00    +0.000 A 
ATOM     24  C   UNL     1       6.748   4.744  17.993  0.00  0.00    +0.000 A 
ATOM     25  C   UNL     1       5.548   4.720  18.707  0.00  0.00    +0.000 A 
ENDBRANCH  18  20
ENDBRANCH   1  14
BRANCH   4  26
ATOM     26  N   UNL     1      -1.573  12.100  22.966  0.00  0.00    +0.000 N 
ATOM     27  C   UNL     1      -0.990  13.441  22.937  0.00  0.00    +0.000 C 
ATOM     28  C   UNL     1      -1.742  14.351  23.878  0.00  0.00    +0.000 C 
ATOM     29  C   UNL     1      -2.937  14.046  24.393  0.00  0.00    +0.000 C 
ATOM     30  C   UNL     1      -3.522  12.784  23.914  0.00  0.00    +0.000 C 
ATOM     31  N   UNL     1      -2.915  11.889  23.205  0.00  0.00    +0.000 NA
ENDBRANCH   4  26
TORSDOF 3
ENDMDL
MODEL 5
REMARK VINA RESULT:      -7.2      2.709      9.616
REMARK  Name = 
REMARK  4 active torsions:
REMARK  status: ('A' for Active; 'I' for Inactive)
REMARK    1  A    between atoms: C_1  and  C_2
REMARK    2  A    between atoms: N_4  and  C_5
REMARK    3  A    between atoms: C_8  and  N_9
REMARK    4  A    between atoms: C_24  and  C_26
REMARK                            x       y       z     vdW  Elec       q    Type
REMARK                         _______ _______ _______ _____ _____    ______ ____
ROOT
ATOM      1  C   UNL     1       1.826   8.892  18.513  0.00  0.00    +0.000 A 
ATOM      2  N   UNL     1       2.593   9.126  17.423  0.00  0.00    +0.000 NA
ATOM      3  N   UNL     1       3.560   8.227  17.003  0.00  0.00    +0.000 NA
ATOM      4  C   UNL     1       3.777   7.064  17.664  0.00  0.00    +0.000 A 
ATOM      5  C   UNL     1       2.982   6.757  18.798  0.00  0.00    +0.000 A 
ATOM      6  C   UNL     1       3.029   5.512  19.483  0.00  0.00    +0.000 A 
ATOM      7  C   UNL     1       2.257   5.229  20.607  0.00  0.00    +0.000 A 
ATOM      8  C   UNL     1       1.440   6.209  21.124  0.00  0.00    +0.000 A 
ATOM      9  C   UNL     1       1.375   7.441  20.482  0.00  0.00    +0.000 A 
ATOM     10  C   UNL     1       2.050   7.711  19.265  0.00  0.00    +0.000 A 
ENDROOT
BRANCH   1  14
ATOM     11  C   UNL     1      -0.320  10.071  21.692  0.00  0.00    +0.000 C 
ATOM     12  C   UNL     1      -0.108  11.181  20.655  0.00  0.00    +0.000 C 
ATOM     13  C   UNL     1       1.157  10.910  19.783  0.00  0.00    +0.000 C 
ATOM     14  N   UNL     1       0.845   9.807  18.866  0.00  0.00    +0.000 N 
ATOM     15  C   UNL     1      -0.232  10.166  17.926  0.00  0.00    +0.000 C 
ATOM     16  C   UNL     1      -1.519  10.367  18.749  0.00  0.00    +0.000 C 
ATOM     17  N   UNL     1      -1.331  11.376  19.805  0.00  0.00    +0.000 N 
ATOM     18  C   UNL     1      -2.455  12.136  20.147  0.00  0.00    +0.000 C 
ATOM     19  O   UNL     1      -3.564  11.964  19.638  0.00  0.00    +0.000 OA
BRANCH  18  20
ATOM     20  C   UNL     1      -2.328  13.224  21.151  0.00  0.00    +0.000 A 
ATOM     21  C   UNL     1      -1.881  14.501  20.794  0.00  0.00    +0.000 A 
ATOM     22  C   UNL     1      -1.673  15.471  21.771  0.00  0.00    +0.000 A 
ATOM     23  C   UNL     1      -2.014  15.204  23.095  0.00  0.00    +0.000 A 
ATOM     24  C   UNL     1      -2.564  13.969  23.440  0.00  0.00    +0.000 A 
ATOM     25  C   UNL     1      -2.714  12.974  22.472  0.00  0.00    +0.000 A 
ENDBRANCH  18  20
ENDBRANCH   1  14
BRANCH   4  26
ATOM     26  N   UNL     1       4.759   6.155  17.184  0.00  0.00    +0.000 N 
ATOM     27  C   UNL     1       4.262   4.913  16.591  0.00  0.00    +0.000 C 
ATOM     28  C   UNL     1       5.399   3.937  16.410  0.00  0.00    +0.000 C 
ATOM     29  C   UNL     1       6.686   4.290  16.482  0.00  0.00    +0.000 C 
ATOM     30  C   UNL     1       6.931   5.728  16.671  0.00  0.00    +0.000 C 
ATOM     31  N   UNL     1       6.036   6.619  16.950  0.00  0.00    +0.000 NA
ENDBRANCH   4  26
TORSDOF 3
ENDMDL
MODEL 6
REMARK VINA RESULT:      -7.0      1.591      2.007
REMARK  Name = 
REMARK  4 active torsions:
REMARK  status: ('A' for Active; 'I' for Inactive)
REMARK    1  A    between atoms: C_1  and  C_2
REMARK    2  A    between atoms: N_4  and  C_5
REMARK    3  A    between atoms: C_8  and  N_9
REMARK    4  A    between atoms: C_24  and  C_26
REMARK                            x       y       z     vdW  Elec       q    Type
REMARK                         _______ _______ _______ _____ _____    ______ ____
ROOT
ATOM      1  C   UNL     1       0.395  10.098  20.305  0.00  0.00    +0.000 A 
ATOM      2  N   UNL     1       0.528  10.873  21.407  0.00  0.00    +0.000 NA
ATOM      3  N   UNL     1      -0.266  11.988  21.617  0.00  0.00    +0.000 NA
ATOM      4  C   UNL     1      -1.222  12.352  20.727  0.00  0.00    +0.000 A 
ATOM      5  C   UNL     1      -1.421  11.558  19.567  0.00  0.00    +0.000 A 
ATOM      6  C   UNL     1      -2.480  11.765  18.640  0.00  0.00    +0.000 A 
ATOM      7  C   UNL     1      -2.654  10.991  17.495  0.00  0.00    +0.000 A 
ATOM      8  C   UNL     1      -1.737  10.007  17.205  0.00  0.00    +0.000 A 
ATOM      9  C   UNL     1      -0.686   9.781  18.087  0.00  0.00    +0.000 A 
ATOM     10  C   UNL     1      -0.559  10.466  19.323  0.00  0.00    +0.000 A 
ENDROOT
BRANCH   1  14
ATOM     11  C   UNL     1       1.385   7.318  17.587  0.00  0.00    +0.000 C 
ATOM     12  C   UNL     1       2.483   7.569  18.628  0.00  0.00    +0.000 C 
ATOM     13  C   UNL     1       2.348   8.987  19.264  0.00  0.00    +0.000 C 
ATOM     14  N   UNL     1       1.189   8.970  20.165  0.00  0.00    +0.000 N 
ATOM     15  C   UNL     1       1.383   8.033  21.287  0.00  0.00    +0.000 C 
ATOM     16  C   UNL     1       1.444   6.610  20.698  0.00  0.00    +0.000 C 
ATOM     17  N   UNL     1       2.499   6.494  19.677  0.00  0.00    +0.000 N 
ATOM     18  C   UNL     1       3.121   5.246  19.563  0.00  0.00    +0.000 C 
ATOM     19  O   UNL     1       2.797   4.269  20.239  0.00  0.00    +0.000 OA
BRANCH  18  20
ATOM     20  C   UNL     1       4.244   5.070  18.606  0.00  0.00    +0.000 A 
ATOM     21  C   UNL     1       4.026   4.651  17.289  0.00  0.00    +0.000 A 
ATOM     22  C   UNL     1       5.105   4.397  16.445  0.00  0.00    +0.000 A 
ATOM     23  C   UNL     1       6.400   4.663  16.880  0.00  0.00    +0.000 A 
ATOM     24  C   UNL     1       6.618   5.187  18.155  0.00  0.00    +0.000 A 
ATOM     25  C   UNL     1       5.542   5.383  19.023  0.00  0.00    +0.000 A 
ENDBRANCH  18  20
ENDBRANCH   1  14
BRANCH   4  26
ATOM     26  N   UNL     1      -2.036  13.486  20.993  0.00  0.00    +0.000 N 
ATOM     27  C   UNL     1      -3.113  13.301  21.966  0.00  0.00    +0.000 C 
ATOM     28  C   UNL     1      -4.059  14.476  21.917  0.00  0.00    +0.000 C 
ATOM     29  C   UNL     1      -3.763  15.631  21.313  0.00  0.00    +0.000 C 
ATOM     30  C   UNL     1      -2.403  15.716  20.758  0.00  0.00    +0.000 C 
ATOM     31  N   UNL     1      -1.567  14.736  20.648  0.00  0.00    +0.000 NA
ENDBRANCH   4  26
TORSDOF 3
ENDMDL
MODEL 7
REMARK VINA RESULT:      -6.9      2.592      9.592
REMARK  Name = 
REMARK  4 active torsions:
REMARK  status: ('A' for Active; 'I' for Inactive)
REMARK    1  A    between atoms: C_1  and  C_2
REMARK    2  A    between atoms: N_4  and  C_5
REMARK    3  A    between atoms: C_8  and  N_9
REMARK    4  A    between atoms: C_24  and  C_26
REMARK                            x       y       z     vdW  Elec       q    Type
REMARK                         _______ _______ _______ _____ _____    ______ ____
ROOT
ATOM      1  C   UNL     1       2.221   7.904  19.233  0.00  0.00    +0.000 A 
ATOM      2  N   UNL     1       2.944   8.410  18.207  0.00  0.00    +0.000 NA
ATOM      3  N   UNL     1       3.828   7.628  17.481  0.00  0.00    +0.000 NA
ATOM      4  C   UNL     1       4.002   6.313  17.761  0.00  0.00    +0.000 A 
ATOM      5  C   UNL     1       3.247   5.727  18.810  0.00  0.00    +0.000 A 
ATOM      6  C   UNL     1       3.248   4.335  19.101  0.00  0.00    +0.000 A 
ATOM      7  C   UNL     1       2.517   3.773  20.146  0.00  0.00    +0.000 A 
ATOM      8  C   UNL     1       1.795   4.597  20.979  0.00  0.00    +0.000 A 
ATOM      9  C   UNL     1       1.777   5.965  20.726  0.00  0.00    +0.000 A 
ATOM     10  C   UNL     1       2.405   6.546  19.595  0.00  0.00    +0.000 A 
ENDROOT
BRANCH   1  14
ATOM     11  C   UNL     1       1.614  11.767  20.134  0.00  0.00    +0.000 C 
ATOM     12  C   UNL     1       0.318  10.951  20.050  0.00  0.00    +0.000 C 
ATOM     13  C   UNL     1       0.502   9.685  19.156  0.00  0.00    +0.000 C 
ATOM     14  N   UNL     1       1.321   8.722  19.901  0.00  0.00    +0.000 N 
ATOM     15  C   UNL     1       0.646   8.264  21.130  0.00  0.00    +0.000 C 
ATOM     16  C   UNL     1       0.518   9.479  22.069  0.00  0.00    +0.000 C 
ATOM     17  N   UNL     1      -0.192  10.592  21.416  0.00  0.00    +0.000 N 
ATOM     18  C   UNL     1      -0.958  11.416  22.249  0.00  0.00    +0.000 C 
ATOM     19  O   UNL     1      -1.022  11.265  23.469  0.00  0.00    +0.000 OA
BRANCH  18  20
ATOM     20  C   UNL     1      -1.761  12.515  21.655  0.00  0.00    +0.000 A 
ATOM     21  C   UNL     1      -1.277  13.827  21.596  0.00  0.00    +0.000 A 
ATOM     22  C   UNL     1      -2.091  14.856  21.128  0.00  0.00    +0.000 A 
ATOM     23  C   UNL     1      -3.352  14.562  20.616  0.00  0.00    +0.000 A 
ATOM     24  C   UNL     1      -3.798  13.240  20.569  0.00  0.00    +0.000 A 
ATOM     25  C   UNL     1      -3.008  12.217  21.096  0.00  0.00    +0.000 A 
ENDBRANCH  18  20
ENDBRANCH   1  14
BRANCH   4  26
ATOM     26  N   UNL     1       4.895   5.539  16.973  0.00  0.00    +0.000 N 
ATOM     27  C   UNL     1       6.263   5.408  17.476  0.00  0.00    +0.000 C 
ATOM     28  C   UNL     1       7.154   4.829  16.405  0.00  0.00    +0.000 C 
ATOM     29  C   UNL     1       6.684   4.237  15.302  0.00  0.00    +0.000 C 
ATOM     30  C   UNL     1       5.220   4.112  15.234  0.00  0.00    +0.000 C 
ATOM     31  N   UNL     1       4.374   4.671  16.036  0.00  0.00    +0.000 NA
ENDBRANCH   4  26
TORSDOF 3
ENDMDL
MODEL 8
REMARK VINA RESULT:      -6.9      2.638      9.598
REMARK  Name = 
REMARK  4 active torsions:
REMARK  status: ('A' for Active; 'I' for Inactive)
REMARK    1  A    between atoms: C_1  and  C_2
REMARK    2  A    between atoms: N_4  and  C_5
REMARK    3  A    between atoms: C_8  and  N_9
REMARK    4  A    between atoms: C_24  and  C_26
REMARK                            x       y       z     vdW  Elec       q    Type
REMARK                         _______ _______ _______ _____ _____    ______ ____
ROOT
ATOM      1  C   UNL     1       2.213   8.055  19.186  0.00  0.00    +0.000 A 
ATOM      2  N   UNL     1       2.925   8.601  18.172  0.00  0.00    +0.000 NA
ATOM      3  N   UNL     1       3.825   7.856  17.428  0.00  0.00    +0.000 NA
ATOM      4  C   UNL     1       4.028   6.539  17.678  0.00  0.00    +0.000 A 
ATOM      5  C   UNL     1       3.288   5.912  18.713  0.00  0.00    +0.000 A 
ATOM      6  C   UNL     1       3.319   4.514  18.971  0.00  0.00    +0.000 A 
ATOM      7  C   UNL     1       2.602   3.912  20.002  0.00  0.00    +0.000 A 
ATOM      8  C   UNL     1       1.861   4.700  20.854  0.00  0.00    +0.000 A 
ATOM      9  C   UNL     1       1.813   6.072  20.633  0.00  0.00    +0.000 A 
ATOM     10  C   UNL     1       2.427   6.694  19.516  0.00  0.00    +0.000 A 
ENDROOT
BRANCH   1  14
ATOM     11  C   UNL     1       1.494  11.887  20.135  0.00  0.00    +0.000 C 
ATOM     12  C   UNL     1       0.224  11.031  20.057  0.00  0.00    +0.000 C 
ATOM     13  C   UNL     1       0.437   9.781  19.148  0.00  0.00    +0.000 C 
ATOM     14  N   UNL     1       1.296   8.837  19.874  0.00  0.00    +0.000 N 
ATOM     15  C   UNL     1       0.650   8.345  21.105  0.00  0.00    +0.000 C 
ATOM     16  C   UNL     1       0.494   9.545  22.058  0.00  0.00    +0.000 C 
ATOM     17  N   UNL     1      -0.258  10.641  21.425  0.00  0.00    +0.000 N 
ATOM     18  C   UNL     1      -1.040  11.432  22.275  0.00  0.00    +0.000 C 
ATOM     19  O   UNL     1      -1.085  11.267  23.495  0.00  0.00    +0.000 OA
BRANCH  18  20
ATOM     20  C   UNL     1      -1.885  12.511  21.702  0.00  0.00    +0.000 A 
ATOM     21  C   UNL     1      -3.142  12.241  21.149  0.00  0.00    +0.000 A 
ATOM     22  C   UNL     1      -3.868  13.255  20.527  0.00  0.00    +0.000 A 
ATOM     23  C   UNL     1      -3.390  14.562  20.551  0.00  0.00    +0.000 A 
ATOM     24  C   UNL     1      -2.190  14.858  21.199  0.00  0.00    +0.000 A 
ATOM     25  C   UNL     1      -1.431  13.833  21.767  0.00  0.00    +0.000 A 
ENDBRANCH  18  20
ENDBRANCH   1  14
BRANCH   4  26
ATOM     26  N   UNL     1       4.939   5.803  16.872  0.00  0.00    +0.000 N 
ATOM     27  C   UNL     1       4.930   6.102  15.440  0.00  0.00    +0.000 C 
ATOM     28  C   UNL     1       5.712   5.053  14.689  0.00  0.00    +0.000 C 
ATOM     29  C   UNL     1       6.538   4.187  15.285  0.00  0.00    +0.000 C 
ATOM     30  C   UNL     1       6.703   4.377  16.734  0.00  0.00    +0.000 C 
ATOM     31  N   UNL     1       5.999   5.165  17.481  0.00  0.00    +0.000 NA
ENDBRANCH   4  26
TORSDOF 3
ENDMDL
MODEL 9
REMARK VINA RESULT:      -6.8      1.460      1.814
REMARK  Name = 
REMARK  4 active torsions:
REMARK  status: ('A' for Active; 'I' for Inactive)
REMARK    1  A    between atoms: C_1  and  C_2
REMARK    2  A    between atoms: N_4  and  C_5
REMARK    3  A    between atoms: C_8  and  N_9
REMARK    4  A    between atoms: C_24  and  C_26
REMARK                            x       y       z     vdW  Elec       q    Type
REMARK                         _______ _______ _______ _____ _____    ______ ____
ROOT
ATOM      1  C   UNL     1       0.561   9.955  20.388  0.00  0.00    +0.000 A 
ATOM      2  N   UNL     1       0.757  10.705  21.498  0.00  0.00    +0.000 NA
ATOM      3  N   UNL     1       0.027  11.856  21.740  0.00  0.00    +0.000 NA
ATOM      4  C   UNL     1      -0.928  12.282  20.877  0.00  0.00    +0.000 A 
ATOM      5  C   UNL     1      -1.192  11.518  19.711  0.00  0.00    +0.000 A 
ATOM      6  C   UNL     1      -2.258  11.793  18.811  0.00  0.00    +0.000 A 
ATOM      7  C   UNL     1      -2.496  11.047  17.659  0.00  0.00    +0.000 A 
ATOM      8  C   UNL     1      -1.638  10.021  17.334  0.00  0.00    +0.000 A 
ATOM      9  C   UNL     1      -0.582   9.728  18.190  0.00  0.00    +0.000 A 
ATOM     10  C   UNL     1      -0.393  10.386  19.432  0.00  0.00    +0.000 A 
ENDROOT
BRANCH   1  14
ATOM     11  C   UNL     1       1.439   7.231  17.575  0.00  0.00    +0.000 C 
ATOM     12  C   UNL     1       2.531   7.379  18.641  0.00  0.00    +0.000 C 
ATOM     13  C   UNL     1       2.466   8.776  19.332  0.00  0.00    +0.000 C 
ATOM     14  N   UNL     1       1.292   8.789  20.214  0.00  0.00    +0.000 N 
ATOM     15  C   UNL     1       1.414   7.799  21.300  0.00  0.00    +0.000 C 
ATOM     16  C   UNL     1       1.404   6.400  20.656  0.00  0.00    +0.000 C 
ATOM     17  N   UNL     1       2.468   6.264  19.647  0.00  0.00    +0.000 N 
ATOM     18  C   UNL     1       3.020   4.988  19.492  0.00  0.00    +0.000 C 
ATOM     19  O   UNL     1       2.631   4.005  20.123  0.00  0.00    +0.000 OA
BRANCH  18  20
ATOM     20  C   UNL     1       4.149   4.786  18.546  0.00  0.00    +0.000 A 
ATOM     21  C   UNL     1       5.470   5.065  18.912  0.00  0.00    +0.000 A 
ATOM     22  C   UNL     1       6.495   4.965  17.975  0.00  0.00    +0.000 A 
ATOM     23  C   UNL     1       6.220   4.482  16.698  0.00  0.00    +0.000 A 
ATOM     24  C   UNL     1       4.922   4.097  16.360  0.00  0.00    +0.000 A 
ATOM     25  C   UNL     1       3.883   4.256  17.279  0.00  0.00    +0.000 A 
ENDBRANCH  18  20
ENDBRANCH   1  14
BRANCH   4  26
ATOM     26  N   UNL     1      -1.676  13.452  21.177  0.00  0.00    +0.000 N 
ATOM     27  C   UNL     1      -1.289  14.673  20.469  0.00  0.00    +0.000 C 
ATOM     28  C   UNL     1      -1.955  15.870  21.102  0.00  0.00    +0.000 C 
ATOM     29  C   UNL     1      -2.978  15.772  21.957  0.00  0.00    +0.000 C 
ATOM     30  C   UNL     1      -3.475  14.407  22.185  0.00  0.00    +0.000 C 
ATOM     31  N   UNL     1      -2.907  13.316  21.784  0.00  0.00    +0.000 NA
ENDBRANCH   4  26
TORSDOF 3
ENDMDL
