MODEL 1
REMARK VINA RESULT:      -4.1      0.000      0.000
REMARK  Name = 
REMARK  0 active torsions:
REMARK  status: ('A' for Active; 'I' for Inactive)
REMARK                            x       y       z     vdW  Elec       q    Type
REMARK                         _______ _______ _______ _____ _____    ______ ____
ROOT
ATOM      1  N   UNL     1       4.906   4.269  28.184  0.00  0.00    +0.000 N 
ATOM      2  C   UNL     1       6.207   4.553  28.060  0.00  0.00    +0.000 A 
ATOM      3  N   UNL     1       7.103   3.907  27.358  0.00  0.00    +0.000 NA
ATOM      4  C   UNL     1       8.284   4.569  27.577  0.00  0.00    +0.000 A 
ATOM      5  C   UNL     1       8.095   5.645  28.412  0.00  0.00    +0.000 A 
ATOM      6  N   UNL     1       6.758   5.629  28.698  0.00  0.00    +0.000 N 
ATOM      7  H   UNL     1       4.525   3.670  27.451  0.00  0.00    +0.000 HD
ATOM      8  H   UNL     1       4.248   4.975  28.478  0.00  0.00    +0.000 HD
ATOM      9  H   UNL     1       6.258   6.281  29.281  0.00  0.00    +0.000 HD
ENDROOT
TORSDOF 0
ENDMDL
MODEL 2
REMARK VINA RESULT:      -3.9      1.236      1.370
REMARK  Name = 
REMARK  0 active torsions:
REMARK  status: ('A' for Active; 'I' for Inactive)
REMARK                            x       y       z     vdW  Elec       q    Type
REMARK                         _______ _______ _______ _____ _____    ______ ____
ROOT
ATOM      1  N   UNL     1       6.089   5.301  27.810  0.00  0.00    +0.000 N 
ATOM      2  C   UNL     1       7.382   4.964  27.753  0.00  0.00    +0.000 A 
ATOM      3  N   UNL     1       7.920   3.967  27.098  0.00  0.00    +0.000 NA
ATOM      4  C   UNL     1       9.262   4.031  27.377  0.00  0.00    +0.000 A 
ATOM      5  C   UNL     1       9.541   5.095  28.201  0.00  0.00    +0.000 A 
ATOM      6  N   UNL     1       8.330   5.691  28.417  0.00  0.00    +0.000 N 
ATOM      7  H   UNL     1       5.512   4.922  27.058  0.00  0.00    +0.000 HD
ATOM      8  H   UNL     1       5.808   6.235  28.070  0.00  0.00    +0.000 HD
ATOM      9  H   UNL     1       8.152   6.513  28.974  0.00  0.00    +0.000 HD
ENDROOT
TORSDOF 0
ENDMDL
MODEL 3
REMARK VINA RESULT:      -3.8      9.564     10.236
REMARK  Name = 
REMARK  0 active torsions:
REMARK  status: ('A' for Active; 'I' for Inactive)
REMARK                            x       y       z     vdW  Elec       q    Type
REMARK                         _______ _______ _______ _____ _____    ______ ____
ROOT
ATOM      1  N   UNL     1       8.187   5.521  20.078  0.00  0.00    +0.000 N 
ATOM      2  C   UNL     1       7.773   5.515  18.806  0.00  0.00    +0.000 A 
ATOM      3  N   UNL     1       7.452   6.544  18.065  0.00  0.00    +0.000 NA
ATOM      4  C   UNL     1       7.070   6.017  16.857  0.00  0.00    +0.000 A 
ATOM      5  C   UNL     1       7.178   4.647  16.864  0.00  0.00    +0.000 A 
ATOM      6  N   UNL     1       7.646   4.343  18.112  0.00  0.00    +0.000 N 
ATOM      7  H   UNL     1       8.552   6.416  20.406  0.00  0.00    +0.000 HD
ATOM      8  H   UNL     1       8.698   4.740  20.460  0.00  0.00    +0.000 HD
ATOM      9  H   UNL     1       7.852   3.426  18.473  0.00  0.00    +0.000 HD
ENDROOT
TORSDOF 0
ENDMDL
MODEL 4
REMARK VINA RESULT:      -3.8     11.704     12.342
REMARK  Name = 
REMARK  0 active torsions:
REMARK  status: ('A' for Active; 'I' for Inactive)
REMARK                            x       y       z     vdW  Elec       q    Type
REMARK                         _______ _______ _______ _____ _____    ______ ____
ROOT
ATOM      1  N   UNL     1       7.422   4.393  17.887  0.00  0.00    +0.000 N 
ATOM      2  C   UNL     1       7.093   4.458  16.592  0.00  0.00    +0.000 A 
ATOM      3  N   UNL     1       7.552   5.287  15.691  0.00  0.00    +0.000 NA
ATOM      4  C   UNL     1       6.890   4.970  14.532  0.00  0.00    +0.000 A 
ATOM      5  C   UNL     1       6.028   3.918  14.734  0.00  0.00    +0.000 A 
ATOM      6  N   UNL     1       6.183   3.592  16.052  0.00  0.00    +0.000 N 
ATOM      7  H   UNL     1       8.309   4.839  18.128  0.00  0.00    +0.000 HD
ATOM      8  H   UNL     1       7.264   3.551  18.420  0.00  0.00    +0.000 HD
ATOM      9  H   UNL     1       5.710   2.856  16.552  0.00  0.00    +0.000 HD
ENDROOT
TORSDOF 0
ENDMDL
MODEL 5
REMARK VINA RESULT:      -3.8      1.641      2.711
REMARK  Name = 
REMARK  0 active torsions:
REMARK  status: ('A' for Active; 'I' for Inactive)
REMARK                            x       y       z     vdW  Elec       q    Type
REMARK                         _______ _______ _______ _____ _____    ______ ____
ROOT
ATOM      1  N   UNL     1      10.232   4.012  27.396  0.00  0.00    +0.000 N 
ATOM      2  C   UNL     1       8.982   4.424  27.637  0.00  0.00    +0.000 A 
ATOM      3  N   UNL     1       7.870   3.909  27.180  0.00  0.00    +0.000 NA
ATOM      4  C   UNL     1       6.868   4.698  27.688  0.00  0.00    +0.000 A 
ATOM      5  C   UNL     1       7.385   5.697  28.479  0.00  0.00    +0.000 A 
ATOM      6  N   UNL     1       8.737   5.496  28.450  0.00  0.00    +0.000 N 
ATOM      7  H   UNL     1      10.311   3.052  27.059  0.00  0.00    +0.000 HD
ATOM      8  H   UNL     1      10.987   4.260  28.018  0.00  0.00    +0.000 HD
ATOM      9  H   UNL     1       9.439   6.040  28.926  0.00  0.00    +0.000 HD
ENDROOT
TORSDOF 0
ENDMDL
MODEL 6
REMARK VINA RESULT:      -3.6     10.737     11.369
REMARK  Name = 
REMARK  0 active torsions:
REMARK  status: ('A' for Active; 'I' for Inactive)
REMARK                            x       y       z     vdW  Elec       q    Type
REMARK                         _______ _______ _______ _____ _____    ______ ____
ROOT
ATOM      1  N   UNL     1       7.882   4.767  18.649  0.00  0.00    +0.000 N 
ATOM      2  C   UNL     1       7.259   4.547  17.486  0.00  0.00    +0.000 A 
ATOM      3  N   UNL     1       7.750   4.672  16.280  0.00  0.00    +0.000 NA
ATOM      4  C   UNL     1       6.716   4.361  15.432  0.00  0.00    +0.000 A 
ATOM      5  C   UNL     1       5.587   4.025  16.140  0.00  0.00    +0.000 A 
ATOM      6  N   UNL     1       5.956   4.133  17.452  0.00  0.00    +0.000 N 
ATOM      7  H   UNL     1       8.902   4.758  18.598  0.00  0.00    +0.000 HD
ATOM      8  H   UNL     1       7.541   4.356  19.505  0.00  0.00    +0.000 HD
ATOM      9  H   UNL     1       5.379   3.953  18.258  0.00  0.00    +0.000 HD
ENDROOT
TORSDOF 0
ENDMDL
MODEL 7
REMARK VINA RESULT:      -3.6      9.457     10.037
REMARK  Name = 
REMARK  0 active torsions:
REMARK  status: ('A' for Active; 'I' for Inactive)
REMARK                            x       y       z     vdW  Elec       q    Type
REMARK                         _______ _______ _______ _____ _____    ______ ____
ROOT
ATOM      1  N   UNL     1       8.275   5.539  20.198  0.00  0.00    +0.000 N 
ATOM      2  C   UNL     1       7.838   5.520  18.934  0.00  0.00    +0.000 A 
ATOM      3  N   UNL     1       7.596   4.474  18.187  0.00  0.00    +0.000 NA
ATOM      4  C   UNL     1       7.196   4.976  16.975  0.00  0.00    +0.000 A 
ATOM      5  C   UNL     1       7.180   6.350  16.995  0.00  0.00    +0.000 A 
ATOM      6  N   UNL     1       7.576   6.682  18.261  0.00  0.00    +0.000 N 
ATOM      7  H   UNL     1       8.140   4.668  20.712  0.00  0.00    +0.000 HD
ATOM      8  H   UNL     1       8.137   6.350  20.781  0.00  0.00    +0.000 HD
ATOM      9  H   UNL     1       7.674   7.610  18.640  0.00  0.00    +0.000 HD
ENDROOT
TORSDOF 0
ENDMDL
MODEL 8
REMARK VINA RESULT:      -3.5     10.973     11.244
REMARK  Name = 
REMARK  0 active torsions:
REMARK  status: ('A' for Active; 'I' for Inactive)
REMARK                            x       y       z     vdW  Elec       q    Type
REMARK                         _______ _______ _______ _____ _____    ______ ____
ROOT
ATOM      1  N   UNL     1       3.984   0.849  18.292  0.00  0.00    +0.000 N 
ATOM      2  C   UNL     1       3.049   1.805  18.250  0.00  0.00    +0.000 A 
ATOM      3  N   UNL     1       3.134   2.983  17.688  0.00  0.00    +0.000 NA
ATOM      4  C   UNL     1       1.932   3.595  17.941  0.00  0.00    +0.000 A 
ATOM      5  C   UNL     1       1.101   2.766  18.656  0.00  0.00    +0.000 A 
ATOM      6  N   UNL     1       1.824   1.619  18.830  0.00  0.00    +0.000 N 
ATOM      7  H   UNL     1       4.718   0.936  17.588  0.00  0.00    +0.000 HD
ATOM      8  H   UNL     1       3.734  -0.112  18.464  0.00  0.00    +0.000 HD
ATOM      9  H   UNL     1       1.525   0.783  19.307  0.00  0.00    +0.000 HD
ENDROOT
TORSDOF 0
ENDMDL
MODEL 9
REMARK VINA RESULT:      -3.5     12.100     12.700
REMARK  Name = 
REMARK  0 active torsions:
REMARK  status: ('A' for Active; 'I' for Inactive)
REMARK                            x       y       z     vdW  Elec       q    Type
REMARK                         _______ _______ _______ _____ _____    ______ ____
ROOT
ATOM      1  N   UNL     1       7.396   4.411  17.488  0.00  0.00    +0.000 N 
ATOM      2  C   UNL     1       6.991   4.397  16.213  0.00  0.00    +0.000 A 
ATOM      3  N   UNL     1       6.024   3.690  15.689  0.00  0.00    +0.000 NA
ATOM      4  C   UNL     1       6.021   4.009  14.354  0.00  0.00    +0.000 A 
ATOM      5  C   UNL     1       6.993   4.939  14.071  0.00  0.00    +0.000 A 
ATOM      6  N   UNL     1       7.593   5.189  15.274  0.00  0.00    +0.000 N 
ATOM      7  H   UNL     1       6.715   4.053  18.158  0.00  0.00    +0.000 HD
ATOM      8  H   UNL     1       7.920   5.190  17.857  0.00  0.00    +0.000 HD
ATOM      9  H   UNL     1       8.351   5.830  15.450  0.00  0.00    +0.000 HD
ENDROOT
TORSDOF 0
ENDMDL
