MODEL 1
REMARK VINA RESULT:      -6.9      0.000      0.000
REMARK  Name = 
REMARK  5 active torsions:
REMARK  status: ('A' for Active; 'I' for Inactive)
REMARK    1  A    between atoms: C_1  and  O_2
REMARK    2  A    between atoms: O_2  and  C_3
REMARK    3  A    between atoms: C_3  and  C_4
REMARK    4  A    between atoms: C_13  and  C_14
REMARK    5  A    between atoms: C_24  and  C_25
REMARK                            x       y       z     vdW  Elec       q    Type
REMARK                         _______ _______ _______ _____ _____    ______ ____
ROOT
ATOM      1  C   UNL     1       0.866  11.452  18.314  0.00  0.00    +0.000 C 
ATOM      2  O   UNL     1       1.163  10.101  17.665  0.00  0.00    +0.000 OA
ATOM      3  C   UNL     1       1.633   9.027  18.401  0.00  0.00    +0.000 C 
ATOM      4  O   UNL     1       2.227   8.082  17.905  0.00  0.00    +0.000 OA
ATOM      5  C   UNL     1       1.248   9.085  19.788  0.00  0.00    +0.000 A 
ATOM      6  C   UNL     1       1.487   8.234  20.846  0.00  0.00    +0.000 A 
ATOM      7  O   UNL     1       0.857   8.685  21.984  0.00  0.00    +0.000 OA
ATOM      8  C   UNL     1       0.200   9.826  21.630  0.00  0.00    +0.000 A 
ATOM      9  C   UNL     1       0.428  10.091  20.310  0.00  0.00    +0.000 A 
ATOM     10  C   UNL     1      -0.138  11.217  19.532  0.00  0.00    +0.000 C 
ATOM     11  C   UNL     1      -1.434  10.712  18.800  0.00  0.00    +0.000 C 
ATOM     12  C   UNL     1      -0.738  12.223  20.565  0.00  0.00    +0.000 C 
ATOM     13  C   UNL     1      -1.153  11.892  21.834  0.00  0.00    +0.000 C 
ATOM     14  C   UNL     1      -0.621  10.628  22.500  0.00  0.00    +0.000 C 
ATOM     15  O   UNL     1      -0.859  10.395  23.679  0.00  0.00    +0.000 OA
ATOM     16  C   UNL     1      -2.136  12.747  22.623  0.00  0.00    +0.000 C 
ATOM     17  C   UNL     1      -3.221  12.194  23.594  0.00  0.00    +0.000 C 
ATOM     18  C   UNL     1      -4.191  13.380  23.808  0.00  0.00    +0.000 C 
ATOM     19  C   UNL     1      -3.851  14.282  22.645  0.00  0.00    +0.000 C 
ATOM     20  O   UNL     1      -4.217  15.443  22.537  0.00  0.00    +0.000 OA
ATOM     21  C   UNL     1      -3.011  13.547  21.628  0.00  0.00    +0.000 C 
ATOM     22  C   UNL     1      -3.964  12.691  20.755  0.00  0.00    +0.000 C 
ATOM     23  C   UNL     1      -2.119  14.428  20.772  0.00  0.00    +0.000 C 
ATOM     24  C   UNL     1      -1.090  13.584  20.041  0.00  0.00    +0.000 C 
ATOM     25  O   UNL     1      -0.524  14.002  19.030  0.00  0.00    +0.000 OA
ENDROOT
BRANCH   1  26
ATOM     26  C   UNL     1       2.249  12.140  18.343  0.00  0.00    +0.000 C 
BRANCH  26  28
ATOM     27  C   UNL     1       2.921  13.950  19.862  0.00  0.00    +0.000 C 
ATOM     28  O   UNL     1       2.289  12.701  19.680  0.00  0.00    +0.000 OA
ENDBRANCH  26  28
ENDBRANCH   1  26
TORSDOF 2
ENDMDL
MODEL 2
REMARK VINA RESULT:      -6.7      1.710      3.644
REMARK  Name = 
REMARK  5 active torsions:
REMARK  status: ('A' for Active; 'I' for Inactive)
REMARK    1  A    between atoms: C_1  and  O_2
REMARK    2  A    between atoms: O_2  and  C_3
REMARK    3  A    between atoms: C_3  and  C_4
REMARK    4  A    between atoms: C_13  and  C_14
REMARK    5  A    between atoms: C_24  and  C_25
REMARK                            x       y       z     vdW  Elec       q    Type
REMARK                         _______ _______ _______ _____ _____    ______ ____
ROOT
ATOM      1  C   UNL     1       0.378  10.441  20.745  0.00  0.00    +0.000 C 
ATOM      2  O   UNL     1       1.204  10.176  19.488  0.00  0.00    +0.000 OA
ATOM      3  C   UNL     1       0.615   9.797  18.294  0.00  0.00    +0.000 C 
ATOM      4  O   UNL     1       1.217   9.225  17.400  0.00  0.00    +0.000 OA
ATOM      5  C   UNL     1      -0.747  10.252  18.172  0.00  0.00    +0.000 A 
ATOM      6  C   UNL     1      -1.678  10.109  17.165  0.00  0.00    +0.000 A 
ATOM      7  O   UNL     1      -2.840  10.776  17.482  0.00  0.00    +0.000 OA
ATOM      8  C   UNL     1      -2.630  11.358  18.696  0.00  0.00    +0.000 A 
ATOM      9  C   UNL     1      -1.374  11.048  19.136  0.00  0.00    +0.000 A 
ATOM     10  C   UNL     1      -0.746  11.518  20.393  0.00  0.00    +0.000 C 
ATOM     11  C   UNL     1       0.110  12.797  20.071  0.00  0.00    +0.000 C 
ATOM     12  C   UNL     1      -1.887  12.122  21.271  0.00  0.00    +0.000 C 
ATOM     13  C   UNL     1      -3.074  12.618  20.783  0.00  0.00    +0.000 C 
ATOM     14  C   UNL     1      -3.570  12.184  19.408  0.00  0.00    +0.000 C 
ATOM     15  O   UNL     1      -4.690  12.494  19.021  0.00  0.00    +0.000 OA
ATOM     16  C   UNL     1      -3.936  13.599  21.568  0.00  0.00    +0.000 C 
ATOM     17  C   UNL     1      -4.765  14.758  20.942  0.00  0.00    +0.000 C 
ATOM     18  C   UNL     1      -5.107  15.681  22.136  0.00  0.00    +0.000 C 
ATOM     19  C   UNL     1      -4.106  15.236  23.176  0.00  0.00    +0.000 C 
ATOM     20  O   UNL     1      -4.154  15.539  24.359  0.00  0.00    +0.000 OA
ATOM     21  C   UNL     1      -3.031  14.380  22.551  0.00  0.00    +0.000 C 
ATOM     22  C   UNL     1      -1.999  15.327  21.884  0.00  0.00    +0.000 C 
ATOM     23  C   UNL     1      -2.355  13.404  23.496  0.00  0.00    +0.000 C 
ATOM     24  C   UNL     1      -1.554  12.380  22.711  0.00  0.00    +0.000 C 
ATOM     25  O   UNL     1      -0.642  11.742  23.237  0.00  0.00    +0.000 OA
ENDROOT
BRANCH   1  26
ATOM     26  C   UNL     1       0.186   9.030  21.344  0.00  0.00    +0.000 C 
BRANCH  26  28
ATOM     27  C   UNL     1       1.655   7.140  20.785  0.00  0.00    +0.000 C 
ATOM     28  O   UNL     1       1.520   8.468  21.249  0.00  0.00    +0.000 OA
ENDBRANCH  26  28
ENDBRANCH   1  26
TORSDOF 2
ENDMDL
MODEL 3
REMARK VINA RESULT:      -6.5      7.223     11.114
REMARK  Name = 
REMARK  5 active torsions:
REMARK  status: ('A' for Active; 'I' for Inactive)
REMARK    1  A    between atoms: C_1  and  O_2
REMARK    2  A    between atoms: O_2  and  C_3
REMARK    3  A    between atoms: C_3  and  C_4
REMARK    4  A    between atoms: C_13  and  C_14
REMARK    5  A    between atoms: C_24  and  C_25
REMARK                            x       y       z     vdW  Elec       q    Type
REMARK                         _______ _______ _______ _____ _____    ______ ____
ROOT
ATOM      1  C   UNL     1       7.273  15.671  22.773  0.00  0.00    +0.000 C 
ATOM      2  O   UNL     1       7.296  15.695  24.300  0.00  0.00    +0.000 OA
ATOM      3  C   UNL     1       7.084  14.550  25.050  0.00  0.00    +0.000 C 
ATOM      4  O   UNL     1       6.724  14.569  26.216  0.00  0.00    +0.000 OA
ATOM      5  C   UNL     1       7.446  13.345  24.348  0.00  0.00    +0.000 A 
ATOM      6  C   UNL     1       7.407  12.018  24.719  0.00  0.00    +0.000 A 
ATOM      7  O   UNL     1       7.917  11.220  23.719  0.00  0.00    +0.000 OA
ATOM      8  C   UNL     1       8.294  12.060  22.714  0.00  0.00    +0.000 A 
ATOM      9  C   UNL     1       8.012  13.348  23.069  0.00  0.00    +0.000 A 
ATOM     10  C   UNL     1       8.304  14.561  22.270  0.00  0.00    +0.000 C 
ATOM     11  C   UNL     1       9.682  15.148  22.747  0.00  0.00    +0.000 C 
ATOM     12  C   UNL     1       8.657  14.078  20.827  0.00  0.00    +0.000 C 
ATOM     13  C   UNL     1       9.136  12.828  20.513  0.00  0.00    +0.000 C 
ATOM     14  C   UNL     1       8.908  11.665  21.473  0.00  0.00    +0.000 C 
ATOM     15  O   UNL     1       9.192  10.519  21.145  0.00  0.00    +0.000 OA
ATOM     16  C   UNL     1       9.895  12.542  19.224  0.00  0.00    +0.000 C 
ATOM     17  C   UNL     1      11.077  11.538  19.088  0.00  0.00    +0.000 C 
ATOM     18  C   UNL     1      11.749  11.908  17.744  0.00  0.00    +0.000 C 
ATOM     19  C   UNL     1      11.211  13.297  17.493  0.00  0.00    +0.000 C 
ATOM     20  O   UNL     1      11.300  13.894  16.431  0.00  0.00    +0.000 OA
ATOM     21  C   UNL     1      10.563  13.851  18.739  0.00  0.00    +0.000 C 
ATOM     22  C   UNL     1      11.688  14.395  19.658  0.00  0.00    +0.000 C 
ATOM     23  C   UNL     1       9.493  14.901  18.496  0.00  0.00    +0.000 C 
ATOM     24  C   UNL     1       8.686  15.133  19.761  0.00  0.00    +0.000 C 
ATOM     25  O   UNL     1       8.040  16.169  19.925  0.00  0.00    +0.000 OA
ENDROOT
BRANCH   1  26
ATOM     26  C   UNL     1       5.770  15.790  22.441  0.00  0.00    +0.000 C 
BRANCH  26  28
ATOM     27  C   UNL     1       4.721  14.906  20.402  0.00  0.00    +0.000 C 
ATOM     28  O   UNL     1       5.569  14.695  21.511  0.00  0.00    +0.000 OA
ENDBRANCH  26  28
ENDBRANCH   1  26
TORSDOF 2
ENDMDL
MODEL 4
REMARK VINA RESULT:      -6.5      2.272      4.432
REMARK  Name = 
REMARK  5 active torsions:
REMARK  status: ('A' for Active; 'I' for Inactive)
REMARK    1  A    between atoms: C_1  and  O_2
REMARK    2  A    between atoms: O_2  and  C_3
REMARK    3  A    between atoms: C_3  and  C_4
REMARK    4  A    between atoms: C_13  and  C_14
REMARK    5  A    between atoms: C_24  and  C_25
REMARK                            x       y       z     vdW  Elec       q    Type
REMARK                         _______ _______ _______ _____ _____    ______ ____
ROOT
ATOM      1  C   UNL     1      -0.833  11.773  21.676  0.00  0.00    +0.000 C 
ATOM      2  O   UNL     1       0.313  11.954  20.684  0.00  0.00    +0.000 OA
ATOM      3  C   UNL     1       0.193  11.584  19.355  0.00  0.00    +0.000 C 
ATOM      4  O   UNL     1       1.149  11.355  18.632  0.00  0.00    +0.000 OA
ATOM      5  C   UNL     1      -1.170  11.611  18.886  0.00  0.00    +0.000 A 
ATOM      6  C   UNL     1      -1.725  11.332  17.656  0.00  0.00    +0.000 A 
ATOM      7  O   UNL     1      -3.083  11.559  17.674  0.00  0.00    +0.000 OA
ATOM      8  C   UNL     1      -3.380  12.001  18.929  0.00  0.00    +0.000 A 
ATOM      9  C   UNL     1      -2.241  12.033  19.681  0.00  0.00    +0.000 A 
ATOM     10  C   UNL     1      -2.131  12.491  21.085  0.00  0.00    +0.000 C 
ATOM     11  C   UNL     1      -1.700  14.003  21.081  0.00  0.00    +0.000 C 
ATOM     12  C   UNL     1      -3.585  12.587  21.645  0.00  0.00    +0.000 C 
ATOM     13  C   UNL     1      -4.713  12.758  20.876  0.00  0.00    +0.000 C 
ATOM     14  C   UNL     1      -4.685  12.389  19.397  0.00  0.00    +0.000 C 
ATOM     15  O   UNL     1      -5.715  12.392  18.733  0.00  0.00    +0.000 OA
ATOM     16  C   UNL     1      -6.016  13.306  21.444  0.00  0.00    +0.000 C 
ATOM     17  C   UNL     1      -7.005  14.231  20.676  0.00  0.00    +0.000 C 
ATOM     18  C   UNL     1      -7.915  14.826  21.777  0.00  0.00    +0.000 C 
ATOM     19  C   UNL     1      -7.108  14.569  23.028  0.00  0.00    +0.000 C 
ATOM     20  O   UNL     1      -7.540  14.674  24.166  0.00  0.00    +0.000 OA
ATOM     21  C   UNL     1      -5.691  14.182  22.678  0.00  0.00    +0.000 C 
ATOM     22  C   UNL     1      -4.905  15.483  22.373  0.00  0.00    +0.000 C 
ATOM     23  C   UNL     1      -4.979  13.337  23.720  0.00  0.00    +0.000 C 
ATOM     24  C   UNL     1      -3.718  12.729  23.133  0.00  0.00    +0.000 C 
ATOM     25  O   UNL     1      -2.803  12.335  23.856  0.00  0.00    +0.000 OA
ENDROOT
BRANCH   1  26
ATOM     26  C   UNL     1      -0.684  10.302  22.123  0.00  0.00    +0.000 C 
BRANCH  26  28
ATOM     27  C   UNL     1       1.457   9.100  22.232  0.00  0.00    +0.000 C 
ATOM     28  O   UNL     1       0.700  10.248  22.556  0.00  0.00    +0.000 OA
ENDBRANCH  26  28
ENDBRANCH   1  26
TORSDOF 2
ENDMDL
MODEL 5
REMARK VINA RESULT:      -6.4      4.015      7.048
REMARK  Name = 
REMARK  5 active torsions:
REMARK  status: ('A' for Active; 'I' for Inactive)
REMARK    1  A    between atoms: C_1  and  O_2
REMARK    2  A    between atoms: O_2  and  C_3
REMARK    3  A    between atoms: C_3  and  C_4
REMARK    4  A    between atoms: C_13  and  C_14
REMARK    5  A    between atoms: C_24  and  C_25
REMARK                            x       y       z     vdW  Elec       q    Type
REMARK                         _______ _______ _______ _____ _____    ______ ____
ROOT
ATOM      1  C   UNL     1       4.053   4.482  17.464  0.00  0.00    +0.000 C 
ATOM      2  O   UNL     1       3.648   3.010  17.405  0.00  0.00    +0.000 OA
ATOM      3  C   UNL     1       3.327   2.295  18.546  0.00  0.00    +0.000 C 
ATOM      4  O   UNL     1       3.367   1.077  18.609  0.00  0.00    +0.000 OA
ATOM      5  C   UNL     1       2.832   3.131  19.611  0.00  0.00    +0.000 A 
ATOM      6  C   UNL     1       2.396   2.836  20.885  0.00  0.00    +0.000 A 
ATOM      7  O   UNL     1       1.956   3.974  21.522  0.00  0.00    +0.000 OA
ATOM      8  C   UNL     1       2.102   4.993  20.630  0.00  0.00    +0.000 A 
ATOM      9  C   UNL     1       2.637   4.509  19.470  0.00  0.00    +0.000 A 
ATOM     10  C   UNL     1       2.915   5.287  18.241  0.00  0.00    +0.000 C 
ATOM     11  C   UNL     1       1.685   5.140  17.273  0.00  0.00    +0.000 C 
ATOM     12  C   UNL     1       2.822   6.797  18.631  0.00  0.00    +0.000 C 
ATOM     13  C   UNL     1       2.105   7.289  19.697  0.00  0.00    +0.000 C 
ATOM     14  C   UNL     1       1.740   6.369  20.856  0.00  0.00    +0.000 C 
ATOM     15  O   UNL     1       1.237   6.820  21.878  0.00  0.00    +0.000 OA
ATOM     16  C   UNL     1       1.652   8.741  19.777  0.00  0.00    +0.000 C 
ATOM     17  C   UNL     1       0.310   9.225  20.401  0.00  0.00    +0.000 C 
ATOM     18  C   UNL     1       0.138  10.672  19.881  0.00  0.00    +0.000 C 
ATOM     19  C   UNL     1       1.093  10.703  18.711  0.00  0.00    +0.000 C 
ATOM     20  O   UNL     1       1.452  11.719  18.134  0.00  0.00    +0.000 OA
ATOM     21  C   UNL     1       1.530   9.305  18.341  0.00  0.00    +0.000 C 
ATOM     22  C   UNL     1       0.409   8.670  17.478  0.00  0.00    +0.000 C 
ATOM     23  C   UNL     1       2.878   9.214  17.649  0.00  0.00    +0.000 C 
ATOM     24  C   UNL     1       3.366   7.777  17.634  0.00  0.00    +0.000 C 
ATOM     25  O   UNL     1       4.214   7.399  16.825  0.00  0.00    +0.000 OA
ENDROOT
BRANCH   1  26
ATOM     26  C   UNL     1       5.561   4.419  17.790  0.00  0.00    +0.000 C 
BRANCH  26  28
ATOM     27  C   UNL     1       6.848   4.973  15.771  0.00  0.00    +0.000 C 
ATOM     28  O   UNL     1       6.137   4.011  16.523  0.00  0.00    +0.000 OA
ENDBRANCH  26  28
ENDBRANCH   1  26
TORSDOF 2
ENDMDL
MODEL 6
REMARK VINA RESULT:      -6.3      7.988     10.168
REMARK  Name = 
REMARK  5 active torsions:
REMARK  status: ('A' for Active; 'I' for Inactive)
REMARK    1  A    between atoms: C_1  and  O_2
REMARK    2  A    between atoms: O_2  and  C_3
REMARK    3  A    between atoms: C_3  and  C_4
REMARK    4  A    between atoms: C_13  and  C_14
REMARK    5  A    between atoms: C_24  and  C_25
REMARK                            x       y       z     vdW  Elec       q    Type
REMARK                         _______ _______ _______ _____ _____    ______ ____
ROOT
ATOM      1  C   UNL     1      10.086  13.780  19.230  0.00  0.00    +0.000 C 
ATOM      2  O   UNL     1      10.757  14.982  18.568  0.00  0.00    +0.000 OA
ATOM      3  C   UNL     1      10.022  16.030  18.042  0.00  0.00    +0.000 C 
ATOM      4  O   UNL     1      10.456  16.799  17.199  0.00  0.00    +0.000 OA
ATOM      5  C   UNL     1       8.738  16.188  18.676  0.00  0.00    +0.000 A 
ATOM      6  C   UNL     1       7.717  17.092  18.474  0.00  0.00    +0.000 A 
ATOM      7  O   UNL     1       6.697  16.881  19.374  0.00  0.00    +0.000 OA
ATOM      8  C   UNL     1       7.091  15.841  20.162  0.00  0.00    +0.000 A 
ATOM      9  C   UNL     1       8.318  15.402  19.754  0.00  0.00    +0.000 A 
ATOM     10  C   UNL     1       9.110  14.315  20.375  0.00  0.00    +0.000 C 
ATOM     11  C   UNL     1      10.118  14.957  21.396  0.00  0.00    +0.000 C 
ATOM     12  C   UNL     1       8.148  13.544  21.333  0.00  0.00    +0.000 C 
ATOM     13  C   UNL     1       7.012  14.076  21.900  0.00  0.00    +0.000 C 
ATOM     14  C   UNL     1       6.346  15.292  21.265  0.00  0.00    +0.000 C 
ATOM     15  O   UNL     1       5.257  15.686  21.663  0.00  0.00    +0.000 OA
ATOM     16  C   UNL     1       6.374  13.494  23.154  0.00  0.00    +0.000 C 
ATOM     17  C   UNL     1       5.679  14.327  24.271  0.00  0.00    +0.000 C 
ATOM     18  C   UNL     1       5.577  13.358  25.473  0.00  0.00    +0.000 C 
ATOM     19  C   UNL     1       6.582  12.292  25.106  0.00  0.00    +0.000 C 
ATOM     20  O   UNL     1       6.678  11.208  25.661  0.00  0.00    +0.000 OA
ATOM     21  C   UNL     1       7.463  12.757  23.971  0.00  0.00    +0.000 C 
ATOM     22  C   UNL     1       8.566  13.668  24.569  0.00  0.00    +0.000 C 
ATOM     23  C   UNL     1       8.061  11.648  23.124  0.00  0.00    +0.000 C 
ATOM     24  C   UNL     1       8.632  12.217  21.838  0.00  0.00    +0.000 C 
ATOM     25  O   UNL     1       9.480  11.603  21.189  0.00  0.00    +0.000 OA
ENDROOT
BRANCH   1  26
ATOM     26  C   UNL     1       9.735  12.869  18.033  0.00  0.00    +0.000 C 
BRANCH  26  28
ATOM     27  C   UNL     1      11.812  11.663  18.553  0.00  0.00    +0.000 C 
ATOM     28  O   UNL     1      11.038  12.385  17.618  0.00  0.00    +0.000 OA
ENDBRANCH  26  28
ENDBRANCH   1  26
TORSDOF 2
ENDMDL
MODEL 7
REMARK VINA RESULT:      -6.2      2.179      6.427
REMARK  Name = 
REMARK  5 active torsions:
REMARK  status: ('A' for Active; 'I' for Inactive)
REMARK    1  A    between atoms: C_1  and  O_2
REMARK    2  A    between atoms: O_2  and  C_3
REMARK    3  A    between atoms: C_3  and  C_4
REMARK    4  A    between atoms: C_13  and  C_14
REMARK    5  A    between atoms: C_24  and  C_25
REMARK                            x       y       z     vdW  Elec       q    Type
REMARK                         _______ _______ _______ _____ _____    ______ ____
ROOT
ATOM      1  C   UNL     1      -1.008  14.378  23.344  0.00  0.00    +0.000 C 
ATOM      2  O   UNL     1      -2.000  14.502  24.498  0.00  0.00    +0.000 OA
ATOM      3  C   UNL     1      -3.343  14.763  24.281  0.00  0.00    +0.000 C 
ATOM      4  O   UNL     1      -4.081  15.233  25.131  0.00  0.00    +0.000 OA
ATOM      5  C   UNL     1      -3.800  14.314  22.990  0.00  0.00    +0.000 A 
ATOM      6  C   UNL     1      -5.037  14.364  22.384  0.00  0.00    +0.000 A 
ATOM      7  O   UNL     1      -4.999  13.747  21.154  0.00  0.00    +0.000 OA
ATOM      8  C   UNL     1      -3.725  13.291  20.993  0.00  0.00    +0.000 A 
ATOM      9  C   UNL     1      -2.980  13.629  22.087  0.00  0.00    +0.000 A 
ATOM     10  C   UNL     1      -1.558  13.284  22.320  0.00  0.00    +0.000 C 
ATOM     11  C   UNL     1      -1.502  11.969  23.178  0.00  0.00    +0.000 C 
ATOM     12  C   UNL     1      -0.984  12.787  20.955  0.00  0.00    +0.000 C 
ATOM     13  C   UNL     1      -1.737  12.258  19.933  0.00  0.00    +0.000 C 
ATOM     14  C   UNL     1      -3.231  12.555  19.859  0.00  0.00    +0.000 C 
ATOM     15  O   UNL     1      -3.886  12.220  18.880  0.00  0.00    +0.000 OA
ATOM     16  C   UNL     1      -1.137  11.374  18.847  0.00  0.00    +0.000 C 
ATOM     17  C   UNL     1      -1.858  10.166  18.179  0.00  0.00    +0.000 C 
ATOM     18  C   UNL     1      -0.726   9.376  17.480  0.00  0.00    +0.000 C 
ATOM     19  C   UNL     1       0.507   9.913  18.168  0.00  0.00    +0.000 C 
ATOM     20  O   UNL     1       1.652   9.734  17.780  0.00  0.00    +0.000 OA
ATOM     21  C   UNL     1       0.131  10.687  19.409  0.00  0.00    +0.000 C 
ATOM     22  C   UNL     1      -0.125   9.664  20.547  0.00  0.00    +0.000 C 
ATOM     23  C   UNL     1       1.130  11.747  19.834  0.00  0.00    +0.000 C 
ATOM     24  C   UNL     1       0.509  12.675  20.862  0.00  0.00    +0.000 C 
ATOM     25  O   UNL     1       1.208  13.352  21.617  0.00  0.00    +0.000 OA
ENDROOT
BRANCH   1  26
ATOM     26  C   UNL     1      -0.625  15.845  23.050  0.00  0.00    +0.000 C 
BRANCH  26  28
ATOM     27  C   UNL     1       1.130  17.301  23.966  0.00  0.00    +0.000 C 
ATOM     28  O   UNL     1       0.612  15.998  23.791  0.00  0.00    +0.000 OA
ENDBRANCH  26  28
ENDBRANCH   1  26
TORSDOF 2
ENDMDL
MODEL 8
REMARK VINA RESULT:      -6.2      6.986     10.750
REMARK  Name = 
REMARK  5 active torsions:
REMARK  status: ('A' for Active; 'I' for Inactive)
REMARK    1  A    between atoms: C_1  and  O_2
REMARK    2  A    between atoms: O_2  and  C_3
REMARK    3  A    between atoms: C_3  and  C_4
REMARK    4  A    between atoms: C_13  and  C_14
REMARK    5  A    between atoms: C_24  and  C_25
REMARK                            x       y       z     vdW  Elec       q    Type
REMARK                         _______ _______ _______ _____ _____    ______ ____
ROOT
ATOM      1  C   UNL     1       6.148  15.334  22.180  0.00  0.00    +0.000 C 
ATOM      2  O   UNL     1       5.828  15.418  23.671  0.00  0.00    +0.000 OA
ATOM      3  C   UNL     1       5.696  14.283  24.454  0.00  0.00    +0.000 C 
ATOM      4  O   UNL     1       5.091  14.265  25.514  0.00  0.00    +0.000 OA
ATOM      5  C   UNL     1       6.444  13.161  23.946  0.00  0.00    +0.000 A 
ATOM      6  C   UNL     1       6.599  11.873  24.410  0.00  0.00    +0.000 A 
ATOM      7  O   UNL     1       7.469  11.170  23.608  0.00  0.00    +0.000 OA
ATOM      8  C   UNL     1       7.878  12.034  22.637  0.00  0.00    +0.000 A 
ATOM      9  C   UNL     1       7.265  13.242  22.817  0.00  0.00    +0.000 A 
ATOM     10  C   UNL     1       7.471  14.458  21.997  0.00  0.00    +0.000 C 
ATOM     11  C   UNL     1       8.558  15.351  22.699  0.00  0.00    +0.000 C 
ATOM     12  C   UNL     1       8.225  14.012  20.705  0.00  0.00    +0.000 C 
ATOM     13  C   UNL     1       9.008  12.886  20.603  0.00  0.00    +0.000 C 
ATOM     14  C   UNL     1       8.819  11.738  21.588  0.00  0.00    +0.000 C 
ATOM     15  O   UNL     1       9.398  10.671  21.423  0.00  0.00    +0.000 OA
ATOM     16  C   UNL     1      10.076  12.727  19.528  0.00  0.00    +0.000 C 
ATOM     17  C   UNL     1      11.440  12.001  19.725  0.00  0.00    +0.000 C 
ATOM     18  C   UNL     1      12.301  12.460  18.524  0.00  0.00    +0.000 C 
ATOM     19  C   UNL     1      11.557  13.687  18.051  0.00  0.00    +0.000 C 
ATOM     20  O   UNL     1      11.754  14.250  16.984  0.00  0.00    +0.000 OA
ATOM     21  C   UNL     1      10.550  14.131  19.085  0.00  0.00    +0.000 C 
ATOM     22  C   UNL     1      11.308  14.942  20.168  0.00  0.00    +0.000 C 
ATOM     23  C   UNL     1       9.368  14.911  18.538  0.00  0.00    +0.000 C 
ATOM     24  C   UNL     1       8.271  15.007  19.583  0.00  0.00    +0.000 C 
ATOM     25  O   UNL     1       7.406  15.882  19.522  0.00  0.00    +0.000 OA
ENDROOT
BRANCH   1  26
ATOM     26  C   UNL     1       4.764  15.107  21.534  0.00  0.00    +0.000 C 
BRANCH  26  28
ATOM     27  C   UNL     1       3.298  16.557  20.197  0.00  0.00    +0.000 C 
ATOM     28  O   UNL     1       4.452  16.419  21.000  0.00  0.00    +0.000 OA
ENDBRANCH  26  28
ENDBRANCH   1  26
TORSDOF 2
ENDMDL
MODEL 9
REMARK VINA RESULT:      -6.2      7.973     10.184
REMARK  Name = 
REMARK  5 active torsions:
REMARK  status: ('A' for Active; 'I' for Inactive)
REMARK    1  A    between atoms: C_1  and  O_2
REMARK    2  A    between atoms: O_2  and  C_3
REMARK    3  A    between atoms: C_3  and  C_4
REMARK    4  A    between atoms: C_13  and  C_14
REMARK    5  A    between atoms: C_24  and  C_25
REMARK                            x       y       z     vdW  Elec       q    Type
REMARK                         _______ _______ _______ _____ _____    ______ ____
ROOT
ATOM      1  C   UNL     1      10.492  13.272  19.083  0.00  0.00    +0.000 C 
ATOM      2  O   UNL     1      11.306  14.371  18.403  0.00  0.00    +0.000 OA
ATOM      3  C   UNL     1      10.699  15.452  17.785  0.00  0.00    +0.000 C 
ATOM      4  O   UNL     1      11.246  16.131  16.932  0.00  0.00    +0.000 OA
ATOM      5  C   UNL     1       9.404  15.759  18.337  0.00  0.00    +0.000 A 
ATOM      6  C   UNL     1       8.484  16.739  18.033  0.00  0.00    +0.000 A 
ATOM      7  O   UNL     1       7.403  16.670  18.884  0.00  0.00    +0.000 OA
ATOM      8  C   UNL     1       7.657  15.643  19.743  0.00  0.00    +0.000 A 
ATOM      9  C   UNL     1       8.858  15.073  19.427  0.00  0.00    +0.000 A 
ATOM     10  C   UNL     1       9.512  13.953  20.143  0.00  0.00    +0.000 C 
ATOM     11  C   UNL     1      10.520  14.556  21.188  0.00  0.00    +0.000 C 
ATOM     12  C   UNL     1       8.433  13.326  21.082  0.00  0.00    +0.000 C 
ATOM     13  C   UNL     1       7.325  13.988  21.557  0.00  0.00    +0.000 C 
ATOM     14  C   UNL     1       6.808  15.223  20.827  0.00  0.00    +0.000 C 
ATOM     15  O   UNL     1       5.741  15.734  21.143  0.00  0.00    +0.000 OA
ATOM     16  C   UNL     1       6.571  13.534  22.800  0.00  0.00    +0.000 C 
ATOM     17  C   UNL     1       5.898  14.485  23.833  0.00  0.00    +0.000 C 
ATOM     18  C   UNL     1       5.645  13.596  25.074  0.00  0.00    +0.000 C 
ATOM     19  C   UNL     1       6.564  12.425  24.817  0.00  0.00    +0.000 C 
ATOM     20  O   UNL     1       6.529  11.368  25.429  0.00  0.00    +0.000 OA
ATOM     21  C   UNL     1       7.542  12.747  23.712  0.00  0.00    +0.000 C 
ATOM     22  C   UNL     1       8.693  13.586  24.327  0.00  0.00    +0.000 C 
ATOM     23  C   UNL     1       8.078  11.544  22.956  0.00  0.00    +0.000 C 
ATOM     24  C   UNL     1       8.765  11.989  21.678  0.00  0.00    +0.000 C 
ATOM     25  O   UNL     1       9.585  11.267  21.109  0.00  0.00    +0.000 OA
ENDROOT
BRANCH   1  26
ATOM     26  C   UNL     1      10.121  12.334  17.915  0.00  0.00    +0.000 C 
BRANCH  26  28
ATOM     27  C   UNL     1       7.791  12.562  17.168  0.00  0.00    +0.000 C 
ATOM     28  O   UNL     1       8.707  12.101  18.139  0.00  0.00    +0.000 OA
ENDBRANCH  26  28
ENDBRANCH   1  26
TORSDOF 2
ENDMDL
