MODEL 1
REMARK VINA RESULT:      -8.3      0.000      0.000
REMARK  Name = 
REMARK  6 active torsions:
REMARK  status: ('A' for Active; 'I' for Inactive)
REMARK    1  A    between atoms: C_1  and  C_2
REMARK    2  A    between atoms: C_6  and  C_7
REMARK    3  A    between atoms: N_12  and  C_13
REMARK    4  A    between atoms: C_13  and  C_14
REMARK    5  A    between atoms: C_14  and  N_15
REMARK    6  A    between atoms: C_19  and  C_20
REMARK                            x       y       z     vdW  Elec       q    Type
REMARK                         _______ _______ _______ _____ _____    ______ ____
ROOT
ATOM      1  C   UNL     1       2.024   7.597  19.554  0.00  0.00    +0.000 A 
ATOM      2  C   UNL     1       2.954   7.432  18.533  0.00  0.00    +0.000 A 
ATOM      3  C   UNL     1       3.513   6.128  18.536  0.00  0.00    +0.000 A 
ATOM      4  N   UNL     1       4.503   5.686  17.636  0.00  0.00    +0.000 NA
ATOM      5  C   UNL     1       4.929   4.450  17.806  0.00  0.00    +0.000 A 
ATOM      6  N   UNL     1       5.912   3.947  16.972  0.00  0.00    +0.000 N 
ATOM      7  C   UNL     1       4.402   3.612  18.886  0.00  0.00    +0.000 A 
ATOM      8  N   UNL     1       4.794   2.391  19.194  0.00  0.00    +0.000 NA
ATOM      9  C   UNL     1       4.033   2.058  20.289  0.00  0.00    +0.000 A 
ATOM     10  C   UNL     1       3.188   3.089  20.661  0.00  0.00    +0.000 A 
ATOM     11  C   UNL     1       2.227   3.179  21.787  0.00  0.00    +0.000 C 
ATOM     12  N   UNL     1       3.439   4.085  19.740  0.00  0.00    +0.000 N 
ATOM     13  C   UNL     1       2.988   5.364  19.540  0.00  0.00    +0.000 A 
ATOM     14  S   UNL     1       1.818   6.125  20.444  0.00  0.00    +0.000 S 
ATOM     15  H   UNL     1       6.277   3.044  17.268  0.00  0.00    +0.000 HD
ENDROOT
BRANCH   1  21
ATOM     16  C   UNL     1      -0.620  10.040  23.015  0.00  0.00    +0.000 C 
ATOM     17  C   UNL     1      -0.089   9.978  21.613  0.00  0.00    +0.000 A 
ATOM     18  C   UNL     1      -0.421  10.936  20.653  0.00  0.00    +0.000 A 
ATOM     19  C   UNL     1       0.073  10.825  19.352  0.00  0.00    +0.000 A 
ATOM     20  C   UNL     1       0.888   9.747  18.992  0.00  0.00    +0.000 A 
ATOM     21  C   UNL     1       1.221   8.767  19.933  0.00  0.00    +0.000 A 
ATOM     22  C   UNL     1       0.743   8.915  21.247  0.00  0.00    +0.000 A 
ENDBRANCH   1  21
BRANCH   6  23
ATOM     23  C   UNL     1       6.898   4.808  16.335  0.00  0.00    +0.000 C 
BRANCH  23  24
ATOM     24  C   UNL     1       6.821   4.718  14.797  0.00  0.00    +0.000 C 
BRANCH  24  25
ATOM     25  N   UNL     1       7.865   5.508  14.133  0.00  0.00    +0.000 NA
ATOM     26  H   UNL     1       8.027   5.120  13.203  0.00  0.00    +0.000 HD
ATOM     27  H   UNL     1       8.742   5.383  14.639  0.00  0.00    +0.000 HD
ENDBRANCH  24  25
ENDBRANCH  23  24
ENDBRANCH   6  23
TORSDOF 4
ENDMDL
MODEL 2
REMARK VINA RESULT:      -8.1      2.492      7.532
REMARK  Name = 
REMARK  6 active torsions:
REMARK  status: ('A' for Active; 'I' for Inactive)
REMARK    1  A    between atoms: C_1  and  C_2
REMARK    2  A    between atoms: C_6  and  C_7
REMARK    3  A    between atoms: N_12  and  C_13
REMARK    4  A    between atoms: C_13  and  C_14
REMARK    5  A    between atoms: C_14  and  N_15
REMARK    6  A    between atoms: C_19  and  C_20
REMARK                            x       y       z     vdW  Elec       q    Type
REMARK                         _______ _______ _______ _____ _____    ______ ____
ROOT
ATOM      1  C   UNL     1       4.878   4.961  16.127  0.00  0.00    +0.000 A 
ATOM      2  C   UNL     1       4.509   6.130  16.784  0.00  0.00    +0.000 A 
ATOM      3  C   UNL     1       3.709   5.861  17.926  0.00  0.00    +0.000 A 
ATOM      4  N   UNL     1       3.164   6.853  18.765  0.00  0.00    +0.000 NA
ATOM      5  C   UNL     1       2.419   6.421  19.763  0.00  0.00    +0.000 A 
ATOM      6  N   UNL     1       1.836   7.334  20.623  0.00  0.00    +0.000 N 
ATOM      7  C   UNL     1       2.173   4.989  19.956  0.00  0.00    +0.000 A 
ATOM      8  N   UNL     1       1.398   4.444  20.873  0.00  0.00    +0.000 NA
ATOM      9  C   UNL     1       1.467   3.095  20.615  0.00  0.00    +0.000 A 
ATOM     10  C   UNL     1       2.273   2.822  19.524  0.00  0.00    +0.000 A 
ATOM     11  C   UNL     1       2.604   1.527  18.880  0.00  0.00    +0.000 C 
ATOM     12  N   UNL     1       2.723   4.059  19.112  0.00  0.00    +0.000 N 
ATOM     13  C   UNL     1       3.514   4.519  18.091  0.00  0.00    +0.000 A 
ATOM     14  S   UNL     1       4.288   3.567  16.969  0.00  0.00    +0.000 S 
ATOM     15  H   UNL     1       1.167   6.918  21.269  0.00  0.00    +0.000 HD
ENDROOT
BRANCH   1  21
ATOM     16  C   UNL     1       5.490   2.689  11.723  0.00  0.00    +0.000 C 
ATOM     17  C   UNL     1       6.005   3.652  12.752  0.00  0.00    +0.000 A 
ATOM     18  C   UNL     1       7.250   4.270  12.630  0.00  0.00    +0.000 A 
ATOM     19  C   UNL     1       7.703   5.137  13.625  0.00  0.00    +0.000 A 
ATOM     20  C   UNL     1       6.925   5.382  14.761  0.00  0.00    +0.000 A 
ATOM     21  C   UNL     1       5.679   4.763  14.912  0.00  0.00    +0.000 A 
ATOM     22  C   UNL     1       5.226   3.919  13.883  0.00  0.00    +0.000 A 
ENDBRANCH   1  21
BRANCH   6  23
ATOM     23  C   UNL     1       1.493   8.684  20.198  0.00  0.00    +0.000 C 
BRANCH  23  24
ATOM     24  C   UNL     1       0.603   9.397  21.237  0.00  0.00    +0.000 C 
BRANCH  24  25
ATOM     25  N   UNL     1       1.338   9.760  22.455  0.00  0.00    +0.000 NA
ATOM     26  H   UNL     1       0.667  10.044  23.169  0.00  0.00    +0.000 HD
ATOM     27  H   UNL     1       1.901  10.589  22.262  0.00  0.00    +0.000 HD
ENDBRANCH  24  25
ENDBRANCH  23  24
ENDBRANCH   6  23
TORSDOF 4
ENDMDL
MODEL 3
REMARK VINA RESULT:      -8.0      1.031      1.694
REMARK  Name = 
REMARK  6 active torsions:
REMARK  status: ('A' for Active; 'I' for Inactive)
REMARK    1  A    between atoms: C_1  and  C_2
REMARK    2  A    between atoms: C_6  and  C_7
REMARK    3  A    between atoms: N_12  and  C_13
REMARK    4  A    between atoms: C_13  and  C_14
REMARK    5  A    between atoms: C_14  and  N_15
REMARK    6  A    between atoms: C_19  and  C_20
REMARK                            x       y       z     vdW  Elec       q    Type
REMARK                         _______ _______ _______ _____ _____    ______ ____
ROOT
ATOM      1  C   UNL     1       1.622   7.792  20.086  0.00  0.00    +0.000 A 
ATOM      2  C   UNL     1       2.351   7.775  18.902  0.00  0.00    +0.000 A 
ATOM      3  C   UNL     1       2.884   6.488  18.631  0.00  0.00    +0.000 A 
ATOM      4  N   UNL     1       3.691   6.181  17.517  0.00  0.00    +0.000 NA
ATOM      5  C   UNL     1       4.124   4.938  17.442  0.00  0.00    +0.000 A 
ATOM      6  N   UNL     1       4.934   4.561  16.385  0.00  0.00    +0.000 N 
ATOM      7  C   UNL     1       3.788   3.957  18.478  0.00  0.00    +0.000 A 
ATOM      8  N   UNL     1       4.213   2.711  18.545  0.00  0.00    +0.000 NA
ATOM      9  C   UNL     1       3.657   2.227  19.705  0.00  0.00    +0.000 A 
ATOM     10  C   UNL     1       2.906   3.189  20.356  0.00  0.00    +0.000 A 
ATOM     11  C   UNL     1       2.164   3.118  21.638  0.00  0.00    +0.000 C 
ATOM     12  N   UNL     1       3.001   4.302  19.546  0.00  0.00    +0.000 N 
ATOM     13  C   UNL     1       2.537   5.592  19.602  0.00  0.00    +0.000 A 
ATOM     14  S   UNL     1       1.559   6.212  20.795  0.00  0.00    +0.000 S 
ATOM     15  H   UNL     1       5.335   3.631  16.488  0.00  0.00    +0.000 HD
ENDROOT
BRANCH   1  21
ATOM     16  C   UNL     1      -0.307  12.393  19.888  0.00  0.00    +0.000 C 
ATOM     17  C   UNL     1      -0.029  11.153  20.684  0.00  0.00    +0.000 A 
ATOM     18  C   UNL     1      -0.327  11.063  22.045  0.00  0.00    +0.000 A 
ATOM     19  C   UNL     1      -0.025   9.900  22.754  0.00  0.00    +0.000 A 
ATOM     20  C   UNL     1       0.594   8.820  22.116  0.00  0.00    +0.000 A 
ATOM     21  C   UNL     1       0.915   8.892  20.756  0.00  0.00    +0.000 A 
ATOM     22  C   UNL     1       0.573  10.059  20.051  0.00  0.00    +0.000 A 
ENDBRANCH   1  21
BRANCH   6  23
ATOM     23  C   UNL     1       5.802   5.511  15.702  0.00  0.00    +0.000 C 
BRANCH  23  24
ATOM     24  C   UNL     1       7.108   5.751  16.486  0.00  0.00    +0.000 C 
BRANCH  24  25
ATOM     25  N   UNL     1       7.808   4.502  16.812  0.00  0.00    +0.000 NA
ATOM     26  H   UNL     1       7.279   4.010  17.533  0.00  0.00    +0.000 HD
ATOM     27  H   UNL     1       8.705   4.732  17.240  0.00  0.00    +0.000 HD
ENDBRANCH  24  25
ENDBRANCH  23  24
ENDBRANCH   6  23
TORSDOF 4
ENDMDL
MODEL 4
REMARK VINA RESULT:      -7.9      2.574      7.314
REMARK  Name = 
REMARK  6 active torsions:
REMARK  status: ('A' for Active; 'I' for Inactive)
REMARK    1  A    between atoms: C_1  and  C_2
REMARK    2  A    between atoms: C_6  and  C_7
REMARK    3  A    between atoms: N_12  and  C_13
REMARK    4  A    between atoms: C_13  and  C_14
REMARK    5  A    between atoms: C_14  and  N_15
REMARK    6  A    between atoms: C_19  and  C_20
REMARK                            x       y       z     vdW  Elec       q    Type
REMARK                         _______ _______ _______ _____ _____    ______ ____
ROOT
ATOM      1  C   UNL     1       4.920   5.057  15.957  0.00  0.00    +0.000 A 
ATOM      2  C   UNL     1       4.594   6.262  16.570  0.00  0.00    +0.000 A 
ATOM      3  C   UNL     1       3.775   6.067  17.713  0.00  0.00    +0.000 A 
ATOM      4  N   UNL     1       3.265   7.109  18.512  0.00  0.00    +0.000 NA
ATOM      5  C   UNL     1       2.495   6.743  19.517  0.00  0.00    +0.000 A 
ATOM      6  N   UNL     1       1.943   7.709  20.340  0.00  0.00    +0.000 N 
ATOM      7  C   UNL     1       2.188   5.330  19.757  0.00  0.00    +0.000 A 
ATOM      8  N   UNL     1       1.383   4.850  20.685  0.00  0.00    +0.000 NA
ATOM      9  C   UNL     1       1.399   3.491  20.474  0.00  0.00    +0.000 A 
ATOM     10  C   UNL     1       2.201   3.147  19.401  0.00  0.00    +0.000 A 
ATOM     11  C   UNL     1       2.483   1.818  18.806  0.00  0.00    +0.000 C 
ATOM     12  N   UNL     1       2.705   4.349  18.951  0.00  0.00    +0.000 N 
ATOM     13  C   UNL     1       3.522   4.740  17.922  0.00  0.00    +0.000 A 
ATOM     14  S   UNL     1       4.265   3.718  16.841  0.00  0.00    +0.000 S 
ATOM     15  H   UNL     1       1.252   7.344  20.993  0.00  0.00    +0.000 HD
ENDROOT
BRANCH   1  21
ATOM     16  C   UNL     1       5.504   2.559  11.673  0.00  0.00    +0.000 C 
ATOM     17  C   UNL     1       6.033   3.561  12.656  0.00  0.00    +0.000 A 
ATOM     18  C   UNL     1       7.291   4.149  12.509  0.00  0.00    +0.000 A 
ATOM     19  C   UNL     1       7.757   5.056  13.463  0.00  0.00    +0.000 A 
ATOM     20  C   UNL     1       6.979   5.371  14.581  0.00  0.00    +0.000 A 
ATOM     21  C   UNL     1       5.721   4.784  14.756  0.00  0.00    +0.000 A 
ATOM     22  C   UNL     1       5.255   3.899  13.768  0.00  0.00    +0.000 A 
ENDBRANCH   1  21
BRANCH   6  23
ATOM     23  C   UNL     1       1.661   9.056  19.866  0.00  0.00    +0.000 C 
BRANCH  23  24
ATOM     24  C   UNL     1       1.088   9.045  18.434  0.00  0.00    +0.000 C 
BRANCH  24  25
ATOM     25  N   UNL     1       1.928   9.786  17.485  0.00  0.00    +0.000 NA
ATOM     26  H   UNL     1       2.900   9.506  17.621  0.00  0.00    +0.000 HD
ATOM     27  H   UNL     1       1.893  10.778  17.722  0.00  0.00    +0.000 HD
ENDBRANCH  24  25
ENDBRANCH  23  24
ENDBRANCH   6  23
TORSDOF 4
ENDMDL
MODEL 5
REMARK VINA RESULT:      -7.9      0.903      1.581
REMARK  Name = 
REMARK  6 active torsions:
REMARK  status: ('A' for Active; 'I' for Inactive)
REMARK    1  A    between atoms: C_1  and  C_2
REMARK    2  A    between atoms: C_6  and  C_7
REMARK    3  A    between atoms: N_12  and  C_13
REMARK    4  A    between atoms: C_13  and  C_14
REMARK    5  A    between atoms: C_14  and  N_15
REMARK    6  A    between atoms: C_19  and  C_20
REMARK                            x       y       z     vdW  Elec       q    Type
REMARK                         _______ _______ _______ _____ _____    ______ ____
ROOT
ATOM      1  C   UNL     1       2.104   7.278  19.561  0.00  0.00    +0.000 A 
ATOM      2  C   UNL     1       3.044   7.180  18.541  0.00  0.00    +0.000 A 
ATOM      3  C   UNL     1       3.393   5.830  18.275  0.00  0.00    +0.000 A 
ATOM      4  N   UNL     1       4.345   5.430  17.316  0.00  0.00    +0.000 NA
ATOM      5  C   UNL     1       4.565   4.133  17.227  0.00  0.00    +0.000 A 
ATOM      6  N   UNL     1       5.495   3.661  16.318  0.00  0.00    +0.000 N 
ATOM      7  C   UNL     1       3.862   3.186  18.097  0.00  0.00    +0.000 A 
ATOM      8  N   UNL     1       4.045   1.881  18.144  0.00  0.00    +0.000 NA
ATOM      9  C   UNL     1       3.190   1.456  19.134  0.00  0.00    +0.000 A 
ATOM     10  C   UNL     1       2.499   2.511  19.704  0.00  0.00    +0.000 A 
ATOM     11  C   UNL     1       1.511   2.521  20.810  0.00  0.00    +0.000 C 
ATOM     12  N   UNL     1       2.945   3.622  19.019  0.00  0.00    +0.000 N 
ATOM     13  C   UNL     1       2.708   4.971  19.088  0.00  0.00    +0.000 A 
ATOM     14  S   UNL     1       1.630   5.707  20.116  0.00  0.00    +0.000 S 
ATOM     15  H   UNL     1       5.701   2.669  16.421  0.00  0.00    +0.000 HD
ENDROOT
BRANCH   1  21
ATOM     16  C   UNL     1       0.301  11.907  19.057  0.00  0.00    +0.000 C 
ATOM     17  C   UNL     1       0.595  10.735  19.946  0.00  0.00    +0.000 A 
ATOM     18  C   UNL     1       0.385  10.781  21.325  0.00  0.00    +0.000 A 
ATOM     19  C   UNL     1       0.700   9.677  22.119  0.00  0.00    +0.000 A 
ATOM     20  C   UNL     1       1.244   8.522  21.547  0.00  0.00    +0.000 A 
ATOM     21  C   UNL     1       1.476   8.459  20.169  0.00  0.00    +0.000 A 
ATOM     22  C   UNL     1       1.121   9.568  19.381  0.00  0.00    +0.000 A 
ENDBRANCH   1  21
BRANCH   6  23
ATOM     23  C   UNL     1       6.633   4.464  15.892  0.00  0.00    +0.000 C 
BRANCH  23  24
ATOM     24  C   UNL     1       6.650   4.655  14.361  0.00  0.00    +0.000 C 
BRANCH  24  25
ATOM     25  N   UNL     1       7.774   5.485  13.910  0.00  0.00    +0.000 NA
ATOM     26  H   UNL     1       7.509   6.467  13.995  0.00  0.00    +0.000 HD
ATOM     27  H   UNL     1       7.919   5.326  12.912  0.00  0.00    +0.000 HD
ENDBRANCH  24  25
ENDBRANCH  23  24
ENDBRANCH   6  23
TORSDOF 4
ENDMDL
MODEL 6
REMARK VINA RESULT:      -7.9      0.649      1.505
REMARK  Name = 
REMARK  6 active torsions:
REMARK  status: ('A' for Active; 'I' for Inactive)
REMARK    1  A    between atoms: C_1  and  C_2
REMARK    2  A    between atoms: C_6  and  C_7
REMARK    3  A    between atoms: N_12  and  C_13
REMARK    4  A    between atoms: C_13  and  C_14
REMARK    5  A    between atoms: C_14  and  N_15
REMARK    6  A    between atoms: C_19  and  C_20
REMARK                            x       y       z     vdW  Elec       q    Type
REMARK                         _______ _______ _______ _____ _____    ______ ____
ROOT
ATOM      1  C   UNL     1       1.996   7.442  19.876  0.00  0.00    +0.000 A 
ATOM      2  C   UNL     1       3.004   7.328  18.924  0.00  0.00    +0.000 A 
ATOM      3  C   UNL     1       3.559   6.022  18.900  0.00  0.00    +0.000 A 
ATOM      4  N   UNL     1       4.617   5.624  18.058  0.00  0.00    +0.000 NA
ATOM      5  C   UNL     1       5.026   4.378  18.193  0.00  0.00    +0.000 A 
ATOM      6  N   UNL     1       6.071   3.916  17.413  0.00  0.00    +0.000 N 
ATOM      7  C   UNL     1       4.412   3.484  19.179  0.00  0.00    +0.000 A 
ATOM      8  N   UNL     1       4.776   2.246  19.448  0.00  0.00    +0.000 NA
ATOM      9  C   UNL     1       3.930   1.858  20.459  0.00  0.00    +0.000 A 
ATOM     10  C   UNL     1       3.060   2.872  20.819  0.00  0.00    +0.000 A 
ATOM     11  C   UNL     1       2.012   2.906  21.868  0.00  0.00    +0.000 C 
ATOM     12  N   UNL     1       3.385   3.916  19.979  0.00  0.00    +0.000 N 
ATOM     13  C   UNL     1       2.954   5.207  19.814  0.00  0.00    +0.000 A 
ATOM     14  S   UNL     1       1.717   5.924  20.664  0.00  0.00    +0.000 S 
ATOM     15  H   UNL     1       6.410   2.995  17.686  0.00  0.00    +0.000 HD
ENDROOT
BRANCH   1  21
ATOM     16  C   UNL     1      -0.059  11.825  18.655  0.00  0.00    +0.000 C 
ATOM     17  C   UNL     1       0.158  10.752  19.680  0.00  0.00    +0.000 A 
ATOM     18  C   UNL     1      -0.312  10.872  20.989  0.00  0.00    +0.000 A 
ATOM     19  C   UNL     1      -0.063   9.862  21.919  0.00  0.00    +0.000 A 
ATOM     20  C   UNL     1       0.674   8.729  21.557  0.00  0.00    +0.000 A 
ATOM     21  C   UNL     1       1.168   8.594  20.255  0.00  0.00    +0.000 A 
ATOM     22  C   UNL     1       0.877   9.606  19.323  0.00  0.00    +0.000 A 
ENDBRANCH   1  21
BRANCH   6  23
ATOM     23  C   UNL     1       7.107   4.805  16.905  0.00  0.00    +0.000 C 
BRANCH  23  24
ATOM     24  C   UNL     1       6.953   5.048  15.390  0.00  0.00    +0.000 C 
BRANCH  24  25
ATOM     25  N   UNL     1       5.842   5.956  15.075  0.00  0.00    +0.000 NA
ATOM     26  H   UNL     1       5.250   5.514  14.371  0.00  0.00    +0.000 HD
ATOM     27  H   UNL     1       6.220   6.793  14.630  0.00  0.00    +0.000 HD
ENDBRANCH  24  25
ENDBRANCH  23  24
ENDBRANCH   6  23
TORSDOF 4
ENDMDL
MODEL 7
REMARK VINA RESULT:      -7.8      1.274      1.662
REMARK  Name = 
REMARK  6 active torsions:
REMARK  status: ('A' for Active; 'I' for Inactive)
REMARK    1  A    between atoms: C_1  and  C_2
REMARK    2  A    between atoms: C_6  and  C_7
REMARK    3  A    between atoms: N_12  and  C_13
REMARK    4  A    between atoms: C_13  and  C_14
REMARK    5  A    between atoms: C_14  and  N_15
REMARK    6  A    between atoms: C_19  and  C_20
REMARK                            x       y       z     vdW  Elec       q    Type
REMARK                         _______ _______ _______ _____ _____    ______ ____
ROOT
ATOM      1  C   UNL     1       1.993   7.603  19.668  0.00  0.00    +0.000 A 
ATOM      2  C   UNL     1       3.173   7.482  18.941  0.00  0.00    +0.000 A 
ATOM      3  C   UNL     1       3.716   6.174  19.036  0.00  0.00    +0.000 A 
ATOM      4  N   UNL     1       4.922   5.770  18.428  0.00  0.00    +0.000 NA
ATOM      5  C   UNL     1       5.290   4.523  18.649  0.00  0.00    +0.000 A 
ATOM      6  N   UNL     1       6.470   4.054  18.099  0.00  0.00    +0.000 N 
ATOM      7  C   UNL     1       4.486   3.636  19.494  0.00  0.00    +0.000 A 
ATOM      8  N   UNL     1       4.783   2.398  19.838  0.00  0.00    +0.000 NA
ATOM      9  C   UNL     1       3.748   2.018  20.658  0.00  0.00    +0.000 A 
ATOM     10  C   UNL     1       2.827   3.036  20.829  0.00  0.00    +0.000 A 
ATOM     11  C   UNL     1       1.588   3.078  21.643  0.00  0.00    +0.000 C 
ATOM     12  N   UNL     1       3.320   4.075  20.067  0.00  0.00    +0.000 N 
ATOM     13  C   UNL     1       2.935   5.366  19.813  0.00  0.00    +0.000 A 
ATOM     14  S   UNL     1       1.554   6.091  20.390  0.00  0.00    +0.000 S 
ATOM     15  H   UNL     1       6.743   3.134  18.440  0.00  0.00    +0.000 HD
ENDROOT
BRANCH   1  21
ATOM     16  C   UNL     1      -0.736  10.434  22.745  0.00  0.00    +0.000 C 
ATOM     17  C   UNL     1      -0.245  10.157  21.356  0.00  0.00    +0.000 A 
ATOM     18  C   UNL     1      -0.682  10.895  20.254  0.00  0.00    +0.000 A 
ATOM     19  C   UNL     1      -0.220  10.585  18.974  0.00  0.00    +0.000 A 
ATOM     20  C   UNL     1       0.669   9.523  18.778  0.00  0.00    +0.000 A 
ATOM     21  C   UNL     1       1.109   8.760  19.865  0.00  0.00    +0.000 A 
ATOM     22  C   UNL     1       0.660   9.110  21.151  0.00  0.00    +0.000 A 
ENDBRANCH   1  21
BRANCH   6  23
ATOM     23  C   UNL     1       7.590   4.937  17.809  0.00  0.00    +0.000 C 
BRANCH  23  24
ATOM     24  C   UNL     1       7.828   5.947  18.950  0.00  0.00    +0.000 C 
BRANCH  24  25
ATOM     25  N   UNL     1       8.189   5.293  20.214  0.00  0.00    +0.000 NA
ATOM     26  H   UNL     1       8.616   5.987  20.830  0.00  0.00    +0.000 HD
ATOM     27  H   UNL     1       8.919   4.605  20.030  0.00  0.00    +0.000 HD
ENDBRANCH  24  25
ENDBRANCH  23  24
ENDBRANCH   6  23
TORSDOF 4
ENDMDL
MODEL 8
REMARK VINA RESULT:      -7.7      1.088      1.851
REMARK  Name = 
REMARK  6 active torsions:
REMARK  status: ('A' for Active; 'I' for Inactive)
REMARK    1  A    between atoms: C_1  and  C_2
REMARK    2  A    between atoms: C_6  and  C_7
REMARK    3  A    between atoms: N_12  and  C_13
REMARK    4  A    between atoms: C_13  and  C_14
REMARK    5  A    between atoms: C_14  and  N_15
REMARK    6  A    between atoms: C_19  and  C_20
REMARK                            x       y       z     vdW  Elec       q    Type
REMARK                         _______ _______ _______ _____ _____    ______ ____
ROOT
ATOM      1  C   UNL     1       2.167   7.853  18.966  0.00  0.00    +0.000 A 
ATOM      2  C   UNL     1       2.962   7.472  17.890  0.00  0.00    +0.000 A 
ATOM      3  C   UNL     1       3.361   6.114  17.986  0.00  0.00    +0.000 A 
ATOM      4  N   UNL     1       4.196   5.464  17.056  0.00  0.00    +0.000 NA
ATOM      5  C   UNL     1       4.490   4.207  17.322  0.00  0.00    +0.000 A 
ATOM      6  N   UNL     1       5.316   3.503  16.464  0.00  0.00    +0.000 N 
ATOM      7  C   UNL     1       3.979   3.552  18.530  0.00  0.00    +0.000 A 
ATOM      8  N   UNL     1       4.255   2.327  18.933  0.00  0.00    +0.000 NA
ATOM      9  C   UNL     1       3.576   2.202  20.122  0.00  0.00    +0.000 A 
ATOM     10  C   UNL     1       2.900   3.364  20.452  0.00  0.00    +0.000 A 
ATOM     11  C   UNL     1       2.075   3.685  21.642  0.00  0.00    +0.000 C 
ATOM     12  N   UNL     1       3.171   4.225  19.409  0.00  0.00    +0.000 N 
ATOM     13  C   UNL     1       2.855   5.525  19.111  0.00  0.00    +0.000 A 
ATOM     14  S   UNL     1       1.881   6.514  20.027  0.00  0.00    +0.000 S 
ATOM     15  H   UNL     1       5.601   2.594  16.824  0.00  0.00    +0.000 HD
ENDROOT
BRANCH   1  21
ATOM     16  C   UNL     1       1.837  12.764  18.126  0.00  0.00    +0.000 C 
ATOM     17  C   UNL     1       1.379  11.561  18.896  0.00  0.00    +0.000 A 
ATOM     18  C   UNL     1       0.475  11.660  19.955  0.00  0.00    +0.000 A 
ATOM     19  C   UNL     1       0.096  10.519  20.663  0.00  0.00    +0.000 A 
ATOM     20  C   UNL     1       0.631   9.269  20.333  0.00  0.00    +0.000 A 
ATOM     21  C   UNL     1       1.549   9.148  19.285  0.00  0.00    +0.000 A 
ATOM     22  C   UNL     1       1.892  10.304  18.561  0.00  0.00    +0.000 A 
ENDBRANCH   1  21
BRANCH   6  23
ATOM     23  C   UNL     1       6.327   4.165  15.651  0.00  0.00    +0.000 C 
BRANCH  23  24
ATOM     24  C   UNL     1       7.416   4.821  16.525  0.00  0.00    +0.000 C 
BRANCH  24  25
ATOM     25  N   UNL     1       7.376   6.288  16.469  0.00  0.00    +0.000 NA
ATOM     26  H   UNL     1       8.301   6.649  16.705  0.00  0.00    +0.000 HD
ATOM     27  H   UNL     1       6.754   6.627  17.203  0.00  0.00    +0.000 HD
ENDBRANCH  24  25
ENDBRANCH  23  24
ENDBRANCH   6  23
TORSDOF 4
ENDMDL
MODEL 9
REMARK VINA RESULT:      -7.7      2.345      7.517
REMARK  Name = 
REMARK  6 active torsions:
REMARK  status: ('A' for Active; 'I' for Inactive)
REMARK    1  A    between atoms: C_1  and  C_2
REMARK    2  A    between atoms: C_6  and  C_7
REMARK    3  A    between atoms: N_12  and  C_13
REMARK    4  A    between atoms: C_13  and  C_14
REMARK    5  A    between atoms: C_14  and  N_15
REMARK    6  A    between atoms: C_19  and  C_20
REMARK                            x       y       z     vdW  Elec       q    Type
REMARK                         _______ _______ _______ _____ _____    ______ ____
ROOT
ATOM      1  C   UNL     1       5.110   4.787  15.899  0.00  0.00    +0.000 A 
ATOM      2  C   UNL     1       4.643   5.964  16.475  0.00  0.00    +0.000 A 
ATOM      3  C   UNL     1       3.999   5.722  17.717  0.00  0.00    +0.000 A 
ATOM      4  N   UNL     1       3.400   6.722  18.508  0.00  0.00    +0.000 NA
ATOM      5  C   UNL     1       2.821   6.311  19.618  0.00  0.00    +0.000 A 
ATOM      6  N   UNL     1       2.197   7.230  20.443  0.00  0.00    +0.000 N 
ATOM      7  C   UNL     1       2.798   4.890  19.977  0.00  0.00    +0.000 A 
ATOM      8  N   UNL     1       2.197   4.354  21.021  0.00  0.00    +0.000 NA
ATOM      9  C   UNL     1       2.432   3.006  20.890  0.00  0.00    +0.000 A 
ATOM     10  C   UNL     1       3.163   2.719  19.751  0.00  0.00    +0.000 A 
ATOM     11  C   UNL     1       3.612   1.415  19.205  0.00  0.00    +0.000 C 
ATOM     12  N   UNL     1       3.392   3.950  19.173  0.00  0.00    +0.000 N 
ATOM     13  C   UNL     1       4.011   4.393  18.033  0.00  0.00    +0.000 A 
ATOM     14  S   UNL     1       4.804   3.430  16.933  0.00  0.00    +0.000 S 
ATOM     15  H   UNL     1       1.657   6.806  21.195  0.00  0.00    +0.000 HD
ENDROOT
BRANCH   1  21
ATOM     16  C   UNL     1       8.867   5.939  12.818  0.00  0.00    +0.000 C 
ATOM     17  C   UNL     1       7.644   5.117  13.098  0.00  0.00    +0.000 A 
ATOM     18  C   UNL     1       7.112   4.236  12.155  0.00  0.00    +0.000 A 
ATOM     19  C   UNL     1       5.955   3.511  12.446  0.00  0.00    +0.000 A 
ATOM     20  C   UNL     1       5.307   3.672  13.675  0.00  0.00    +0.000 A 
ATOM     21  C   UNL     1       5.814   4.560  14.630  0.00  0.00    +0.000 A 
ATOM     22  C   UNL     1       6.999   5.255  14.331  0.00  0.00    +0.000 A 
ENDBRANCH   1  21
BRANCH   6  23
ATOM     23  C   UNL     1       1.629   8.468  19.928  0.00  0.00    +0.000 C 
BRANCH  23  24
ATOM     24  C   UNL     1       0.993   9.311  21.052  0.00  0.00    +0.000 C 
BRANCH  24  25
ATOM     25  N   UNL     1       1.696   9.166  22.332  0.00  0.00    +0.000 NA
ATOM     26  H   UNL     1       1.167   8.524  22.924  0.00  0.00    +0.000 HD
ATOM     27  H   UNL     1       1.680  10.062  22.819  0.00  0.00    +0.000 HD
ENDBRANCH  24  25
ENDBRANCH  23  24
ENDBRANCH   6  23
TORSDOF 4
ENDMDL
