MODEL 1
REMARK VINA RESULT:      -7.8      0.000      0.000
REMARK  Name = 
REMARK  5 active torsions:
REMARK  status: ('A' for Active; 'I' for Inactive)
REMARK    1  A    between atoms: O_1  and  C_2
REMARK    2  A    between atoms: C_7  and  C_8
REMARK    3  A    between atoms: C_8  and  N_9
REMARK    4  A    between atoms: N_16  and  C_17
REMARK    5  A    between atoms: C_17  and  C_18
REMARK                            x       y       z     vdW  Elec       q    Type
REMARK                         _______ _______ _______ _____ _____    ______ ____
ROOT
ATOM      1  N   UNL     1       4.482   3.043  16.928  0.00  0.00    +0.000 NA
ATOM      2  C   UNL     1       3.204   3.567  16.450  0.00  0.00    +0.000 C 
ATOM      3  C   UNL     1       2.293   3.731  17.653  0.00  0.00    +0.000 C 
ATOM      4  C   UNL     1       3.181   3.676  18.906  0.00  0.00    +0.000 C 
ATOM      5  C   UNL     1       2.618   2.659  19.923  0.00  0.00    +0.000 C 
ATOM      6  C   UNL     1       1.292   3.146  20.505  0.00  0.00    +0.000 C 
ATOM      7  C   UNL     1       1.408   4.553  21.095  0.00  0.00    +0.000 C 
ATOM      8  N   UNL     1       1.975   5.523  20.142  0.00  0.00    +0.000 NA
ATOM      9  C   UNL     1       3.274   5.046  19.623  0.00  0.00    +0.000 C 
ATOM     10  C   UNL     1       4.568   3.262  18.380  0.00  0.00    +0.000 C 
ENDROOT
BRANCH   1  11
ATOM     11  C   UNL     1       5.615   3.680  16.222  0.00  0.00    +0.000 C 
BRANCH  11  17
ATOM     12  C   UNL     1       7.304   5.172  17.428  0.00  0.00    +0.000 A 
ATOM     13  C   UNL     1       7.748   6.436  17.836  0.00  0.00    +0.000 A 
ATOM     14  C   UNL     1       6.941   7.555  17.633  0.00  0.00    +0.000 A 
ATOM     15  C   UNL     1       5.688   7.410  17.041  0.00  0.00    +0.000 A 
ATOM     16  C   UNL     1       5.254   6.145  16.623  0.00  0.00    +0.000 A 
ATOM     17  C   UNL     1       6.062   5.010  16.800  0.00  0.00    +0.000 A 
BRANCH  12  18
ATOM     18  O   UNL     1       8.100   4.082  17.639  0.00  0.00    +0.000 OA
ATOM     19  H   UNL     1       7.805   3.640  18.452  0.00  0.00    +0.000 HD
ENDBRANCH  12  18
ENDBRANCH  11  17
ENDBRANCH   1  11
BRANCH   8  20
ATOM     20  C   UNL     1       2.149   6.853  20.769  0.00  0.00    +0.000 C 
BRANCH  20  21
ATOM     21  C   UNL     1       1.771   8.008  19.870  0.00  0.00    +0.000 A 
ATOM     22  C   UNL     1       2.264   8.094  18.559  0.00  0.00    +0.000 A 
ATOM     23  C   UNL     1       1.866   9.137  17.720  0.00  0.00    +0.000 A 
ATOM     24  C   UNL     1       0.975  10.109  18.178  0.00  0.00    +0.000 A 
ATOM     25  C   UNL     1       0.498  10.047  19.487  0.00  0.00    +0.000 A 
ATOM     26  C   UNL     1       0.901   9.006  20.319  0.00  0.00    +0.000 A 
ATOM     27  F   UNL     1       0.426   8.967  21.573  0.00  0.00    +0.000 F 
ENDBRANCH  20  21
ENDBRANCH   8  20
TORSDOF 5
ENDMDL
MODEL 2
REMARK VINA RESULT:      -7.7      0.980      1.368
REMARK  Name = 
REMARK  5 active torsions:
REMARK  status: ('A' for Active; 'I' for Inactive)
REMARK    1  A    between atoms: O_1  and  C_2
REMARK    2  A    between atoms: C_7  and  C_8
REMARK    3  A    between atoms: C_8  and  N_9
REMARK    4  A    between atoms: N_16  and  C_17
REMARK    5  A    between atoms: C_17  and  C_18
REMARK                            x       y       z     vdW  Elec       q    Type
REMARK                         _______ _______ _______ _____ _____    ______ ____
ROOT
ATOM      1  N   UNL     1       4.418   3.189  17.071  0.00  0.00    +0.000 NA
ATOM      2  C   UNL     1       3.182   3.746  16.526  0.00  0.00    +0.000 C 
ATOM      3  C   UNL     1       2.252   4.032  17.691  0.00  0.00    +0.000 C 
ATOM      4  C   UNL     1       3.105   4.012  18.969  0.00  0.00    +0.000 C 
ATOM      5  C   UNL     1       2.465   3.092  20.031  0.00  0.00    +0.000 C 
ATOM      6  C   UNL     1       1.153   3.683  20.545  0.00  0.00    +0.000 C 
ATOM      7  C   UNL     1       1.329   5.117  21.049  0.00  0.00    +0.000 C 
ATOM      8  N   UNL     1       1.969   5.993  20.053  0.00  0.00    +0.000 NA
ATOM      9  C   UNL     1       3.253   5.419  19.601  0.00  0.00    +0.000 C 
ATOM     10  C   UNL     1       4.481   3.495  18.508  0.00  0.00    +0.000 C 
ENDROOT
BRANCH   1  11
ATOM     11  C   UNL     1       5.600   3.721  16.357  0.00  0.00    +0.000 C 
BRANCH  11  17
ATOM     12  C   UNL     1       7.314   5.167  17.586  0.00  0.00    +0.000 A 
ATOM     13  C   UNL     1       7.830   6.420  17.937  0.00  0.00    +0.000 A 
ATOM     14  C   UNL     1       7.135   7.578  17.591  0.00  0.00    +0.000 A 
ATOM     15  C   UNL     1       5.921   7.486  16.913  0.00  0.00    +0.000 A 
ATOM     16  C   UNL     1       5.416   6.230  16.553  0.00  0.00    +0.000 A 
ATOM     17  C   UNL     1       6.112   5.052  16.874  0.00  0.00    +0.000 A 
BRANCH  12  18
ATOM     18  O   UNL     1       7.999   4.038  17.936  0.00  0.00    +0.000 OA
ATOM     19  H   UNL     1       8.851   4.303  18.319  0.00  0.00    +0.000 HD
ENDBRANCH  12  18
ENDBRANCH  11  17
ENDBRANCH   1  11
BRANCH   8  20
ATOM     20  C   UNL     1       2.197   7.350  20.601  0.00  0.00    +0.000 C 
BRANCH  20  21
ATOM     21  C   UNL     1       1.405   8.432  19.903  0.00  0.00    +0.000 A 
ATOM     22  C   UNL     1       0.386   9.128  20.572  0.00  0.00    +0.000 A 
ATOM     23  C   UNL     1      -0.302  10.163  19.934  0.00  0.00    +0.000 A 
ATOM     24  C   UNL     1       0.014  10.512  18.620  0.00  0.00    +0.000 A 
ATOM     25  C   UNL     1       1.007   9.811  17.938  0.00  0.00    +0.000 A 
ATOM     26  C   UNL     1       1.687   8.780  18.579  0.00  0.00    +0.000 A 
ATOM     27  F   UNL     1       2.640   8.123  17.901  0.00  0.00    +0.000 F 
ENDBRANCH  20  21
ENDBRANCH   8  20
TORSDOF 5
ENDMDL
MODEL 3
REMARK VINA RESULT:      -7.6      1.410      1.965
REMARK  Name = 
REMARK  5 active torsions:
REMARK  status: ('A' for Active; 'I' for Inactive)
REMARK    1  A    between atoms: O_1  and  C_2
REMARK    2  A    between atoms: C_7  and  C_8
REMARK    3  A    between atoms: C_8  and  N_9
REMARK    4  A    between atoms: N_16  and  C_17
REMARK    5  A    between atoms: C_17  and  C_18
REMARK                            x       y       z     vdW  Elec       q    Type
REMARK                         _______ _______ _______ _____ _____    ______ ____
ROOT
ATOM      1  N   UNL     1       4.546   3.340  17.040  0.00  0.00    +0.000 NA
ATOM      2  C   UNL     1       3.274   3.821  16.502  0.00  0.00    +0.000 C 
ATOM      3  C   UNL     1       2.375   4.163  17.676  0.00  0.00    +0.000 C 
ATOM      4  C   UNL     1       3.271   4.259  18.922  0.00  0.00    +0.000 C 
ATOM      5  C   UNL     1       2.696   3.400  20.068  0.00  0.00    +0.000 C 
ATOM      6  C   UNL     1       1.383   3.987  20.585  0.00  0.00    +0.000 C 
ATOM      7  C   UNL     1       1.531   5.458  20.980  0.00  0.00    +0.000 C 
ATOM      8  N   UNL     1       2.110   6.279  19.903  0.00  0.00    +0.000 NA
ATOM      9  C   UNL     1       3.396   5.711  19.448  0.00  0.00    +0.000 C 
ATOM     10  C   UNL     1       4.646   3.750  18.450  0.00  0.00    +0.000 C 
ENDROOT
BRANCH   1  11
ATOM     11  C   UNL     1       5.685   3.854  16.250  0.00  0.00    +0.000 C 
BRANCH  11  17
ATOM     12  C   UNL     1       6.224   6.321  16.651  0.00  0.00    +0.000 A 
ATOM     13  C   UNL     1       6.873   7.330  17.373  0.00  0.00    +0.000 A 
ATOM     14  C   UNL     1       7.798   6.992  18.361  0.00  0.00    +0.000 A 
ATOM     15  C   UNL     1       8.086   5.653  18.615  0.00  0.00    +0.000 A 
ATOM     16  C   UNL     1       7.424   4.647  17.899  0.00  0.00    +0.000 A 
ATOM     17  C   UNL     1       6.474   4.968  16.915  0.00  0.00    +0.000 A 
BRANCH  12  18
ATOM     18  O   UNL     1       5.325   6.664  15.681  0.00  0.00    +0.000 OA
ATOM     19  H   UNL     1       4.659   5.959  15.618  0.00  0.00    +0.000 HD
ENDBRANCH  12  18
ENDBRANCH  11  17
ENDBRANCH   1  11
BRANCH   8  20
ATOM     20  C   UNL     1       2.313   7.677  20.345  0.00  0.00    +0.000 C 
BRANCH  20  21
ATOM     21  C   UNL     1       1.312   8.653  19.769  0.00  0.00    +0.000 A 
ATOM     22  C   UNL     1       0.335   9.250  20.581  0.00  0.00    +0.000 A 
ATOM     23  C   UNL     1      -0.550  10.191  20.048  0.00  0.00    +0.000 A 
ATOM     24  C   UNL     1      -0.475  10.543  18.700  0.00  0.00    +0.000 A 
ATOM     25  C   UNL     1       0.475   9.937  17.879  0.00  0.00    +0.000 A 
ATOM     26  C   UNL     1       1.352   8.999  18.415  0.00  0.00    +0.000 A 
ATOM     27  F   UNL     1       2.259   8.432  17.605  0.00  0.00    +0.000 F 
ENDBRANCH  20  21
ENDBRANCH   8  20
TORSDOF 5
ENDMDL
MODEL 4
REMARK VINA RESULT:      -7.5      1.165      1.579
REMARK  Name = 
REMARK  5 active torsions:
REMARK  status: ('A' for Active; 'I' for Inactive)
REMARK    1  A    between atoms: O_1  and  C_2
REMARK    2  A    between atoms: C_7  and  C_8
REMARK    3  A    between atoms: C_8  and  N_9
REMARK    4  A    between atoms: N_16  and  C_17
REMARK    5  A    between atoms: C_17  and  C_18
REMARK                            x       y       z     vdW  Elec       q    Type
REMARK                         _______ _______ _______ _____ _____    ______ ____
ROOT
ATOM      1  N   UNL     1       4.512   3.328  17.138  0.00  0.00    +0.000 NA
ATOM      2  C   UNL     1       3.275   3.829  16.542  0.00  0.00    +0.000 C 
ATOM      3  C   UNL     1       2.352   4.243  17.674  0.00  0.00    +0.000 C 
ATOM      4  C   UNL     1       3.211   4.356  18.943  0.00  0.00    +0.000 C 
ATOM      5  C   UNL     1       2.573   3.559  20.101  0.00  0.00    +0.000 C 
ATOM      6  C   UNL     1       1.265   4.206  20.554  0.00  0.00    +0.000 C 
ATOM      7  C   UNL     1       1.449   5.686  20.901  0.00  0.00    +0.000 C 
ATOM      8  N   UNL     1       2.088   6.447  19.813  0.00  0.00    +0.000 NA
ATOM      9  C   UNL     1       3.368   5.822  19.420  0.00  0.00    +0.000 C 
ATOM     10  C   UNL     1       4.583   3.786  18.534  0.00  0.00    +0.000 C 
ENDROOT
BRANCH   1  11
ATOM     11  C   UNL     1       5.692   3.775  16.367  0.00  0.00    +0.000 C 
BRANCH  11  17
ATOM     12  C   UNL     1       6.236   6.259  16.630  0.00  0.00    +0.000 A 
ATOM     13  C   UNL     1       6.866   7.308  17.310  0.00  0.00    +0.000 A 
ATOM     14  C   UNL     1       7.750   7.028  18.352  0.00  0.00    +0.000 A 
ATOM     15  C   UNL     1       8.017   5.706  18.701  0.00  0.00    +0.000 A 
ATOM     16  C   UNL     1       7.374   4.660  18.026  0.00  0.00    +0.000 A 
ATOM     17  C   UNL     1       6.464   4.924  16.988  0.00  0.00    +0.000 A 
BRANCH  12  18
ATOM     18  O   UNL     1       5.376   6.544  15.607  0.00  0.00    +0.000 OA
ATOM     19  H   UNL     1       4.516   6.139  15.808  0.00  0.00    +0.000 HD
ENDBRANCH  12  18
ENDBRANCH  11  17
ENDBRANCH   1  11
BRANCH   8  20
ATOM     20  C   UNL     1       2.324   7.854  20.211  0.00  0.00    +0.000 C 
BRANCH  20  21
ATOM     21  C   UNL     1       1.257   8.812  19.734  0.00  0.00    +0.000 A 
ATOM     22  C   UNL     1       1.179   9.194  18.385  0.00  0.00    +0.000 A 
ATOM     23  C   UNL     1       0.156  10.037  17.946  0.00  0.00    +0.000 A 
ATOM     24  C   UNL     1      -0.798  10.514  18.846  0.00  0.00    +0.000 A 
ATOM     25  C   UNL     1      -0.715  10.162  20.193  0.00  0.00    +0.000 A 
ATOM     26  C   UNL     1       0.309   9.323  20.625  0.00  0.00    +0.000 A 
ATOM     27  F   UNL     1       0.364   8.997  21.925  0.00  0.00    +0.000 F 
ENDBRANCH  20  21
ENDBRANCH   8  20
TORSDOF 5
ENDMDL
MODEL 5
REMARK VINA RESULT:      -7.2      2.831      5.190
REMARK  Name = 
REMARK  5 active torsions:
REMARK  status: ('A' for Active; 'I' for Inactive)
REMARK    1  A    between atoms: O_1  and  C_2
REMARK    2  A    between atoms: C_7  and  C_8
REMARK    3  A    between atoms: C_8  and  N_9
REMARK    4  A    between atoms: N_16  and  C_17
REMARK    5  A    between atoms: C_17  and  C_18
REMARK                            x       y       z     vdW  Elec       q    Type
REMARK                         _______ _______ _______ _____ _____    ______ ____
ROOT
ATOM      1  N   UNL     1       6.151   6.323  15.949  0.00  0.00    +0.000 NA
ATOM      2  C   UNL     1       6.678   6.959  17.155  0.00  0.00    +0.000 C 
ATOM      3  C   UNL     1       5.495   7.403  17.997  0.00  0.00    +0.000 C 
ATOM      4  C   UNL     1       4.256   6.665  17.465  0.00  0.00    +0.000 C 
ATOM      5  C   UNL     1       3.109   7.662  17.192  0.00  0.00    +0.000 C 
ATOM      6  C   UNL     1       2.580   8.256  18.497  0.00  0.00    +0.000 C 
ATOM      7  C   UNL     1       2.179   7.170  19.499  0.00  0.00    +0.000 C 
ATOM      8  N   UNL     1       3.257   6.196  19.740  0.00  0.00    +0.000 NA
ATOM      9  C   UNL     1       3.725   5.609  18.467  0.00  0.00    +0.000 C 
ATOM     10  C   UNL     1       4.740   5.973  16.177  0.00  0.00    +0.000 C 
ENDROOT
BRANCH   1  11
ATOM     11  C   UNL     1       6.948   5.131  15.586  0.00  0.00    +0.000 C 
BRANCH  11  17
ATOM     12  C   UNL     1       7.678   5.035  13.138  0.00  0.00    +0.000 A 
ATOM     13  C   UNL     1       7.581   4.488  11.852  0.00  0.00    +0.000 A 
ATOM     14  C   UNL     1       6.570   3.572  11.563  0.00  0.00    +0.000 A 
ATOM     15  C   UNL     1       5.650   3.217  12.546  0.00  0.00    +0.000 A 
ATOM     16  C   UNL     1       5.759   3.757  13.834  0.00  0.00    +0.000 A 
ATOM     17  C   UNL     1       6.784   4.665  14.151  0.00  0.00    +0.000 A 
BRANCH  12  18
ATOM     18  O   UNL     1       8.668   5.936  13.409  0.00  0.00    +0.000 OA
ATOM     19  H   UNL     1       9.196   6.063  12.604  0.00  0.00    +0.000 HD
ENDBRANCH  12  18
ENDBRANCH  11  17
ENDBRANCH   1  11
BRANCH   8  20
ATOM     20  C   UNL     1       2.810   5.116  20.650  0.00  0.00    +0.000 C 
BRANCH  20  21
ATOM     21  C   UNL     1       2.378   3.856  19.937  0.00  0.00    +0.000 A 
ATOM     22  C   UNL     1       1.047   3.676  19.530  0.00  0.00    +0.000 A 
ATOM     23  C   UNL     1       0.671   2.530  18.824  0.00  0.00    +0.000 A 
ATOM     24  C   UNL     1       1.615   1.548  18.522  0.00  0.00    +0.000 A 
ATOM     25  C   UNL     1       2.935   1.704  18.944  0.00  0.00    +0.000 A 
ATOM     26  C   UNL     1       3.303   2.847  19.649  0.00  0.00    +0.000 A 
ATOM     27  F   UNL     1       4.579   2.975  20.041  0.00  0.00    +0.000 F 
ENDBRANCH  20  21
ENDBRANCH   8  20
TORSDOF 5
ENDMDL
MODEL 6
REMARK VINA RESULT:      -7.1      1.938      2.631
REMARK  Name = 
REMARK  5 active torsions:
REMARK  status: ('A' for Active; 'I' for Inactive)
REMARK    1  A    between atoms: O_1  and  C_2
REMARK    2  A    between atoms: C_7  and  C_8
REMARK    3  A    between atoms: C_8  and  N_9
REMARK    4  A    between atoms: N_16  and  C_17
REMARK    5  A    between atoms: C_17  and  C_18
REMARK                            x       y       z     vdW  Elec       q    Type
REMARK                         _______ _______ _______ _____ _____    ______ ____
ROOT
ATOM      1  N   UNL     1       5.121   3.922  16.654  0.00  0.00    +0.000 NA
ATOM      2  C   UNL     1       3.691   3.913  16.352  0.00  0.00    +0.000 C 
ATOM      3  C   UNL     1       2.944   3.716  17.659  0.00  0.00    +0.000 C 
ATOM      4  C   UNL     1       3.934   4.009  18.797  0.00  0.00    +0.000 C 
ATOM      5  C   UNL     1       3.935   2.856  19.823  0.00  0.00    +0.000 C 
ATOM      6  C   UNL     1       2.606   2.795  20.577  0.00  0.00    +0.000 C 
ATOM      7  C   UNL     1       2.249   4.140  21.214  0.00  0.00    +0.000 C 
ATOM      8  N   UNL     1       2.278   5.251  20.248  0.00  0.00    +0.000 NA
ATOM      9  C   UNL     1       3.585   5.311  19.561  0.00  0.00    +0.000 C 
ATOM     10  C   UNL     1       5.298   4.160  18.095  0.00  0.00    +0.000 C 
ENDROOT
BRANCH   1  11
ATOM     11  C   UNL     1       5.827   4.945  15.852  0.00  0.00    +0.000 C 
BRANCH  11  17
ATOM     12  C   UNL     1       7.279   4.894  13.749  0.00  0.00    +0.000 A 
ATOM     13  C   UNL     1       7.556   4.413  12.463  0.00  0.00    +0.000 A 
ATOM     14  C   UNL     1       6.630   3.594  11.816  0.00  0.00    +0.000 A 
ATOM     15  C   UNL     1       5.427   3.274  12.441  0.00  0.00    +0.000 A 
ATOM     16  C   UNL     1       5.162   3.748  13.732  0.00  0.00    +0.000 A 
ATOM     17  C   UNL     1       6.091   4.556  14.409  0.00  0.00    +0.000 A 
BRANCH  12  18
ATOM     18  O   UNL     1       8.190   5.701  14.372  0.00  0.00    +0.000 OA
ATOM     19  H   UNL     1       8.327   6.489  13.822  0.00  0.00    +0.000 HD
ENDBRANCH  12  18
ENDBRANCH  11  17
ENDBRANCH   1  11
BRANCH   8  20
ATOM     20  C   UNL     1       2.007   6.546  20.912  0.00  0.00    +0.000 C 
BRANCH  20  21
ATOM     21  C   UNL     1       1.828   7.700  19.953  0.00  0.00    +0.000 A 
ATOM     22  C   UNL     1       2.337   7.640  18.646  0.00  0.00    +0.000 A 
ATOM     23  C   UNL     1       2.118   8.690  17.752  0.00  0.00    +0.000 A 
ATOM     24  C   UNL     1       1.396   9.815  18.150  0.00  0.00    +0.000 A 
ATOM     25  C   UNL     1       0.908   9.898  19.454  0.00  0.00    +0.000 A 
ATOM     26  C   UNL     1       1.130   8.848  20.341  0.00  0.00    +0.000 A 
ATOM     27  F   UNL     1       0.648   8.951  21.588  0.00  0.00    +0.000 F 
ENDBRANCH  20  21
ENDBRANCH   8  20
TORSDOF 5
ENDMDL
MODEL 7
REMARK VINA RESULT:      -7.0      1.593      2.370
REMARK  Name = 
REMARK  5 active torsions:
REMARK  status: ('A' for Active; 'I' for Inactive)
REMARK    1  A    between atoms: O_1  and  C_2
REMARK    2  A    between atoms: C_7  and  C_8
REMARK    3  A    between atoms: C_8  and  N_9
REMARK    4  A    between atoms: N_16  and  C_17
REMARK    5  A    between atoms: C_17  and  C_18
REMARK                            x       y       z     vdW  Elec       q    Type
REMARK                         _______ _______ _______ _____ _____    ______ ____
ROOT
ATOM      1  N   UNL     1       4.406   3.480  17.458  0.00  0.00    +0.000 NA
ATOM      2  C   UNL     1       3.118   3.777  16.835  0.00  0.00    +0.000 C 
ATOM      3  C   UNL     1       2.203   4.339  17.908  0.00  0.00    +0.000 C 
ATOM      4  C   UNL     1       3.091   4.747  19.094  0.00  0.00    +0.000 C 
ATOM      5  C   UNL     1       2.549   4.145  20.408  0.00  0.00    +0.000 C 
ATOM      6  C   UNL     1       1.212   4.781  20.788  0.00  0.00    +0.000 C 
ATOM      7  C   UNL     1       1.300   6.308  20.842  0.00  0.00    +0.000 C 
ATOM      8  N   UNL     1       1.847   6.888  19.604  0.00  0.00    +0.000 NA
ATOM      9  C   UNL     1       3.156   6.284  19.279  0.00  0.00    +0.000 C 
ATOM     10  C   UNL     1       4.487   4.200  18.739  0.00  0.00    +0.000 C 
ENDROOT
BRANCH   1  11
ATOM     11  C   UNL     1       5.526   3.848  16.565  0.00  0.00    +0.000 C 
BRANCH  11  17
ATOM     12  C   UNL     1       6.233   6.304  16.629  0.00  0.00    +0.000 A 
ATOM     13  C   UNL     1       6.960   7.354  17.203  0.00  0.00    +0.000 A 
ATOM     14  C   UNL     1       7.879   7.087  18.218  0.00  0.00    +0.000 A 
ATOM     15  C   UNL     1       8.083   5.777  18.645  0.00  0.00    +0.000 A 
ATOM     16  C   UNL     1       7.343   4.733  18.077  0.00  0.00    +0.000 A 
ATOM     17  C   UNL     1       6.398   4.984  17.068  0.00  0.00    +0.000 A 
BRANCH  12  18
ATOM     18  O   UNL     1       5.340   6.575  15.631  0.00  0.00    +0.000 OA
ATOM     19  H   UNL     1       4.450   6.616  16.018  0.00  0.00    +0.000 HD
ENDBRANCH  12  18
ENDBRANCH  11  17
ENDBRANCH   1  11
BRANCH   8  20
ATOM     20  C   UNL     1       1.993   8.357  19.719  0.00  0.00    +0.000 C 
BRANCH  20  21
ATOM     21  C   UNL     1       1.065   8.987  20.733  0.00  0.00    +0.000 A 
ATOM     22  C   UNL     1       1.309   8.866  22.110  0.00  0.00    +0.000 A 
ATOM     23  C   UNL     1       0.474   9.498  23.034  0.00  0.00    +0.000 A 
ATOM     24  C   UNL     1      -0.617  10.251  22.598  0.00  0.00    +0.000 A 
ATOM     25  C   UNL     1      -0.884  10.356  21.234  0.00  0.00    +0.000 A 
ATOM     26  C   UNL     1      -0.049   9.723  20.317  0.00  0.00    +0.000 A 
ATOM     27  F   UNL     1      -0.326   9.842  19.010  0.00  0.00    +0.000 F 
ENDBRANCH  20  21
ENDBRANCH   8  20
TORSDOF 5
ENDMDL
MODEL 8
REMARK VINA RESULT:      -6.9      2.638      5.063
REMARK  Name = 
REMARK  5 active torsions:
REMARK  status: ('A' for Active; 'I' for Inactive)
REMARK    1  A    between atoms: O_1  and  C_2
REMARK    2  A    between atoms: C_7  and  C_8
REMARK    3  A    between atoms: C_8  and  N_9
REMARK    4  A    between atoms: N_16  and  C_17
REMARK    5  A    between atoms: C_17  and  C_18
REMARK                            x       y       z     vdW  Elec       q    Type
REMARK                         _______ _______ _______ _____ _____    ______ ____
ROOT
ATOM      1  N   UNL     1       6.273   6.337  15.913  0.00  0.00    +0.000 NA
ATOM      2  C   UNL     1       6.793   6.958  17.129  0.00  0.00    +0.000 C 
ATOM      3  C   UNL     1       5.606   7.375  17.979  0.00  0.00    +0.000 C 
ATOM      4  C   UNL     1       4.375   6.632  17.436  0.00  0.00    +0.000 C 
ATOM      5  C   UNL     1       3.217   7.621  17.180  0.00  0.00    +0.000 C 
ATOM      6  C   UNL     1       2.682   8.186  18.495  0.00  0.00    +0.000 C 
ATOM      7  C   UNL     1       2.294   7.080  19.479  0.00  0.00    +0.000 C 
ATOM      8  N   UNL     1       3.383   6.114  19.702  0.00  0.00    +0.000 NA
ATOM      9  C   UNL     1       3.856   5.553  18.419  0.00  0.00    +0.000 C 
ATOM     10  C   UNL     1       4.866   5.967  16.136  0.00  0.00    +0.000 C 
ENDROOT
BRANCH   1  11
ATOM     11  C   UNL     1       7.082   5.160  15.529  0.00  0.00    +0.000 C 
BRANCH  11  17
ATOM     12  C   UNL     1       7.729   5.070  13.057  0.00  0.00    +0.000 A 
ATOM     13  C   UNL     1       7.601   4.514  11.778  0.00  0.00    +0.000 A 
ATOM     14  C   UNL     1       6.605   3.571  11.528  0.00  0.00    +0.000 A 
ATOM     15  C   UNL     1       5.729   3.198  12.545  0.00  0.00    +0.000 A 
ATOM     16  C   UNL     1       5.869   3.747  13.826  0.00  0.00    +0.000 A 
ATOM     17  C   UNL     1       6.880   4.683  14.102  0.00  0.00    +0.000 A 
BRANCH  12  18
ATOM     18  O   UNL     1       8.704   5.998  13.290  0.00  0.00    +0.000 OA
ATOM     19  H   UNL     1       8.530   6.417  14.149  0.00  0.00    +0.000 HD
ENDBRANCH  12  18
ENDBRANCH  11  17
ENDBRANCH   1  11
BRANCH   8  20
ATOM     20  C   UNL     1       2.949   5.014  20.594  0.00  0.00    +0.000 C 
BRANCH  20  21
ATOM     21  C   UNL     1       2.485   3.777  19.859  0.00  0.00    +0.000 A 
ATOM     22  C   UNL     1       3.407   2.869  19.317  0.00  0.00    +0.000 A 
ATOM     23  C   UNL     1       2.966   1.703  18.687  0.00  0.00    +0.000 A 
ATOM     24  C   UNL     1       1.601   1.431  18.586  0.00  0.00    +0.000 A 
ATOM     25  C   UNL     1       0.675   2.338  19.099  0.00  0.00    +0.000 A 
ATOM     26  C   UNL     1       1.121   3.499  19.723  0.00  0.00    +0.000 A 
ATOM     27  F   UNL     1       0.210   4.355  20.211  0.00  0.00    +0.000 F 
ENDBRANCH  20  21
ENDBRANCH   8  20
TORSDOF 5
ENDMDL
MODEL 9
REMARK VINA RESULT:      -6.8      2.848      6.305
REMARK  Name = 
REMARK  5 active torsions:
REMARK  status: ('A' for Active; 'I' for Inactive)
REMARK    1  A    between atoms: O_1  and  C_2
REMARK    2  A    between atoms: C_7  and  C_8
REMARK    3  A    between atoms: C_8  and  N_9
REMARK    4  A    between atoms: N_16  and  C_17
REMARK    5  A    between atoms: C_17  and  C_18
REMARK                            x       y       z     vdW  Elec       q    Type
REMARK                         _______ _______ _______ _____ _____    ______ ____
ROOT
ATOM      1  N   UNL     1       1.551   6.116  20.594  0.00  0.00    +0.000 NA
ATOM      2  C   UNL     1       2.449   5.171  21.256  0.00  0.00    +0.000 C 
ATOM      3  C   UNL     1       2.775   4.070  20.262  0.00  0.00    +0.000 C 
ATOM      4  C   UNL     1       2.379   4.584  18.869  0.00  0.00    +0.000 C 
ATOM      5  C   UNL     1       1.490   3.550  18.144  0.00  0.00    +0.000 C 
ATOM      6  C   UNL     1       2.288   2.295  17.795  0.00  0.00    +0.000 C 
ATOM      7  C   UNL     1       3.558   2.624  17.006  0.00  0.00    +0.000 C 
ATOM      8  N   UNL     1       4.394   3.635  17.675  0.00  0.00    +0.000 NA
ATOM      9  C   UNL     1       3.610   4.852  17.967  0.00  0.00    +0.000 C 
ATOM     10  C   UNL     1       1.629   5.902  19.141  0.00  0.00    +0.000 C 
ENDROOT
BRANCH   1  11
ATOM     11  C   UNL     1       1.892   7.510  20.950  0.00  0.00    +0.000 C 
BRANCH  11  17
ATOM     12  C   UNL     1       0.004   9.225  20.782  0.00  0.00    +0.000 A 
ATOM     13  C   UNL     1      -0.627  10.291  20.128  0.00  0.00    +0.000 A 
ATOM     14  C   UNL     1      -0.172  10.703  18.876  0.00  0.00    +0.000 A 
ATOM     15  C   UNL     1       0.896  10.043  18.272  0.00  0.00    +0.000 A 
ATOM     16  C   UNL     1       1.532   8.987  18.936  0.00  0.00    +0.000 A 
ATOM     17  C   UNL     1       1.101   8.571  20.207  0.00  0.00    +0.000 A 
BRANCH  12  18
ATOM     18  O   UNL     1      -0.454   8.825  22.006  0.00  0.00    +0.000 OA
ATOM     19  H   UNL     1      -1.145   8.157  21.870  0.00  0.00    +0.000 HD
ENDBRANCH  12  18
ENDBRANCH  11  17
ENDBRANCH   1  11
BRANCH   8  20
ATOM     20  C   UNL     1       5.571   3.988  16.848  0.00  0.00    +0.000 C 
BRANCH  20  21
ATOM     21  C   UNL     1       6.406   5.111  17.421  0.00  0.00    +0.000 A 
ATOM     22  C   UNL     1       7.215   4.908  18.549  0.00  0.00    +0.000 A 
ATOM     23  C   UNL     1       8.023   5.938  19.036  0.00  0.00    +0.000 A 
ATOM     24  C   UNL     1       8.029   7.185  18.408  0.00  0.00    +0.000 A 
ATOM     25  C   UNL     1       7.209   7.406  17.302  0.00  0.00    +0.000 A 
ATOM     26  C   UNL     1       6.405   6.375  16.823  0.00  0.00    +0.000 A 
ATOM     27  F   UNL     1       5.628   6.613  15.755  0.00  0.00    +0.000 F 
ENDBRANCH  20  21
ENDBRANCH   8  20
TORSDOF 5
ENDMDL
