MODEL 1
REMARK VINA RESULT:      -9.1      0.000      0.000
REMARK  Name = 
REMARK  6 active torsions:
REMARK  status: ('A' for Active; 'I' for Inactive)
REMARK    1  A    between atoms: C_1  and  C_2
REMARK    2  A    between atoms: C_9  and  N_10
REMARK    3  A    between atoms: C_11  and  C_13
REMARK    4  A    between atoms: C_13  and  C_14
REMARK    5  A    between atoms: N_17  and  C_18
REMARK    6  A    between atoms: C_18  and  C_19
REMARK                            x       y       z     vdW  Elec       q    Type
REMARK                         _______ _______ _______ _____ _____    ______ ____
ROOT
ATOM      1  N   UNL     1       3.296   6.904  18.595  0.00  0.00    +0.000 N 
ATOM      2  C   UNL     1       4.034   6.891  17.415  0.00  0.00    +0.000 C 
ATOM      3  O   UNL     1       3.900   7.712  16.500  0.00  0.00    +0.000 OA
ATOM      4  H   UNL     1       3.474   6.125  19.225  0.00  0.00    +0.000 HD
ENDROOT
BRANCH   1  13
ATOM      5  C   UNL     1      -1.349  11.960  18.196  0.00  0.00    +0.000 C 
ATOM      6  C   UNL     1      -1.329  11.700  19.678  0.00  0.00    +0.000 C 
ATOM      7  O   UNL     1      -2.053  12.373  20.415  0.00  0.00    +0.000 OA
ATOM      8  N   UNL     1      -0.526  10.703  20.179  0.00  0.00    +0.000 N 
ATOM      9  C   UNL     1      -0.625  10.375  21.613  0.00  0.00    +0.000 C 
ATOM     10  C   UNL     1       0.385   9.274  21.915  0.00  0.00    +0.000 C 
ATOM     11  C   UNL     1       0.901   8.964  20.550  0.00  0.00    +0.000 A 
ATOM     12  C   UNL     1       1.828   7.976  20.253  0.00  0.00    +0.000 A 
ATOM     13  C   UNL     1       2.311   7.850  18.952  0.00  0.00    +0.000 A 
ATOM     14  C   UNL     1       1.805   8.712  17.965  0.00  0.00    +0.000 A 
ATOM     15  C   UNL     1       0.848   9.702  18.275  0.00  0.00    +0.000 A 
ATOM     16  C   UNL     1       0.396   9.823  19.579  0.00  0.00    +0.000 A 
ENDBRANCH   1  13
BRANCH   2  17
ATOM     17  C   UNL     1       5.072   5.707  17.290  0.00  0.00    +0.000 C 
ATOM     18  C   UNL     1       5.032   5.075  15.886  0.00  0.00    +0.000 C 
ATOM     19  C   UNL     1       6.543   6.042  17.696  0.00  0.00    +0.000 C 
ATOM     20  C   UNL     1       6.542   4.646  18.356  0.00  0.00    +0.000 C 
ATOM     21  N   UNL     1       5.072   4.781  18.485  0.00  0.00    +0.000 NA
BRANCH  21  22
ATOM     22  C   UNL     1       4.340   3.528  18.280  0.00  0.00    +0.000 C 
BRANCH  22  23
ATOM     23  C   UNL     1       3.212   3.320  19.272  0.00  0.00    +0.000 A 
ATOM     24  C   UNL     1       3.519   2.701  20.501  0.00  0.00    +0.000 A 
ATOM     25  C   UNL     1       2.554   2.561  21.498  0.00  0.00    +0.000 A 
ATOM     26  C   UNL     1       1.267   3.039  21.286  0.00  0.00    +0.000 A 
ATOM     27  C   UNL     1       0.929   3.606  20.057  0.00  0.00    +0.000 A 
ATOM     28  C   UNL     1       1.887   3.721  19.043  0.00  0.00    +0.000 A 
ATOM     29 CL   UNL     1       1.364   4.347  17.518  0.00  0.00    +0.000 Cl
ENDBRANCH  22  23
ENDBRANCH  21  22
ENDBRANCH   2  17
TORSDOF 4
ENDMDL
MODEL 2
REMARK VINA RESULT:      -8.7      0.659      1.722
REMARK  Name = 
REMARK  6 active torsions:
REMARK  status: ('A' for Active; 'I' for Inactive)
REMARK    1  A    between atoms: C_1  and  C_2
REMARK    2  A    between atoms: C_9  and  N_10
REMARK    3  A    between atoms: C_11  and  C_13
REMARK    4  A    between atoms: C_13  and  C_14
REMARK    5  A    between atoms: N_17  and  C_18
REMARK    6  A    between atoms: C_18  and  C_19
REMARK                            x       y       z     vdW  Elec       q    Type
REMARK                         _______ _______ _______ _____ _____    ______ ____
ROOT
ATOM      1  N   UNL     1       3.338   6.647  18.798  0.00  0.00    +0.000 N 
ATOM      2  C   UNL     1       4.041   6.744  17.601  0.00  0.00    +0.000 C 
ATOM      3  O   UNL     1       3.944   7.689  16.810  0.00  0.00    +0.000 OA
ATOM      4  H   UNL     1       3.475   5.779  19.311  0.00  0.00    +0.000 HD
ENDROOT
BRANCH   1  13
ATOM      5  C   UNL     1      -0.754  10.098  23.116  0.00  0.00    +0.000 C 
ATOM      6  C   UNL     1      -1.029  10.814  21.821  0.00  0.00    +0.000 C 
ATOM      7  O   UNL     1      -1.837  11.745  21.810  0.00  0.00    +0.000 OA
ATOM      8  N   UNL     1      -0.356  10.435  20.683  0.00  0.00    +0.000 N 
ATOM      9  C   UNL     1      -0.538  11.238  19.460  0.00  0.00    +0.000 C 
ATOM     10  C   UNL     1       0.279  10.591  18.347  0.00  0.00    +0.000 C 
ATOM     11  C   UNL     1       0.988   9.509  19.091  0.00  0.00    +0.000 A 
ATOM     12  C   UNL     1       1.916   8.639  18.540  0.00  0.00    +0.000 A 
ATOM     13  C   UNL     1       2.434   7.602  19.314  0.00  0.00    +0.000 A 
ATOM     14  C   UNL     1       2.027   7.499  20.654  0.00  0.00    +0.000 A 
ATOM     15  C   UNL     1       1.095   8.403  21.209  0.00  0.00    +0.000 A 
ATOM     16  C   UNL     1       0.577   9.414  20.417  0.00  0.00    +0.000 A 
ENDBRANCH   1  13
BRANCH   2  17
ATOM     17  C   UNL     1       4.986   5.519  17.281  0.00  0.00    +0.000 C 
ATOM     18  C   UNL     1       4.727   4.970  15.866  0.00  0.00    +0.000 C 
ATOM     19  C   UNL     1       6.513   5.758  17.503  0.00  0.00    +0.000 C 
ATOM     20  C   UNL     1       6.520   4.329  18.089  0.00  0.00    +0.000 C 
ATOM     21  N   UNL     1       5.090   4.529  18.418  0.00  0.00    +0.000 NA
BRANCH  21  22
ATOM     22  C   UNL     1       4.268   3.327  18.252  0.00  0.00    +0.000 C 
BRANCH  22  23
ATOM     23  C   UNL     1       3.159   3.208  19.280  0.00  0.00    +0.000 A 
ATOM     24  C   UNL     1       3.472   2.627  20.525  0.00  0.00    +0.000 A 
ATOM     25  C   UNL     1       2.530   2.568  21.551  0.00  0.00    +0.000 A 
ATOM     26  C   UNL     1       1.258   3.093  21.352  0.00  0.00    +0.000 A 
ATOM     27  C   UNL     1       0.912   3.624  20.110  0.00  0.00    +0.000 A 
ATOM     28  C   UNL     1       1.846   3.657  19.068  0.00  0.00    +0.000 A 
ATOM     29 CL   UNL     1       1.309   4.243  17.532  0.00  0.00    +0.000 Cl
ENDBRANCH  22  23
ENDBRANCH  21  22
ENDBRANCH   2  17
TORSDOF 4
ENDMDL
MODEL 3
REMARK VINA RESULT:      -8.6      2.109      4.347
REMARK  Name = 
REMARK  6 active torsions:
REMARK  status: ('A' for Active; 'I' for Inactive)
REMARK    1  A    between atoms: C_1  and  C_2
REMARK    2  A    between atoms: C_9  and  N_10
REMARK    3  A    between atoms: C_11  and  C_13
REMARK    4  A    between atoms: C_13  and  C_14
REMARK    5  A    between atoms: N_17  and  C_18
REMARK    6  A    between atoms: C_18  and  C_19
REMARK                            x       y       z     vdW  Elec       q    Type
REMARK                         _______ _______ _______ _____ _____    ______ ____
ROOT
ATOM      1  N   UNL     1       2.468   5.668  19.860  0.00  0.00    +0.000 N 
ATOM      2  C   UNL     1       1.745   4.491  20.023  0.00  0.00    +0.000 C 
ATOM      3  O   UNL     1       0.546   4.445  20.322  0.00  0.00    +0.000 OA
ATOM      4  H   UNL     1       3.461   5.544  19.679  0.00  0.00    +0.000 HD
ENDROOT
BRANCH   1  13
ATOM      5  C   UNL     1      -0.594  11.278  22.401  0.00  0.00    +0.000 C 
ATOM      6  C   UNL     1      -0.273  11.731  21.003  0.00  0.00    +0.000 C 
ATOM      7  O   UNL     1      -0.597  12.867  20.651  0.00  0.00    +0.000 OA
ATOM      8  N   UNL     1       0.396  10.881  20.154  0.00  0.00    +0.000 N 
ATOM      9  C   UNL     1       0.820  11.393  18.838  0.00  0.00    +0.000 C 
ATOM     10  C   UNL     1       1.500  10.254  18.087  0.00  0.00    +0.000 C 
ATOM     11  C   UNL     1       1.524   9.186  19.128  0.00  0.00    +0.000 A 
ATOM     12  C   UNL     1       2.094   7.931  18.970  0.00  0.00    +0.000 A 
ATOM     13  C   UNL     1       1.961   6.982  19.981  0.00  0.00    +0.000 A 
ATOM     14  C   UNL     1       1.284   7.344  21.156  0.00  0.00    +0.000 A 
ATOM     15  C   UNL     1       0.724   8.631  21.313  0.00  0.00    +0.000 A 
ATOM     16  C   UNL     1       0.849   9.554  20.287  0.00  0.00    +0.000 A 
ENDBRANCH   1  13
BRANCH   2  17
ATOM     17  C   UNL     1       2.578   3.163  19.825  0.00  0.00    +0.000 C 
ATOM     18  C   UNL     1       3.207   2.696  21.151  0.00  0.00    +0.000 C 
ATOM     19  C   UNL     1       1.827   1.983  19.131  0.00  0.00    +0.000 C 
ATOM     20  C   UNL     1       3.157   1.747  18.383  0.00  0.00    +0.000 C 
ATOM     21  N   UNL     1       3.453   3.183  18.593  0.00  0.00    +0.000 NA
BRANCH  21  22
ATOM     22  C   UNL     1       4.866   3.467  18.858  0.00  0.00    +0.000 C 
BRANCH  22  23
ATOM     23  C   UNL     1       5.551   4.224  17.737  0.00  0.00    +0.000 A 
ATOM     24  C   UNL     1       5.178   3.921  16.412  0.00  0.00    +0.000 A 
ATOM     25  C   UNL     1       5.696   4.640  15.335  0.00  0.00    +0.000 A 
ATOM     26  C   UNL     1       6.592   5.678  15.564  0.00  0.00    +0.000 A 
ATOM     27  C   UNL     1       7.013   5.958  16.864  0.00  0.00    +0.000 A 
ATOM     28  C   UNL     1       6.519   5.219  17.944  0.00  0.00    +0.000 A 
ATOM     29 CL   UNL     1       7.163   5.566  19.511  0.00  0.00    +0.000 Cl
ENDBRANCH  22  23
ENDBRANCH  21  22
ENDBRANCH   2  17
TORSDOF 4
ENDMDL
MODEL 4
REMARK VINA RESULT:      -8.6      3.043      8.373
REMARK  Name = 
REMARK  6 active torsions:
REMARK  status: ('A' for Active; 'I' for Inactive)
REMARK    1  A    between atoms: C_1  and  C_2
REMARK    2  A    between atoms: C_9  and  N_10
REMARK    3  A    between atoms: C_11  and  C_13
REMARK    4  A    between atoms: C_13  and  C_14
REMARK    5  A    between atoms: N_17  and  C_18
REMARK    6  A    between atoms: C_18  and  C_19
REMARK                            x       y       z     vdW  Elec       q    Type
REMARK                         _______ _______ _______ _____ _____    ______ ____
ROOT
ATOM      1  N   UNL     1       1.332   8.794  20.425  0.00  0.00    +0.000 N 
ATOM      2  C   UNL     1       0.769   9.760  19.596  0.00  0.00    +0.000 C 
ATOM      3  O   UNL     1       0.598   9.620  18.379  0.00  0.00    +0.000 OA
ATOM      4  H   UNL     1       1.467   9.080  21.392  0.00  0.00    +0.000 HD
ENDROOT
BRANCH   1  13
ATOM      5  C   UNL     1       4.371   3.725  16.908  0.00  0.00    +0.000 C 
ATOM      6  C   UNL     1       3.626   2.944  17.957  0.00  0.00    +0.000 C 
ATOM      7  O   UNL     1       3.703   1.714  17.956  0.00  0.00    +0.000 OA
ATOM      8  N   UNL     1       2.898   3.617  18.910  0.00  0.00    +0.000 N 
ATOM      9  C   UNL     1       2.291   2.841  20.007  0.00  0.00    +0.000 C 
ATOM     10  C   UNL     1       1.518   3.808  20.896  0.00  0.00    +0.000 C 
ATOM     11  C   UNL     1       1.871   5.121  20.281  0.00  0.00    +0.000 A 
ATOM     12  C   UNL     1       1.459   6.359  20.753  0.00  0.00    +0.000 A 
ATOM     13  C   UNL     1       1.770   7.510  20.032  0.00  0.00    +0.000 A 
ATOM     14  C   UNL     1       2.535   7.381  18.861  0.00  0.00    +0.000 A 
ATOM     15  C   UNL     1       2.965   6.117  18.401  0.00  0.00    +0.000 A 
ATOM     16  C   UNL     1       2.628   4.983  19.122  0.00  0.00    +0.000 A 
ENDBRANCH   1  13
BRANCH   2  17
ATOM     17  C   UNL     1       0.371  11.108  20.317  0.00  0.00    +0.000 C 
ATOM     18  C   UNL     1      -0.118  10.849  21.753  0.00  0.00    +0.000 C 
ATOM     19  C   UNL     1       1.451  12.236  20.301  0.00  0.00    +0.000 C 
ATOM     20  C   UNL     1       0.265  13.189  20.039  0.00  0.00    +0.000 C 
ATOM     21  N   UNL     1      -0.447  12.034  19.445  0.00  0.00    +0.000 NA
BRANCH  21  22
ATOM     22  C   UNL     1      -1.886  12.015  19.724  0.00  0.00    +0.000 C 
BRANCH  22  23
ATOM     23  C   UNL     1      -2.733  11.716  18.502  0.00  0.00    +0.000 A 
ATOM     24  C   UNL     1      -2.070  11.374  17.306  0.00  0.00    +0.000 A 
ATOM     25  C   UNL     1      -2.784  10.997  16.169  0.00  0.00    +0.000 A 
ATOM     26  C   UNL     1      -4.172  10.950  16.208  0.00  0.00    +0.000 A 
ATOM     27  C   UNL     1      -4.848  11.336  17.366  0.00  0.00    +0.000 A 
ATOM     28  C   UNL     1      -4.137  11.745  18.499  0.00  0.00    +0.000 A 
ATOM     29 CL   UNL     1      -5.050  12.297  19.860  0.00  0.00    +0.000 Cl
ENDBRANCH  22  23
ENDBRANCH  21  22
ENDBRANCH   2  17
TORSDOF 4
ENDMDL
MODEL 5
REMARK VINA RESULT:      -8.6      1.212      1.558
REMARK  Name = 
REMARK  6 active torsions:
REMARK  status: ('A' for Active; 'I' for Inactive)
REMARK    1  A    between atoms: C_1  and  C_2
REMARK    2  A    between atoms: C_9  and  N_10
REMARK    3  A    between atoms: C_11  and  C_13
REMARK    4  A    between atoms: C_13  and  C_14
REMARK    5  A    between atoms: N_17  and  C_18
REMARK    6  A    between atoms: C_18  and  C_19
REMARK                            x       y       z     vdW  Elec       q    Type
REMARK                         _______ _______ _______ _____ _____    ______ ____
ROOT
ATOM      1  N   UNL     1       3.647   6.755  18.194  0.00  0.00    +0.000 N 
ATOM      2  C   UNL     1       4.347   6.842  16.995  0.00  0.00    +0.000 C 
ATOM      3  O   UNL     1       4.164   7.720  16.143  0.00  0.00    +0.000 OA
ATOM      4  H   UNL     1       3.864   5.939  18.763  0.00  0.00    +0.000 HD
ENDROOT
BRANCH   1  13
ATOM      5  C   UNL     1      -1.039  11.787  18.315  0.00  0.00    +0.000 C 
ATOM      6  C   UNL     1      -1.032  11.363  19.759  0.00  0.00    +0.000 C 
ATOM      7  O   UNL     1      -1.769  11.944  20.558  0.00  0.00    +0.000 OA
ATOM      8  N   UNL     1      -0.224  10.322  20.153  0.00  0.00    +0.000 N 
ATOM      9  C   UNL     1      -0.335   9.835  21.540  0.00  0.00    +0.000 C 
ATOM     10  C   UNL     1       0.682   8.714  21.727  0.00  0.00    +0.000 C 
ATOM     11  C   UNL     1       1.215   8.564  20.342  0.00  0.00    +0.000 A 
ATOM     12  C   UNL     1       2.153   7.622  19.946  0.00  0.00    +0.000 A 
ATOM     13  C   UNL     1       2.649   7.648  18.644  0.00  0.00    +0.000 A 
ATOM     14  C   UNL     1       2.146   8.610  17.755  0.00  0.00    +0.000 A 
ATOM     15  C   UNL     1       1.177   9.552  18.164  0.00  0.00    +0.000 A 
ATOM     16  C   UNL     1       0.711   9.522  19.468  0.00  0.00    +0.000 A 
ENDBRANCH   1  13
BRANCH   2  17
ATOM     17  C   UNL     1       5.411   5.698  16.758  0.00  0.00    +0.000 C 
ATOM     18  C   UNL     1       5.413   5.234  15.290  0.00  0.00    +0.000 C 
ATOM     19  C   UNL     1       6.865   6.008  17.236  0.00  0.00    +0.000 C 
ATOM     20  C   UNL     1       6.876   4.545  17.728  0.00  0.00    +0.000 C 
ATOM     21  N   UNL     1       5.402   4.639  17.837  0.00  0.00    +0.000 NA
BRANCH  21  22
ATOM     22  C   UNL     1       4.699   3.407  17.470  0.00  0.00    +0.000 C 
BRANCH  22  23
ATOM     23  C   UNL     1       3.390   3.216  18.211  0.00  0.00    +0.000 A 
ATOM     24  C   UNL     1       2.215   3.723  17.619  0.00  0.00    +0.000 A 
ATOM     25  C   UNL     1       0.965   3.504  18.195  0.00  0.00    +0.000 A 
ATOM     26  C   UNL     1       0.865   2.770  19.372  0.00  0.00    +0.000 A 
ATOM     27  C   UNL     1       2.019   2.306  20.001  0.00  0.00    +0.000 A 
ATOM     28  C   UNL     1       3.279   2.550  19.442  0.00  0.00    +0.000 A 
ATOM     29 CL   UNL     1       4.664   2.024  20.333  0.00  0.00    +0.000 Cl
ENDBRANCH  22  23
ENDBRANCH  21  22
ENDBRANCH   2  17
TORSDOF 4
ENDMDL
MODEL 6
REMARK VINA RESULT:      -8.5      2.113      4.097
REMARK  Name = 
REMARK  6 active torsions:
REMARK  status: ('A' for Active; 'I' for Inactive)
REMARK    1  A    between atoms: C_1  and  C_2
REMARK    2  A    between atoms: C_9  and  N_10
REMARK    3  A    between atoms: C_11  and  C_13
REMARK    4  A    between atoms: C_13  and  C_14
REMARK    5  A    between atoms: N_17  and  C_18
REMARK    6  A    between atoms: C_18  and  C_19
REMARK                            x       y       z     vdW  Elec       q    Type
REMARK                         _______ _______ _______ _____ _____    ______ ____
ROOT
ATOM      1  N   UNL     1       2.395   5.714  19.893  0.00  0.00    +0.000 N 
ATOM      2  C   UNL     1       1.697   4.521  20.055  0.00  0.00    +0.000 C 
ATOM      3  O   UNL     1       0.508   4.450  20.385  0.00  0.00    +0.000 OA
ATOM      4  H   UNL     1       3.386   5.610  19.683  0.00  0.00    +0.000 HD
ENDROOT
BRANCH   1  13
ATOM      5  C   UNL     1       0.610  12.230  18.608  0.00  0.00    +0.000 C 
ATOM      6  C   UNL     1       0.209  12.099  20.052  0.00  0.00    +0.000 C 
ATOM      7  O   UNL     1      -0.284  13.071  20.629  0.00  0.00    +0.000 OA
ATOM      8  N   UNL     1       0.375  10.893  20.692  0.00  0.00    +0.000 N 
ATOM      9  C   UNL     1      -0.150  10.749  22.062  0.00  0.00    +0.000 C 
ATOM     10  C   UNL     1       0.193   9.346  22.552  0.00  0.00    +0.000 C 
ATOM     11  C   UNL     1       0.792   8.743  21.326  0.00  0.00    +0.000 A 
ATOM     12  C   UNL     1       1.234   7.433  21.215  0.00  0.00    +0.000 A 
ATOM     13  C   UNL     1       1.870   7.016  20.048  0.00  0.00    +0.000 A 
ATOM     14  C   UNL     1       2.006   7.934  18.994  0.00  0.00    +0.000 A 
ATOM     15  C   UNL     1       1.535   9.260  19.111  0.00  0.00    +0.000 A 
ATOM     16  C   UNL     1       0.923   9.661  20.288  0.00  0.00    +0.000 A 
ENDBRANCH   1  13
BRANCH   2  17
ATOM     17  C   UNL     1       2.547   3.211  19.814  0.00  0.00    +0.000 C 
ATOM     18  C   UNL     1       3.169   2.700  21.126  0.00  0.00    +0.000 C 
ATOM     19  C   UNL     1       1.816   2.051  19.066  0.00  0.00    +0.000 C 
ATOM     20  C   UNL     1       3.156   1.860  18.323  0.00  0.00    +0.000 C 
ATOM     21  N   UNL     1       3.433   3.289  18.592  0.00  0.00    +0.000 NA
BRANCH  21  22
ATOM     22  C   UNL     1       4.841   3.578  18.881  0.00  0.00    +0.000 C 
BRANCH  22  23
ATOM     23  C   UNL     1       5.557   4.288  17.749  0.00  0.00    +0.000 A 
ATOM     24  C   UNL     1       5.180   3.972  16.428  0.00  0.00    +0.000 A 
ATOM     25  C   UNL     1       5.728   4.651  15.341  0.00  0.00    +0.000 A 
ATOM     26  C   UNL     1       6.658   5.662  15.554  0.00  0.00    +0.000 A 
ATOM     27  C   UNL     1       7.083   5.953  16.850  0.00  0.00    +0.000 A 
ATOM     28  C   UNL     1       6.559   5.252  17.942  0.00  0.00    +0.000 A 
ATOM     29 CL   UNL     1       7.207   5.607  19.505  0.00  0.00    +0.000 Cl
ENDBRANCH  22  23
ENDBRANCH  21  22
ENDBRANCH   2  17
TORSDOF 4
ENDMDL
MODEL 7
REMARK VINA RESULT:      -8.4      1.815      4.107
REMARK  Name = 
REMARK  6 active torsions:
REMARK  status: ('A' for Active; 'I' for Inactive)
REMARK    1  A    between atoms: C_1  and  C_2
REMARK    2  A    between atoms: C_9  and  N_10
REMARK    3  A    between atoms: C_11  and  C_13
REMARK    4  A    between atoms: C_13  and  C_14
REMARK    5  A    between atoms: N_17  and  C_18
REMARK    6  A    between atoms: C_18  and  C_19
REMARK                            x       y       z     vdW  Elec       q    Type
REMARK                         _______ _______ _______ _____ _____    ______ ____
ROOT
ATOM      1  N   UNL     1       2.554   5.640  19.874  0.00  0.00    +0.000 N 
ATOM      2  C   UNL     1       1.820   4.462  19.959  0.00  0.00    +0.000 C 
ATOM      3  O   UNL     1       0.598   4.413  20.144  0.00  0.00    +0.000 OA
ATOM      4  H   UNL     1       3.561   5.517  19.785  0.00  0.00    +0.000 HD
ENDROOT
BRANCH   1  13
ATOM      5  C   UNL     1      -0.564  11.291  22.249  0.00  0.00    +0.000 C 
ATOM      6  C   UNL     1      -0.236  11.711  20.842  0.00  0.00    +0.000 C 
ATOM      7  O   UNL     1      -0.565  12.836  20.460  0.00  0.00    +0.000 OA
ATOM      8  N   UNL     1       0.445  10.844  20.020  0.00  0.00    +0.000 N 
ATOM      9  C   UNL     1       0.876  11.326  18.695  0.00  0.00    +0.000 C 
ATOM     10  C   UNL     1       1.570  10.173  17.978  0.00  0.00    +0.000 C 
ATOM     11  C   UNL     1       1.592   9.132  19.046  0.00  0.00    +0.000 A 
ATOM     12  C   UNL     1       2.172   7.878  18.924  0.00  0.00    +0.000 A 
ATOM     13  C   UNL     1       2.038   6.953  19.958  0.00  0.00    +0.000 A 
ATOM     14  C   UNL     1       1.349   7.340  21.118  0.00  0.00    +0.000 A 
ATOM     15  C   UNL     1       0.779   8.626  21.238  0.00  0.00    +0.000 A 
ATOM     16  C   UNL     1       0.907   9.524  20.191  0.00  0.00    +0.000 A 
ENDBRANCH   1  13
BRANCH   2  17
ATOM     17  C   UNL     1       2.668   3.135  19.829  0.00  0.00    +0.000 C 
ATOM     18  C   UNL     1       3.086   2.602  21.212  0.00  0.00    +0.000 C 
ATOM     19  C   UNL     1       2.028   1.996  18.974  0.00  0.00    +0.000 C 
ATOM     20  C   UNL     1       3.456   1.780  18.428  0.00  0.00    +0.000 C 
ATOM     21  N   UNL     1       3.722   3.202  18.747  0.00  0.00    +0.000 NA
BRANCH  21  22
ATOM     22  C   UNL     1       5.079   3.458  19.237  0.00  0.00    +0.000 C 
BRANCH  22  23
ATOM     23  C   UNL     1       5.776   4.595  18.517  0.00  0.00    +0.000 A 
ATOM     24  C   UNL     1       6.723   5.351  19.238  0.00  0.00    +0.000 A 
ATOM     25  C   UNL     1       7.470   6.351  18.616  0.00  0.00    +0.000 A 
ATOM     26  C   UNL     1       7.289   6.611  17.263  0.00  0.00    +0.000 A 
ATOM     27  C   UNL     1       6.319   5.910  16.545  0.00  0.00    +0.000 A 
ATOM     28  C   UNL     1       5.546   4.927  17.172  0.00  0.00    +0.000 A 
ATOM     29 CL   UNL     1       4.302   4.172  16.238  0.00  0.00    +0.000 Cl
ENDBRANCH  22  23
ENDBRANCH  21  22
ENDBRANCH   2  17
TORSDOF 4
ENDMDL
MODEL 8
REMARK VINA RESULT:      -8.4      1.263      1.310
REMARK  Name = 
REMARK  6 active torsions:
REMARK  status: ('A' for Active; 'I' for Inactive)
REMARK    1  A    between atoms: C_1  and  C_2
REMARK    2  A    between atoms: C_9  and  N_10
REMARK    3  A    between atoms: C_11  and  C_13
REMARK    4  A    between atoms: C_13  and  C_14
REMARK    5  A    between atoms: N_17  and  C_18
REMARK    6  A    between atoms: C_18  and  C_19
REMARK                            x       y       z     vdW  Elec       q    Type
REMARK                         _______ _______ _______ _____ _____    ______ ____
ROOT
ATOM      1  N   UNL     1       3.181   7.503  18.535  0.00  0.00    +0.000 N 
ATOM      2  C   UNL     1       3.086   6.226  17.992  0.00  0.00    +0.000 C 
ATOM      3  O   UNL     1       2.020   5.655  17.736  0.00  0.00    +0.000 OA
ATOM      4  H   UNL     1       4.127   7.812  18.750  0.00  0.00    +0.000 HD
ENDROOT
BRANCH   1  13
ATOM      5  C   UNL     1      -2.092  11.875  17.923  0.00  0.00    +0.000 C 
ATOM      6  C   UNL     1      -1.960  11.787  19.419  0.00  0.00    +0.000 C 
ATOM      7  O   UNL     1      -2.725  12.445  20.128  0.00  0.00    +0.000 OA
ATOM      8  N   UNL     1      -1.009  10.958  19.966  0.00  0.00    +0.000 N 
ATOM      9  C   UNL     1      -0.990  10.783  21.430  0.00  0.00    +0.000 C 
ATOM     10  C   UNL     1       0.169   9.855  21.777  0.00  0.00    +0.000 C 
ATOM     11  C   UNL     1       0.648   9.460  20.420  0.00  0.00    +0.000 A 
ATOM     12  C   UNL     1       1.677   8.565  20.167  0.00  0.00    +0.000 A 
ATOM     13  C   UNL     1       2.102   8.355  18.857  0.00  0.00    +0.000 A 
ATOM     14  C   UNL     1       1.438   9.032  17.821  0.00  0.00    +0.000 A 
ATOM     15  C   UNL     1       0.379   9.927  18.090  0.00  0.00    +0.000 A 
ATOM     16  C   UNL     1      -0.015  10.136  19.401  0.00  0.00    +0.000 A 
ENDBRANCH   1  13
BRANCH   2  17
ATOM     17  C   UNL     1       4.468   5.505  17.735  0.00  0.00    +0.000 C 
ATOM     18  C   UNL     1       4.348   4.451  16.619  0.00  0.00    +0.000 C 
ATOM     19  C   UNL     1       5.689   6.442  17.472  0.00  0.00    +0.000 C 
ATOM     20  C   UNL     1       6.474   5.453  18.361  0.00  0.00    +0.000 C 
ATOM     21  N   UNL     1       5.185   5.113  19.006  0.00  0.00    +0.000 NA
BRANCH  21  22
ATOM     22  C   UNL     1       5.055   3.697  19.364  0.00  0.00    +0.000 C 
BRANCH  22  23
ATOM     23  C   UNL     1       3.655   3.311  19.800  0.00  0.00    +0.000 A 
ATOM     24  C   UNL     1       3.068   4.039  20.855  0.00  0.00    +0.000 A 
ATOM     25  C   UNL     1       1.751   3.803  21.248  0.00  0.00    +0.000 A 
ATOM     26  C   UNL     1       0.995   2.839  20.590  0.00  0.00    +0.000 A 
ATOM     27  C   UNL     1       1.575   2.072  19.579  0.00  0.00    +0.000 A 
ATOM     28  C   UNL     1       2.906   2.285  19.203  0.00  0.00    +0.000 A 
ATOM     29 CL   UNL     1       3.577   1.230  18.009  0.00  0.00    +0.000 Cl
ENDBRANCH  22  23
ENDBRANCH  21  22
ENDBRANCH   2  17
TORSDOF 4
ENDMDL
MODEL 9
REMARK VINA RESULT:      -8.3      1.454      2.408
REMARK  Name = 
REMARK  6 active torsions:
REMARK  status: ('A' for Active; 'I' for Inactive)
REMARK    1  A    between atoms: C_1  and  C_2
REMARK    2  A    between atoms: C_9  and  N_10
REMARK    3  A    between atoms: C_11  and  C_13
REMARK    4  A    between atoms: C_13  and  C_14
REMARK    5  A    between atoms: N_17  and  C_18
REMARK    6  A    between atoms: C_18  and  C_19
REMARK                            x       y       z     vdW  Elec       q    Type
REMARK                         _______ _______ _______ _____ _____    ______ ____
ROOT
ATOM      1  N   UNL     1       3.495   6.662  17.841  0.00  0.00    +0.000 N 
ATOM      2  C   UNL     1       4.833   6.877  17.527  0.00  0.00    +0.000 C 
ATOM      3  O   UNL     1       5.466   7.894  17.833  0.00  0.00    +0.000 OA
ATOM      4  H   UNL     1       3.095   5.805  17.464  0.00  0.00    +0.000 HD
ENDROOT
BRANCH   1  13
ATOM      5  C   UNL     1      -0.177   9.447  22.945  0.00  0.00    +0.000 C 
ATOM      6  C   UNL     1      -0.526  10.363  21.804  0.00  0.00    +0.000 C 
ATOM      7  O   UNL     1      -1.307  11.297  22.001  0.00  0.00    +0.000 OA
ATOM      8  N   UNL     1       0.052  10.159  20.573  0.00  0.00    +0.000 N 
ATOM      9  C   UNL     1      -0.197  11.148  19.508  0.00  0.00    +0.000 C 
ATOM     10  C   UNL     1       0.518  10.673  18.248  0.00  0.00    +0.000 C 
ATOM     11  C   UNL     1       1.250   9.477  18.757  0.00  0.00    +0.000 A 
ATOM     12  C   UNL     1       2.112   8.690  18.007  0.00  0.00    +0.000 A 
ATOM     13  C   UNL     1       2.657   7.537  18.567  0.00  0.00    +0.000 A 
ATOM     14  C   UNL     1       2.346   7.228  19.901  0.00  0.00    +0.000 A 
ATOM     15  C   UNL     1       1.482   8.047  20.661  0.00  0.00    +0.000 A 
ATOM     16  C   UNL     1       0.935   9.179  20.079  0.00  0.00    +0.000 A 
ENDBRANCH   1  13
BRANCH   2  17
ATOM     17  C   UNL     1       5.520   5.718  16.702  0.00  0.00    +0.000 C 
ATOM     18  C   UNL     1       5.047   5.720  15.237  0.00  0.00    +0.000 C 
ATOM     19  C   UNL     1       7.079   5.661  16.772  0.00  0.00    +0.000 C 
ATOM     20  C   UNL     1       6.890   4.131  16.861  0.00  0.00    +0.000 C 
ATOM     21  N   UNL     1       5.551   4.397  17.435  0.00  0.00    +0.000 NA
BRANCH  21  22
ATOM     22  C   UNL     1       4.522   3.444  17.010  0.00  0.00    +0.000 C 
BRANCH  22  23
ATOM     23  C   UNL     1       3.342   3.365  17.960  0.00  0.00    +0.000 A 
ATOM     24  C   UNL     1       2.104   3.875  17.519  0.00  0.00    +0.000 A 
ATOM     25  C   UNL     1       0.956   3.754  18.300  0.00  0.00    +0.000 A 
ATOM     26  C   UNL     1       1.022   3.117  19.533  0.00  0.00    +0.000 A 
ATOM     27  C   UNL     1       2.248   2.653  20.011  0.00  0.00    +0.000 A 
ATOM     28  C   UNL     1       3.409   2.800  19.243  0.00  0.00    +0.000 A 
ATOM     29 CL   UNL     1       4.902   2.285  19.947  0.00  0.00    +0.000 Cl
ENDBRANCH  22  23
ENDBRANCH  21  22
ENDBRANCH   2  17
TORSDOF 4
ENDMDL
