MODEL 1
REMARK VINA RESULT:      -6.7      0.000      0.000
REMARK  Name = 
REMARK  5 active torsions:
REMARK  status: ('A' for Active; 'I' for Inactive)
REMARK    1  A    between atoms: C_2  and  C_3
REMARK    2  A    between atoms: C_4  and  N_5
REMARK    3  A    between atoms: C_6  and  S_7
REMARK    4  A    between atoms: S_7  and  C_8
REMARK    5  A    between atoms: C_11  and  C_12
REMARK                            x       y       z     vdW  Elec       q    Type
REMARK                         _______ _______ _______ _____ _____    ______ ____
ROOT
ATOM      1  C   UNL     1       4.306   5.742  17.897  0.00  0.00    +0.000 C 
ATOM      2  C   UNL     1       5.493   6.145  17.380  0.00  0.00    +0.000 C 
ATOM      3  C   UNL     1       6.741   5.286  17.589  0.00  0.00    +0.000 C 
ATOM      4  N   UNL     1       6.549   4.172  18.479  0.00  0.00    +0.000 N 
ATOM      5  N   UNL     1       5.382   3.734  18.961  0.00  0.00    +0.000 NA
ATOM      6  C   UNL     1       4.319   4.440  18.701  0.00  0.00    +0.000 C 
ATOM      7  H   UNL     1       7.387   3.661  18.737  0.00  0.00    +0.000 HD
ENDROOT
BRANCH   6   8
ATOM      8  C   UNL     1       3.029   3.904  19.265  0.00  0.00    +0.000 A 
ATOM      9  C   UNL     1       2.191   3.155  18.428  0.00  0.00    +0.000 A 
ATOM     10  C   UNL     1       0.963   2.671  18.895  0.00  0.00    +0.000 A 
ATOM     11  C   UNL     1       0.570   2.923  20.209  0.00  0.00    +0.000 A 
ATOM     12  C   UNL     1       1.384   3.685  21.041  0.00  0.00    +0.000 A 
ATOM     13  C   UNL     1       2.591   4.200  20.563  0.00  0.00    +0.000 A 
ENDBRANCH   6   8
BRANCH   2  14
ATOM     14  N   UNL     1       5.691   7.334  16.659  0.00  0.00    +0.000 N 
ATOM     15  H   UNL     1       6.094   7.192  15.737  0.00  0.00    +0.000 HD
ATOM     16  H   UNL     1       6.214   8.022  17.204  0.00  0.00    +0.000 HD
ENDBRANCH   2  14
BRANCH   1  18
ATOM     17  C   UNL     1       2.640   7.403  18.649  0.00  0.00    +0.000 C 
ATOM     18  C   UNL     1       3.094   6.531  17.734  0.00  0.00    +0.000 C 
ENDBRANCH   1  18
BRANCH   3  19
ATOM     19  S   UNL     1       7.406   4.738  15.970  0.00  0.00    +0.000 S 
ATOM     20  C   UNL     1       5.972   3.836  15.324  0.00  0.00    +0.000 C 
ENDBRANCH   3  19
TORSDOF 4
ENDMDL
MODEL 2
REMARK VINA RESULT:      -6.6      0.072      1.170
REMARK  Name = 
REMARK  5 active torsions:
REMARK  status: ('A' for Active; 'I' for Inactive)
REMARK    1  A    between atoms: C_2  and  C_3
REMARK    2  A    between atoms: C_4  and  N_5
REMARK    3  A    between atoms: C_6  and  S_7
REMARK    4  A    between atoms: S_7  and  C_8
REMARK    5  A    between atoms: C_11  and  C_12
REMARK                            x       y       z     vdW  Elec       q    Type
REMARK                         _______ _______ _______ _____ _____    ______ ____
ROOT
ATOM      1  C   UNL     1       4.309   5.776  17.869  0.00  0.00    +0.000 C 
ATOM      2  C   UNL     1       5.513   6.158  17.375  0.00  0.00    +0.000 C 
ATOM      3  C   UNL     1       6.737   5.268  17.595  0.00  0.00    +0.000 C 
ATOM      4  N   UNL     1       6.505   4.149  18.470  0.00  0.00    +0.000 N 
ATOM      5  N   UNL     1       5.321   3.733  18.928  0.00  0.00    +0.000 NA
ATOM      6  C   UNL     1       4.279   4.467  18.659  0.00  0.00    +0.000 C 
ATOM      7  H   UNL     1       7.327   3.616  18.736  0.00  0.00    +0.000 HD
ENDROOT
BRANCH   6   8
ATOM      8  C   UNL     1       2.968   3.955  19.196  0.00  0.00    +0.000 A 
ATOM      9  C   UNL     1       2.653   4.197  20.540  0.00  0.00    +0.000 A 
ATOM     10  C   UNL     1       1.466   3.705  21.096  0.00  0.00    +0.000 A 
ATOM     11  C   UNL     1       0.577   2.977  20.305  0.00  0.00    +0.000 A 
ATOM     12  C   UNL     1       0.891   2.711  18.977  0.00  0.00    +0.000 A 
ATOM     13  C   UNL     1       2.094   3.169  18.433  0.00  0.00    +0.000 A 
ENDBRANCH   6   8
BRANCH   2  14
ATOM     14  N   UNL     1       5.750   7.349  16.670  0.00  0.00    +0.000 N 
ATOM     15  H   UNL     1       5.941   8.148  17.269  0.00  0.00    +0.000 HD
ATOM     16  H   UNL     1       5.006   7.543  15.998  0.00  0.00    +0.000 HD
ENDBRANCH   2  14
BRANCH   1  18
ATOM     17  C   UNL     1       2.652   7.444  18.625  0.00  0.00    +0.000 C 
ATOM     18  C   UNL     1       3.118   6.595  17.695  0.00  0.00    +0.000 C 
ENDBRANCH   1  18
BRANCH   3  19
ATOM     19  S   UNL     1       7.416   4.721  15.981  0.00  0.00    +0.000 S 
ATOM     20  C   UNL     1       5.981   3.833  15.315  0.00  0.00    +0.000 C 
ENDBRANCH   3  19
TORSDOF 4
ENDMDL
MODEL 3
REMARK VINA RESULT:      -6.1      1.320      1.710
REMARK  Name = 
REMARK  5 active torsions:
REMARK  status: ('A' for Active; 'I' for Inactive)
REMARK    1  A    between atoms: C_2  and  C_3
REMARK    2  A    between atoms: C_4  and  N_5
REMARK    3  A    between atoms: C_6  and  S_7
REMARK    4  A    between atoms: S_7  and  C_8
REMARK    5  A    between atoms: C_11  and  C_12
REMARK                            x       y       z     vdW  Elec       q    Type
REMARK                         _______ _______ _______ _____ _____    ______ ____
ROOT
ATOM      1  C   UNL     1       4.270   5.470  17.676  0.00  0.00    +0.000 C 
ATOM      2  C   UNL     1       5.204   5.697  16.718  0.00  0.00    +0.000 C 
ATOM      3  C   UNL     1       5.868   4.513  16.014  0.00  0.00    +0.000 C 
ATOM      4  N   UNL     1       5.532   3.229  16.571  0.00  0.00    +0.000 N 
ATOM      5  N   UNL     1       4.585   2.984  17.481  0.00  0.00    +0.000 NA
ATOM      6  C   UNL     1       3.975   4.006  18.009  0.00  0.00    +0.000 C 
ATOM      7  H   UNL     1       6.055   2.438  16.210  0.00  0.00    +0.000 HD
ENDROOT
BRANCH   6   8
ATOM      8  C   UNL     1       2.915   3.677  19.028  0.00  0.00    +0.000 A 
ATOM      9  C   UNL     1       3.312   3.408  20.345  0.00  0.00    +0.000 A 
ATOM     10  C   UNL     1       2.367   3.056  21.316  0.00  0.00    +0.000 A 
ATOM     11  C   UNL     1       1.016   2.984  20.980  0.00  0.00    +0.000 A 
ATOM     12  C   UNL     1       0.615   3.226  19.670  0.00  0.00    +0.000 A 
ATOM     13  C   UNL     1       1.562   3.539  18.692  0.00  0.00    +0.000 A 
ENDBRANCH   6   8
BRANCH   2  14
ATOM     14  N   UNL     1       5.645   6.967  16.313  0.00  0.00    +0.000 N 
ATOM     15  H   UNL     1       6.457   6.943  15.703  0.00  0.00    +0.000 HD
ATOM     16  H   UNL     1       5.783   7.590  17.111  0.00  0.00    +0.000 HD
ENDBRANCH   2  14
BRANCH   1  18
ATOM     17  C   UNL     1       2.487   7.154  17.965  0.00  0.00    +0.000 C 
ATOM     18  C   UNL     1       3.619   6.564  18.381  0.00  0.00    +0.000 C 
ENDBRANCH   1  18
BRANCH   3  19
ATOM     19  S   UNL     1       5.515   4.571  14.215  0.00  0.00    +0.000 S 
ATOM     20  C   UNL     1       7.192   4.806  13.567  0.00  0.00    +0.000 C 
ENDBRANCH   3  19
TORSDOF 4
ENDMDL
MODEL 4
REMARK VINA RESULT:      -6.1      1.147      1.179
REMARK  Name = 
REMARK  5 active torsions:
REMARK  status: ('A' for Active; 'I' for Inactive)
REMARK    1  A    between atoms: C_2  and  C_3
REMARK    2  A    between atoms: C_4  and  N_5
REMARK    3  A    between atoms: C_6  and  S_7
REMARK    4  A    between atoms: S_7  and  C_8
REMARK    5  A    between atoms: C_11  and  C_12
REMARK                            x       y       z     vdW  Elec       q    Type
REMARK                         _______ _______ _______ _____ _____    ______ ____
ROOT
ATOM      1  C   UNL     1       3.965   5.602  17.279  0.00  0.00    +0.000 C 
ATOM      2  C   UNL     1       4.937   5.857  16.369  0.00  0.00    +0.000 C 
ATOM      3  C   UNL     1       6.051   4.833  16.144  0.00  0.00    +0.000 C 
ATOM      4  N   UNL     1       6.036   3.731  17.069  0.00  0.00    +0.000 N 
ATOM      5  N   UNL     1       5.065   3.440  17.940  0.00  0.00    +0.000 NA
ATOM      6  C   UNL     1       4.084   4.289  18.056  0.00  0.00    +0.000 C 
ATOM      7  H   UNL     1       6.834   3.105  17.028  0.00  0.00    +0.000 HD
ENDROOT
BRANCH   6   8
ATOM      8  C   UNL     1       3.015   3.916  19.049  0.00  0.00    +0.000 A 
ATOM      9  C   UNL     1       1.887   3.221  18.591  0.00  0.00    +0.000 A 
ATOM     10  C   UNL     1       0.848   2.889  19.469  0.00  0.00    +0.000 A 
ATOM     11  C   UNL     1       0.936   3.239  20.816  0.00  0.00    +0.000 A 
ATOM     12  C   UNL     1       2.041   3.948  21.276  0.00  0.00    +0.000 A 
ATOM     13  C   UNL     1       3.060   4.313  20.392  0.00  0.00    +0.000 A 
ENDBRANCH   6   8
BRANCH   2  14
ATOM     14  N   UNL     1       5.028   7.027  15.598  0.00  0.00    +0.000 N 
ATOM     15  H   UNL     1       5.435   6.882  14.678  0.00  0.00    +0.000 HD
ATOM     16  H   UNL     1       5.493   7.780  16.109  0.00  0.00    +0.000 HD
ENDBRANCH   2  14
BRANCH   1  18
ATOM     17  C   UNL     1       2.937   7.493  18.491  0.00  0.00    +0.000 C 
ATOM     18  C   UNL     1       2.891   6.551  17.535  0.00  0.00    +0.000 C 
ENDBRANCH   1  18
BRANCH   3  19
ATOM     19  S   UNL     1       6.024   4.244  14.407  0.00  0.00    +0.000 S 
ATOM     20  C   UNL     1       7.497   5.084  13.762  0.00  0.00    +0.000 C 
ENDBRANCH   3  19
TORSDOF 4
ENDMDL
MODEL 5
REMARK VINA RESULT:      -6.1      1.665      3.927
REMARK  Name = 
REMARK  5 active torsions:
REMARK  status: ('A' for Active; 'I' for Inactive)
REMARK    1  A    between atoms: C_2  and  C_3
REMARK    2  A    between atoms: C_4  and  N_5
REMARK    3  A    between atoms: C_6  and  S_7
REMARK    4  A    between atoms: S_7  and  C_8
REMARK    5  A    between atoms: C_11  and  C_12
REMARK                            x       y       z     vdW  Elec       q    Type
REMARK                         _______ _______ _______ _____ _____    ______ ____
ROOT
ATOM      1  C   UNL     1       3.609   5.122  17.949  0.00  0.00    +0.000 C 
ATOM      2  C   UNL     1       4.600   4.386  17.387  0.00  0.00    +0.000 C 
ATOM      3  C   UNL     1       5.770   5.091  16.698  0.00  0.00    +0.000 C 
ATOM      4  N   UNL     1       5.613   6.516  16.580  0.00  0.00    +0.000 N 
ATOM      5  N   UNL     1       4.671   7.262  17.164  0.00  0.00    +0.000 NA
ATOM      6  C   UNL     1       3.728   6.641  17.814  0.00  0.00    +0.000 C 
ATOM      7  H   UNL     1       6.310   6.994  16.017  0.00  0.00    +0.000 HD
ENDROOT
BRANCH   6   8
ATOM      8  C   UNL     1       2.690   7.525  18.456  0.00  0.00    +0.000 A 
ATOM      9  C   UNL     1       2.141   8.571  17.702  0.00  0.00    +0.000 A 
ATOM     10  C   UNL     1       1.205   9.445  18.268  0.00  0.00    +0.000 A 
ATOM     11  C   UNL     1       0.801   9.269  19.591  0.00  0.00    +0.000 A 
ATOM     12  C   UNL     1       1.357   8.249  20.355  0.00  0.00    +0.000 A 
ATOM     13  C   UNL     1       2.320   7.401  19.801  0.00  0.00    +0.000 A 
ENDBRANCH   6   8
BRANCH   2  14
ATOM     14  N   UNL     1       4.641   2.982  17.362  0.00  0.00    +0.000 N 
ATOM     15  H   UNL     1       5.456   2.604  16.887  0.00  0.00    +0.000 HD
ATOM     16  H   UNL     1       3.770   2.586  17.003  0.00  0.00    +0.000 HD
ENDBRANCH   2  14
BRANCH   1  18
ATOM     17  C   UNL     1       1.411   3.997  17.949  0.00  0.00    +0.000 C 
ATOM     18  C   UNL     1       2.471   4.496  18.605  0.00  0.00    +0.000 C 
ENDBRANCH   1  18
BRANCH   3  19
ATOM     19  S   UNL     1       7.344   4.660  17.535  0.00  0.00    +0.000 S 
ATOM     20  C   UNL     1       7.145   5.581  19.085  0.00  0.00    +0.000 C 
ENDBRANCH   3  19
TORSDOF 4
ENDMDL
MODEL 6
REMARK VINA RESULT:      -6.0      2.368      4.360
REMARK  Name = 
REMARK  5 active torsions:
REMARK  status: ('A' for Active; 'I' for Inactive)
REMARK    1  A    between atoms: C_2  and  C_3
REMARK    2  A    between atoms: C_4  and  N_5
REMARK    3  A    between atoms: C_6  and  S_7
REMARK    4  A    between atoms: S_7  and  C_8
REMARK    5  A    between atoms: C_11  and  C_12
REMARK                            x       y       z     vdW  Elec       q    Type
REMARK                         _______ _______ _______ _____ _____    ______ ____
ROOT
ATOM      1  C   UNL     1       4.293   5.554  18.653  0.00  0.00    +0.000 C 
ATOM      2  C   UNL     1       4.795   4.306  18.827  0.00  0.00    +0.000 C 
ATOM      3  C   UNL     1       4.039   3.299  19.695  0.00  0.00    +0.000 C 
ATOM      4  N   UNL     1       2.906   3.852  20.389  0.00  0.00    +0.000 N 
ATOM      5  N   UNL     1       2.371   5.061  20.197  0.00  0.00    +0.000 NA
ATOM      6  C   UNL     1       2.990   5.873  19.390  0.00  0.00    +0.000 C 
ATOM      7  H   UNL     1       2.462   3.243  21.069  0.00  0.00    +0.000 HD
ENDROOT
BRANCH   6   8
ATOM      8  C   UNL     1       2.347   7.223  19.206  0.00  0.00    +0.000 A 
ATOM      9  C   UNL     1       1.790   7.859  20.324  0.00  0.00    +0.000 A 
ATOM     10  C   UNL     1       1.144   9.094  20.195  0.00  0.00    +0.000 A 
ATOM     11  C   UNL     1       1.063   9.711  18.947  0.00  0.00    +0.000 A 
ATOM     12  C   UNL     1       1.592   9.078  17.827  0.00  0.00    +0.000 A 
ATOM     13  C   UNL     1       2.202   7.826  17.950  0.00  0.00    +0.000 A 
ENDBRANCH   6   8
BRANCH   2  14
ATOM     14  N   UNL     1       6.002   3.844  18.277  0.00  0.00    +0.000 N 
ATOM     15  H   UNL     1       6.484   4.535  17.708  0.00  0.00    +0.000 HD
ATOM     16  H   UNL     1       5.875   2.960  17.780  0.00  0.00    +0.000 HD
ENDBRANCH   2  14
BRANCH   1  18
ATOM     17  C   UNL     1       5.038   6.517  16.505  0.00  0.00    +0.000 C 
ATOM     18  C   UNL     1       4.982   6.550  17.846  0.00  0.00    +0.000 C 
ENDBRANCH   1  18
BRANCH   3  19
ATOM     19  S   UNL     1       3.559   1.840  18.692  0.00  0.00    +0.000 S 
ATOM     20  C   UNL     1       2.397   2.614  17.535  0.00  0.00    +0.000 C 
ENDBRANCH   3  19
TORSDOF 4
ENDMDL
MODEL 7
REMARK VINA RESULT:      -5.9      1.739      4.013
REMARK  Name = 
REMARK  5 active torsions:
REMARK  status: ('A' for Active; 'I' for Inactive)
REMARK    1  A    between atoms: C_2  and  C_3
REMARK    2  A    between atoms: C_4  and  N_5
REMARK    3  A    between atoms: C_6  and  S_7
REMARK    4  A    between atoms: S_7  and  C_8
REMARK    5  A    between atoms: C_11  and  C_12
REMARK                            x       y       z     vdW  Elec       q    Type
REMARK                         _______ _______ _______ _____ _____    ______ ____
ROOT
ATOM      1  C   UNL     1       3.626   5.186  17.879  0.00  0.00    +0.000 C 
ATOM      2  C   UNL     1       4.606   4.422  17.336  0.00  0.00    +0.000 C 
ATOM      3  C   UNL     1       5.817   5.094  16.685  0.00  0.00    +0.000 C 
ATOM      4  N   UNL     1       5.711   6.524  16.577  0.00  0.00    +0.000 N 
ATOM      5  N   UNL     1       4.779   7.296  17.144  0.00  0.00    +0.000 NA
ATOM      6  C   UNL     1       3.799   6.702  17.762  0.00  0.00    +0.000 C 
ATOM      7  H   UNL     1       6.438   6.983  16.037  0.00  0.00    +0.000 HD
ENDROOT
BRANCH   6   8
ATOM      8  C   UNL     1       2.775   7.615  18.385  0.00  0.00    +0.000 A 
ATOM      9  C   UNL     1       2.416   7.406  19.724  0.00  0.00    +0.000 A 
ATOM     10  C   UNL     1       1.439   8.201  20.333  0.00  0.00    +0.000 A 
ATOM     11  C   UNL     1       0.823   9.223  19.611  0.00  0.00    +0.000 A 
ATOM     12  C   UNL     1       1.156   9.424  18.276  0.00  0.00    +0.000 A 
ATOM     13  C   UNL     1       2.103   8.604  17.656  0.00  0.00    +0.000 A 
ENDBRANCH   6   8
BRANCH   2  14
ATOM     14  N   UNL     1       4.601   3.018  17.298  0.00  0.00    +0.000 N 
ATOM     15  H   UNL     1       4.845   2.584  18.184  0.00  0.00    +0.000 HD
ATOM     16  H   UNL     1       5.166   2.660  16.527  0.00  0.00    +0.000 HD
ENDBRANCH   2  14
BRANCH   1  18
ATOM     17  C   UNL     1       1.383   4.156  17.813  0.00  0.00    +0.000 C 
ATOM     18  C   UNL     1       2.450   4.593  18.499  0.00  0.00    +0.000 C 
ENDBRANCH   1  18
BRANCH   3  19
ATOM     19  S   UNL     1       7.353   4.603  17.558  0.00  0.00    +0.000 S 
ATOM     20  C   UNL     1       7.226   5.643  19.039  0.00  0.00    +0.000 C 
ENDBRANCH   3  19
TORSDOF 4
ENDMDL
MODEL 8
REMARK VINA RESULT:      -5.9      2.862      5.246
REMARK  Name = 
REMARK  5 active torsions:
REMARK  status: ('A' for Active; 'I' for Inactive)
REMARK    1  A    between atoms: C_2  and  C_3
REMARK    2  A    between atoms: C_4  and  N_5
REMARK    3  A    between atoms: C_6  and  S_7
REMARK    4  A    between atoms: S_7  and  C_8
REMARK    5  A    between atoms: C_11  and  C_12
REMARK                            x       y       z     vdW  Elec       q    Type
REMARK                         _______ _______ _______ _____ _____    ______ ____
ROOT
ATOM      1  C   UNL     1       3.062   5.147  18.688  0.00  0.00    +0.000 C 
ATOM      2  C   UNL     1       1.990   4.867  19.470  0.00  0.00    +0.000 C 
ATOM      3  C   UNL     1       1.373   3.468  19.437  0.00  0.00    +0.000 C 
ATOM      4  N   UNL     1       1.921   2.605  18.424  0.00  0.00    +0.000 N 
ATOM      5  N   UNL     1       3.003   2.845  17.677  0.00  0.00    +0.000 NA
ATOM      6  C   UNL     1       3.560   4.018  17.783  0.00  0.00    +0.000 C 
ATOM      7  H   UNL     1       1.447   1.717  18.294  0.00  0.00    +0.000 HD
ENDROOT
BRANCH   6   8
ATOM      8  C   UNL     1       4.776   4.239  16.922  0.00  0.00    +0.000 A 
ATOM      9  C   UNL     1       6.029   4.334  17.542  0.00  0.00    +0.000 A 
ATOM     10  C   UNL     1       7.182   4.581  16.788  0.00  0.00    +0.000 A 
ATOM     11  C   UNL     1       7.091   4.722  15.403  0.00  0.00    +0.000 A 
ATOM     12  C   UNL     1       5.850   4.653  14.781  0.00  0.00    +0.000 A 
ATOM     13  C   UNL     1       4.694   4.445  15.538  0.00  0.00    +0.000 A 
ENDBRANCH   6   8
BRANCH   2  14
ATOM     14  N   UNL     1       1.361   5.785  20.326  0.00  0.00    +0.000 N 
ATOM     15  H   UNL     1       0.724   5.356  20.991  0.00  0.00    +0.000 HD
ATOM     16  H   UNL     1       0.917   6.543  19.804  0.00  0.00    +0.000 HD
ENDBRANCH   2  14
BRANCH   1  18
ATOM     17  C   UNL     1       3.361   7.431  17.798  0.00  0.00    +0.000 C 
ATOM     18  C   UNL     1       3.677   6.466  18.677  0.00  0.00    +0.000 C 
ENDBRANCH   1  18
BRANCH   3  19
ATOM     19  S   UNL     1       1.476   2.695  21.098  0.00  0.00    +0.000 S 
ATOM     20  C   UNL     1       3.271   2.482  21.242  0.00  0.00    +0.000 C 
ENDBRANCH   3  19
TORSDOF 4
ENDMDL
MODEL 9
REMARK VINA RESULT:      -5.9      2.839      5.140
REMARK  Name = 
REMARK  5 active torsions:
REMARK  status: ('A' for Active; 'I' for Inactive)
REMARK    1  A    between atoms: C_2  and  C_3
REMARK    2  A    between atoms: C_4  and  N_5
REMARK    3  A    between atoms: C_6  and  S_7
REMARK    4  A    between atoms: S_7  and  C_8
REMARK    5  A    between atoms: C_11  and  C_12
REMARK                            x       y       z     vdW  Elec       q    Type
REMARK                         _______ _______ _______ _____ _____    ______ ____
ROOT
ATOM      1  C   UNL     1       3.063   5.190  18.660  0.00  0.00    +0.000 C 
ATOM      2  C   UNL     1       1.983   4.887  19.422  0.00  0.00    +0.000 C 
ATOM      3  C   UNL     1       1.397   3.474  19.377  0.00  0.00    +0.000 C 
ATOM      4  N   UNL     1       1.983   2.623  18.376  0.00  0.00    +0.000 N 
ATOM      5  N   UNL     1       3.073   2.888  17.650  0.00  0.00    +0.000 NA
ATOM      6  C   UNL     1       3.602   4.072  17.765  0.00  0.00    +0.000 C 
ATOM      7  H   UNL     1       1.531   1.725  18.237  0.00  0.00    +0.000 HD
ENDROOT
BRANCH   6   8
ATOM      8  C   UNL     1       4.830   4.320  16.927  0.00  0.00    +0.000 A 
ATOM      9  C   UNL     1       4.687   4.398  15.535  0.00  0.00    +0.000 A 
ATOM     10  C   UNL     1       5.804   4.585  14.712  0.00  0.00    +0.000 A 
ATOM     11  C   UNL     1       7.072   4.710  15.279  0.00  0.00    +0.000 A 
ATOM     12  C   UNL     1       7.228   4.611  16.657  0.00  0.00    +0.000 A 
ATOM     13  C   UNL     1       6.117   4.385  17.475  0.00  0.00    +0.000 A 
ENDBRANCH   6   8
BRANCH   2  14
ATOM     14  N   UNL     1       1.316   5.791  20.265  0.00  0.00    +0.000 N 
ATOM     15  H   UNL     1       1.602   5.730  21.238  0.00  0.00    +0.000 HD
ATOM     16  H   UNL     1       0.302   5.729  20.158  0.00  0.00    +0.000 HD
ENDBRANCH   2  14
BRANCH   1  18
ATOM     17  C   UNL     1       3.302   7.492  17.797  0.00  0.00    +0.000 C 
ATOM     18  C   UNL     1       3.648   6.523  18.660  0.00  0.00    +0.000 C 
ENDBRANCH   1  18
BRANCH   3  19
ATOM     19  S   UNL     1       1.484   2.705  21.040  0.00  0.00    +0.000 S 
ATOM     20  C   UNL     1       3.278   2.492  21.201  0.00  0.00    +0.000 C 
ENDBRANCH   3  19
TORSDOF 4
ENDMDL
