MODEL 1
REMARK VINA RESULT:      -6.1      0.000      0.000
REMARK  Name = 
REMARK  3 active torsions:
REMARK  status: ('A' for Active; 'I' for Inactive)
REMARK    1  A    between atoms: C_1  and  C_2
REMARK    2  A    between atoms: C_6  and  C_7
REMARK    3  A    between atoms: C_11  and  C_12
REMARK                            x       y       z     vdW  Elec       q    Type
REMARK                         _______ _______ _______ _____ _____    ______ ____
ROOT
ATOM      1  C   UNL     1       6.360   4.125  13.810  0.00  0.00    +0.000 C 
ATOM      2  C   UNL     1       6.158   4.259  15.286  0.00  0.00    +0.000 A 
ATOM      3  C   UNL     1       7.201   4.618  16.129  0.00  0.00    +0.000 A 
ATOM      4  N   UNL     1       7.084   4.705  17.471  0.00  0.00    +0.000 NA
ATOM      5  C   UNL     1       5.867   4.416  17.997  0.00  0.00    +0.000 A 
ATOM      6  C   UNL     1       4.738   4.074  17.258  0.00  0.00    +0.000 A 
ATOM      7  C   UNL     1       4.910   4.002  15.867  0.00  0.00    +0.000 A 
ENDROOT
BRANCH   6   8
ATOM      8  C   UNL     1       3.451   3.769  17.899  0.00  0.00    +0.000 A 
ATOM      9  C   UNL     1       3.085   2.451  18.134  0.00  0.00    +0.000 A 
ATOM     10  S   UNL     1       1.565   2.293  18.889  0.00  0.00    +0.000 S 
ATOM     11  C   UNL     1       1.364   3.982  18.939  0.00  0.00    +0.000 A 
ATOM     12  C   UNL     1       2.425   4.676  18.380  0.00  0.00    +0.000 A 
ATOM     13  C   UNL     1       2.441   6.170  18.299  0.00  0.00    +0.000 C 
ENDBRANCH   6   8
TORSDOF 1
ENDMDL
MODEL 2
REMARK VINA RESULT:      -6.1      1.286      1.566
REMARK  Name = 
REMARK  3 active torsions:
REMARK  status: ('A' for Active; 'I' for Inactive)
REMARK    1  A    between atoms: C_1  and  C_2
REMARK    2  A    between atoms: C_6  and  C_7
REMARK    3  A    between atoms: C_11  and  C_12
REMARK                            x       y       z     vdW  Elec       q    Type
REMARK                         _______ _______ _______ _____ _____    ______ ____
ROOT
ATOM      1  C   UNL     1       6.059   3.565  12.753  0.00  0.00    +0.000 C 
ATOM      2  C   UNL     1       6.177   4.260  14.073  0.00  0.00    +0.000 A 
ATOM      3  C   UNL     1       7.324   4.960  14.422  0.00  0.00    +0.000 A 
ATOM      4  N   UNL     1       7.501   5.562  15.617  0.00  0.00    +0.000 NA
ATOM      5  C   UNL     1       6.483   5.457  16.509  0.00  0.00    +0.000 A 
ATOM      6  C   UNL     1       5.275   4.810  16.268  0.00  0.00    +0.000 A 
ATOM      7  C   UNL     1       5.138   4.204  15.010  0.00  0.00    +0.000 A 
ENDROOT
BRANCH   6   8
ATOM      8  C   UNL     1       4.218   4.732  17.288  0.00  0.00    +0.000 A 
ATOM      9  C   UNL     1       3.832   3.501  17.799  0.00  0.00    +0.000 A 
ATOM     10  S   UNL     1       2.600   3.608  18.971  0.00  0.00    +0.000 S 
ATOM     11  C   UNL     1       2.562   5.304  18.841  0.00  0.00    +0.000 A 
ATOM     12  C   UNL     1       3.460   5.802  17.911  0.00  0.00    +0.000 A 
ATOM     13  C   UNL     1       3.574   7.265  17.622  0.00  0.00    +0.000 C 
ENDBRANCH   6   8
TORSDOF 1
ENDMDL
MODEL 3
REMARK VINA RESULT:      -6.1      1.297      1.975
REMARK  Name = 
REMARK  3 active torsions:
REMARK  status: ('A' for Active; 'I' for Inactive)
REMARK    1  A    between atoms: C_1  and  C_2
REMARK    2  A    between atoms: C_6  and  C_7
REMARK    3  A    between atoms: C_11  and  C_12
REMARK                            x       y       z     vdW  Elec       q    Type
REMARK                         _______ _______ _______ _____ _____    ______ ____
ROOT
ATOM      1  C   UNL     1       5.754   3.999  13.852  0.00  0.00    +0.000 C 
ATOM      2  C   UNL     1       5.976   4.244  15.311  0.00  0.00    +0.000 A 
ATOM      3  C   UNL     1       7.232   4.567  15.807  0.00  0.00    +0.000 A 
ATOM      4  N   UNL     1       7.496   4.749  17.118  0.00  0.00    +0.000 NA
ATOM      5  C   UNL     1       6.456   4.598  17.976  0.00  0.00    +0.000 A 
ATOM      6  C   UNL     1       5.148   4.306  17.602  0.00  0.00    +0.000 A 
ATOM      7  C   UNL     1       4.923   4.130  16.228  0.00  0.00    +0.000 A 
ENDROOT
BRANCH   6   8
ATOM      8  C   UNL     1       4.071   4.152  18.591  0.00  0.00    +0.000 A 
ATOM      9  C   UNL     1       3.629   5.250  19.316  0.00  0.00    +0.000 A 
ATOM     10  S   UNL     1       2.374   4.882  20.409  0.00  0.00    +0.000 S 
ATOM     11  C   UNL     1       2.376   3.249  19.930  0.00  0.00    +0.000 A 
ATOM     12  C   UNL     1       3.322   2.964  18.959  0.00  0.00    +0.000 A 
ATOM     13  C   UNL     1       3.509   1.584  18.414  0.00  0.00    +0.000 C 
ENDBRANCH   6   8
TORSDOF 1
ENDMDL
MODEL 4
REMARK VINA RESULT:      -6.0      1.090      1.090
REMARK  Name = 
REMARK  3 active torsions:
REMARK  status: ('A' for Active; 'I' for Inactive)
REMARK    1  A    between atoms: C_1  and  C_2
REMARK    2  A    between atoms: C_6  and  C_7
REMARK    3  A    between atoms: C_11  and  C_12
REMARK                            x       y       z     vdW  Elec       q    Type
REMARK                         _______ _______ _______ _____ _____    ______ ____
ROOT
ATOM      1  C   UNL     1       5.700   3.895  13.675  0.00  0.00    +0.000 C 
ATOM      2  C   UNL     1       5.968   4.223  15.110  0.00  0.00    +0.000 A 
ATOM      3  C   UNL     1       7.242   4.558  15.550  0.00  0.00    +0.000 A 
ATOM      4  N   UNL     1       7.548   4.814  16.839  0.00  0.00    +0.000 NA
ATOM      5  C   UNL     1       6.531   4.727  17.734  0.00  0.00    +0.000 A 
ATOM      6  C   UNL     1       5.209   4.430  17.416  0.00  0.00    +0.000 A 
ATOM      7  C   UNL     1       4.942   4.177  16.062  0.00  0.00    +0.000 A 
ENDROOT
BRANCH   6   8
ATOM      8  C   UNL     1       4.161   4.349  18.443  0.00  0.00    +0.000 A 
ATOM      9  C   UNL     1       4.053   3.217  19.240  0.00  0.00    +0.000 A 
ATOM     10  S   UNL     1       2.786   3.305  20.376  0.00  0.00    +0.000 S 
ATOM     11  C   UNL     1       2.359   4.865  19.847  0.00  0.00    +0.000 A 
ATOM     12  C   UNL     1       3.152   5.326  18.808  0.00  0.00    +0.000 A 
ATOM     13  C   UNL     1       2.933   6.665  18.176  0.00  0.00    +0.000 C 
ENDBRANCH   6   8
TORSDOF 1
ENDMDL
MODEL 5
REMARK VINA RESULT:      -6.0      1.792      2.459
REMARK  Name = 
REMARK  3 active torsions:
REMARK  status: ('A' for Active; 'I' for Inactive)
REMARK    1  A    between atoms: C_1  and  C_2
REMARK    2  A    between atoms: C_6  and  C_7
REMARK    3  A    between atoms: C_11  and  C_12
REMARK                            x       y       z     vdW  Elec       q    Type
REMARK                         _______ _______ _______ _____ _____    ______ ____
ROOT
ATOM      1  C   UNL     1       5.847   3.491  12.823  0.00  0.00    +0.000 C 
ATOM      2  C   UNL     1       6.068   4.296  14.064  0.00  0.00    +0.000 A 
ATOM      3  C   UNL     1       7.312   4.835  14.365  0.00  0.00    +0.000 A 
ATOM      4  N   UNL     1       7.576   5.526  15.494  0.00  0.00    +0.000 NA
ATOM      5  C   UNL     1       6.549   5.683  16.367  0.00  0.00    +0.000 A 
ATOM      6  C   UNL     1       5.253   5.218  16.167  0.00  0.00    +0.000 A 
ATOM      7  C   UNL     1       5.027   4.510  14.977  0.00  0.00    +0.000 A 
ENDROOT
BRANCH   6   8
ATOM      8  C   UNL     1       4.191   5.423  17.163  0.00  0.00    +0.000 A 
ATOM      9  C   UNL     1       3.912   6.700  17.631  0.00  0.00    +0.000 A 
ATOM     10  S   UNL     1       2.648   6.743  18.774  0.00  0.00    +0.000 S 
ATOM     11  C   UNL     1       2.427   5.060  18.660  0.00  0.00    +0.000 A 
ATOM     12  C   UNL     1       3.305   4.451  17.777  0.00  0.00    +0.000 A 
ATOM     13  C   UNL     1       3.299   2.973  17.545  0.00  0.00    +0.000 C 
ENDBRANCH   6   8
TORSDOF 1
ENDMDL
MODEL 6
REMARK VINA RESULT:      -5.9      1.076      2.166
REMARK  Name = 
REMARK  3 active torsions:
REMARK  status: ('A' for Active; 'I' for Inactive)
REMARK    1  A    between atoms: C_1  and  C_2
REMARK    2  A    between atoms: C_6  and  C_7
REMARK    3  A    between atoms: C_11  and  C_12
REMARK                            x       y       z     vdW  Elec       q    Type
REMARK                         _______ _______ _______ _____ _____    ______ ____
ROOT
ATOM      1  C   UNL     1       7.965   5.766  19.252  0.00  0.00    +0.000 C 
ATOM      2  C   UNL     1       7.053   5.071  18.291  0.00  0.00    +0.000 A 
ATOM      3  C   UNL     1       7.452   4.788  16.991  0.00  0.00    +0.000 A 
ATOM      4  N   UNL     1       6.654   4.208  16.071  0.00  0.00    +0.000 NA
ATOM      5  C   UNL     1       5.393   3.898  16.467  0.00  0.00    +0.000 A 
ATOM      6  C   UNL     1       4.884   4.103  17.746  0.00  0.00    +0.000 A 
ATOM      7  C   UNL     1       5.755   4.705  18.667  0.00  0.00    +0.000 A 
ENDROOT
BRANCH   6   8
ATOM      8  C   UNL     1       3.503   3.746  18.100  0.00  0.00    +0.000 A 
ATOM      9  C   UNL     1       3.151   2.415  18.273  0.00  0.00    +0.000 A 
ATOM     10  S   UNL     1       1.512   2.194  18.686  0.00  0.00    +0.000 S 
ATOM     11  C   UNL     1       1.234   3.872  18.663  0.00  0.00    +0.000 A 
ATOM     12  C   UNL     1       2.360   4.610  18.334  0.00  0.00    +0.000 A 
ATOM     13  C   UNL     1       2.331   6.102  18.233  0.00  0.00    +0.000 C 
ENDBRANCH   6   8
TORSDOF 1
ENDMDL
MODEL 7
REMARK VINA RESULT:      -5.9      2.963      5.108
REMARK  Name = 
REMARK  3 active torsions:
REMARK  status: ('A' for Active; 'I' for Inactive)
REMARK    1  A    between atoms: C_1  and  C_2
REMARK    2  A    between atoms: C_6  and  C_7
REMARK    3  A    between atoms: C_11  and  C_12
REMARK                            x       y       z     vdW  Elec       q    Type
REMARK                         _______ _______ _______ _____ _____    ______ ____
ROOT
ATOM      1  C   UNL     1       0.969   4.270  20.458  0.00  0.00    +0.000 C 
ATOM      2  C   UNL     1       1.876   4.120  19.278  0.00  0.00    +0.000 A 
ATOM      3  C   UNL     1       1.556   3.278  18.221  0.00  0.00    +0.000 A 
ATOM      4  N   UNL     1       2.361   3.069  17.158  0.00  0.00    +0.000 NA
ATOM      5  C   UNL     1       3.545   3.732  17.151  0.00  0.00    +0.000 A 
ATOM      6  C   UNL     1       3.967   4.624  18.133  0.00  0.00    +0.000 A 
ATOM      7  C   UNL     1       3.093   4.810  19.215  0.00  0.00    +0.000 A 
ENDROOT
BRANCH   6   8
ATOM      8  C   UNL     1       5.269   5.302  18.059  0.00  0.00    +0.000 A 
ATOM      9  C   UNL     1       6.207   5.122  19.067  0.00  0.00    +0.000 A 
ATOM     10  S   UNL     1       7.655   5.981  18.809  0.00  0.00    +0.000 S 
ATOM     11  C   UNL     1       7.077   6.603  17.335  0.00  0.00    +0.000 A 
ATOM     12  C   UNL     1       5.791   6.183  17.031  0.00  0.00    +0.000 A 
ATOM     13  C   UNL     1       5.082   6.631  15.792  0.00  0.00    +0.000 C 
ENDBRANCH   6   8
TORSDOF 1
ENDMDL
MODEL 8
REMARK VINA RESULT:      -5.9      1.231      1.373
REMARK  Name = 
REMARK  3 active torsions:
REMARK  status: ('A' for Active; 'I' for Inactive)
REMARK    1  A    between atoms: C_1  and  C_2
REMARK    2  A    between atoms: C_6  and  C_7
REMARK    3  A    between atoms: C_11  and  C_12
REMARK                            x       y       z     vdW  Elec       q    Type
REMARK                         _______ _______ _______ _____ _____    ______ ____
ROOT
ATOM      1  C   UNL     1       5.858   4.031  14.713  0.00  0.00    +0.000 C 
ATOM      2  C   UNL     1       5.803   4.161  16.202  0.00  0.00    +0.000 A 
ATOM      3  C   UNL     1       6.916   4.547  16.937  0.00  0.00    +0.000 A 
ATOM      4  N   UNL     1       6.934   4.632  18.284  0.00  0.00    +0.000 NA
ATOM      5  C   UNL     1       5.784   4.312  18.930  0.00  0.00    +0.000 A 
ATOM      6  C   UNL     1       4.595   3.940  18.308  0.00  0.00    +0.000 A 
ATOM      7  C   UNL     1       4.627   3.871  16.906  0.00  0.00    +0.000 A 
ENDROOT
BRANCH   6   8
ATOM      8  C   UNL     1       3.388   3.602  19.076  0.00  0.00    +0.000 A 
ATOM      9  C   UNL     1       3.499   2.955  20.299  0.00  0.00    +0.000 A 
ATOM     10  S   UNL     1       1.997   2.650  21.045  0.00  0.00    +0.000 S 
ATOM     11  C   UNL     1       1.160   3.391  19.762  0.00  0.00    +0.000 A 
ATOM     12  C   UNL     1       1.995   3.860  18.761  0.00  0.00    +0.000 A 
ATOM     13  C   UNL     1       1.464   4.523  17.530  0.00  0.00    +0.000 C 
ENDBRANCH   6   8
TORSDOF 1
ENDMDL
MODEL 9
REMARK VINA RESULT:      -5.9      2.967      5.114
REMARK  Name = 
REMARK  3 active torsions:
REMARK  status: ('A' for Active; 'I' for Inactive)
REMARK    1  A    between atoms: C_1  and  C_2
REMARK    2  A    between atoms: C_6  and  C_7
REMARK    3  A    between atoms: C_11  and  C_12
REMARK                            x       y       z     vdW  Elec       q    Type
REMARK                         _______ _______ _______ _____ _____    ______ ____
ROOT
ATOM      1  C   UNL     1       1.600   2.997  21.548  0.00  0.00    +0.000 C 
ATOM      2  C   UNL     1       1.898   3.175  20.093  0.00  0.00    +0.000 A 
ATOM      3  C   UNL     1       1.192   2.482  19.120  0.00  0.00    +0.000 A 
ATOM      4  N   UNL     1       1.453   2.568  17.799  0.00  0.00    +0.000 NA
ATOM      5  C   UNL     1       2.473   3.385  17.431  0.00  0.00    +0.000 A 
ATOM      6  C   UNL     1       3.234   4.154  18.306  0.00  0.00    +0.000 A 
ATOM      7  C   UNL     1       2.921   4.033  19.669  0.00  0.00    +0.000 A 
ENDROOT
BRANCH   6   8
ATOM      8  C   UNL     1       4.329   5.015  17.834  0.00  0.00    +0.000 A 
ATOM      9  C   UNL     1       5.567   4.464  17.533  0.00  0.00    +0.000 A 
ATOM     10  S   UNL     1       6.708   5.611  16.998  0.00  0.00    +0.000 S 
ATOM     11  C   UNL     1       5.573   6.871  17.135  0.00  0.00    +0.000 A 
ATOM     12  C   UNL     1       4.337   6.446  17.595  0.00  0.00    +0.000 A 
ATOM     13  C   UNL     1       3.202   7.396  17.812  0.00  0.00    +0.000 C 
ENDBRANCH   6   8
TORSDOF 1
ENDMDL
