MODEL 1
REMARK VINA RESULT:      -8.0      0.000      0.000
REMARK  Name = 
REMARK  13 active torsions:
REMARK  status: ('A' for Active; 'I' for Inactive)
REMARK    1  A    between atoms: C_1  and  C_2
REMARK    2  A    between atoms: C_2  and  C_3
REMARK    3  A    between atoms: C_3  and  C_4
REMARK    4  A    between atoms: C_6  and  C_7
REMARK    5  A    between atoms: C_7  and  C_8
REMARK    6  A    between atoms: C_8  and  C_9
REMARK    7  A    between atoms: C_9  and  C_10
REMARK    8  A    between atoms: C_10  and  N_11
REMARK    9  A    between atoms: C_13  and  C_14
REMARK   10  A    between atoms: C_14  and  C_15
REMARK   11  A    between atoms: N_21  and  C_22
REMARK   12  A    between atoms: C_22  and  C_23
REMARK   13  A    between atoms: C_23  and  C_24
REMARK                            x       y       z     vdW  Elec       q    Type
REMARK                         _______ _______ _______ _____ _____    ______ ____
ROOT
ATOM      1  N   UNL     1       6.785   5.592  17.765  0.00  0.00    +0.000 N 
ATOM      2  C   UNL     1       7.359   4.458  17.087  0.00  0.00    +0.000 C 
ATOM      3  C   UNL     1       6.306   4.121  16.039  0.00  0.00    +0.000 C 
ATOM      4  N   UNL     1       5.057   4.648  16.639  0.00  0.00    +0.000 N 
ATOM      5  C   UNL     1       5.389   5.616  17.627  0.00  0.00    +0.000 C 
ATOM      6  S   UNL     1       4.374   6.617  18.486  0.00  0.00    +0.000 S 
ENDROOT
BRANCH   1   7
ATOM      7  C   UNL     1       7.617   6.606  18.377  0.00  0.00    +0.000 C 
BRANCH   7   8
ATOM      8  C   UNL     1       7.733   7.884  17.561  0.00  0.00    +0.000 C 
BRANCH   8   9
ATOM      9  C   UNL     1       8.531   8.939  18.320  0.00  0.00    +0.000 C 
BRANCH   9  10
ATOM     10  C   UNL     1       8.242  10.359  17.822  0.00  0.00    +0.000 C 
BRANCH  10  13
ATOM     11  C   UNL     1       9.740  12.681  19.890  0.00  0.00    +0.000 C 
ATOM     12  N   UNL     1       9.482  11.413  19.687  0.00  0.00    +0.000 NA
ATOM     13  C   UNL     1       9.349  11.325  18.204  0.00  0.00    +0.000 C 
ATOM     14  C   UNL     1       9.056  12.762  17.740  0.00  0.00    +0.000 C 
ATOM     15  N   UNL     1       9.738  13.492  18.783  0.00  0.00    +0.000 N 
ATOM     16  H   UNL     1       9.510  14.471  18.904  0.00  0.00    +0.000 HD
BRANCH  11  17
ATOM     17  C   UNL     1       9.925  13.238  21.270  0.00  0.00    +0.000 C 
BRANCH  17  19
ATOM     18  C   UNL     1      10.021  15.432  22.472  0.00  0.00    +0.000 C 
ATOM     19  C   UNL     1      10.438  14.671  21.226  0.00  0.00    +0.000 C 
ENDBRANCH  17  19
ENDBRANCH  11  17
ENDBRANCH  10  13
ENDBRANCH   9  10
ENDBRANCH   8   9
ENDBRANCH   7   8
ENDBRANCH   1   7
BRANCH   3  20
ATOM     20  C   UNL     1       6.624   4.831  14.702  0.00  0.00    +0.000 C 
BRANCH  20  21
ATOM     21  C   UNL     1       6.241   4.054  13.454  0.00  0.00    +0.000 A 
ATOM     22  C   UNL     1       4.899   3.860  13.101  0.00  0.00    +0.000 A 
ATOM     23  C   UNL     1       4.562   3.145  11.950  0.00  0.00    +0.000 A 
ATOM     24  C   UNL     1       5.561   2.615  11.137  0.00  0.00    +0.000 A 
ATOM     25  C   UNL     1       6.900   2.795  11.475  0.00  0.00    +0.000 A 
ATOM     26  C   UNL     1       7.238   3.511  12.627  0.00  0.00    +0.000 A 
ENDBRANCH  20  21
ENDBRANCH   3  20
BRANCH   4  27
ATOM     27  C   UNL     1       3.825   3.845  16.600  0.00  0.00    +0.000 C 
BRANCH  27  28
ATOM     28  C   UNL     1       3.637   2.828  17.731  0.00  0.00    +0.000 C 
BRANCH  28  29
ATOM     29  C   UNL     1       2.208   2.771  18.280  0.00  0.00    +0.000 C 
ATOM     30  C   UNL     1       1.577   4.182  18.400  0.00  0.00    +0.000 C 
ATOM     31  C   UNL     1       1.106   4.233  19.864  0.00  0.00    +0.000 C 
ATOM     32  C   UNL     1       2.336   4.342  20.781  0.00  0.00    +0.000 C 
ATOM     33  C   UNL     1       2.926   2.926  20.735  0.00  0.00    +0.000 C 
ATOM     34  C   UNL     1       2.025   2.207  19.715  0.00  0.00    +0.000 C 
ATOM     35  C   UNL     1       0.659   2.791  20.095  0.00  0.00    +0.000 C 
ENDBRANCH  28  29
ENDBRANCH  27  28
ENDBRANCH   4  27
TORSDOF 12
ENDMDL
MODEL 2
REMARK VINA RESULT:      -7.9      2.393      4.544
REMARK  Name = 
REMARK  13 active torsions:
REMARK  status: ('A' for Active; 'I' for Inactive)
REMARK    1  A    between atoms: C_1  and  C_2
REMARK    2  A    between atoms: C_2  and  C_3
REMARK    3  A    between atoms: C_3  and  C_4
REMARK    4  A    between atoms: C_6  and  C_7
REMARK    5  A    between atoms: C_7  and  C_8
REMARK    6  A    between atoms: C_8  and  C_9
REMARK    7  A    between atoms: C_9  and  C_10
REMARK    8  A    between atoms: C_10  and  N_11
REMARK    9  A    between atoms: C_13  and  C_14
REMARK   10  A    between atoms: C_14  and  C_15
REMARK   11  A    between atoms: N_21  and  C_22
REMARK   12  A    between atoms: C_22  and  C_23
REMARK   13  A    between atoms: C_23  and  C_24
REMARK                            x       y       z     vdW  Elec       q    Type
REMARK                         _______ _______ _______ _____ _____    ______ ____
ROOT
ATOM      1  N   UNL     1       6.625   6.914  17.522  0.00  0.00    +0.000 N 
ATOM      2  C   UNL     1       5.433   7.626  17.136  0.00  0.00    +0.000 C 
ATOM      3  C   UNL     1       4.331   6.605  17.395  0.00  0.00    +0.000 C 
ATOM      4  N   UNL     1       5.041   5.310  17.276  0.00  0.00    +0.000 N 
ATOM      5  C   UNL     1       6.435   5.526  17.454  0.00  0.00    +0.000 C 
ATOM      6  S   UNL     1       7.658   4.402  17.570  0.00  0.00    +0.000 S 
ENDROOT
BRANCH   1   7
ATOM      7  C   UNL     1       7.787   7.612  18.030  0.00  0.00    +0.000 C 
BRANCH   7   8
ATOM      8  C   UNL     1       7.803   9.099  17.710  0.00  0.00    +0.000 C 
BRANCH   8   9
ATOM      9  C   UNL     1       8.761   9.840  18.637  0.00  0.00    +0.000 C 
BRANCH   9  10
ATOM     10  C   UNL     1       9.782  10.683  17.865  0.00  0.00    +0.000 C 
BRANCH  10  13
ATOM     11  C   UNL     1       9.428  13.018  20.383  0.00  0.00    +0.000 C 
ATOM     12  N   UNL     1      10.106  11.986  19.944  0.00  0.00    +0.000 NA
ATOM     13  C   UNL     1       9.935  12.069  18.465  0.00  0.00    +0.000 C 
ATOM     14  C   UNL     1       8.685  12.939  18.252  0.00  0.00    +0.000 C 
ATOM     15  N   UNL     1       8.761  13.758  19.439  0.00  0.00    +0.000 N 
ATOM     16  H   UNL     1       7.928  14.261  19.722  0.00  0.00    +0.000 HD
BRANCH  11  17
ATOM     17  C   UNL     1       9.298  13.314  21.847  0.00  0.00    +0.000 C 
BRANCH  17  19
ATOM     18  C   UNL     1       8.038  11.595  23.160  0.00  0.00    +0.000 C 
ATOM     19  C   UNL     1       7.936  12.894  22.381  0.00  0.00    +0.000 C 
ENDBRANCH  17  19
ENDBRANCH  11  17
ENDBRANCH  10  13
ENDBRANCH   9  10
ENDBRANCH   8   9
ENDBRANCH   7   8
ENDBRANCH   1   7
BRANCH   3  20
ATOM     20  C   UNL     1       3.744   6.791  18.814  0.00  0.00    +0.000 C 
BRANCH  20  21
ATOM     21  C   UNL     1       2.602   7.788  18.913  0.00  0.00    +0.000 A 
ATOM     22  C   UNL     1       1.908   7.983  20.113  0.00  0.00    +0.000 A 
ATOM     23  C   UNL     1       0.861   8.904  20.189  0.00  0.00    +0.000 A 
ATOM     24  C   UNL     1       0.495   9.642  19.066  0.00  0.00    +0.000 A 
ATOM     25  C   UNL     1       1.172   9.458  17.863  0.00  0.00    +0.000 A 
ATOM     26  C   UNL     1       2.220   8.537  17.787  0.00  0.00    +0.000 A 
ENDBRANCH  20  21
ENDBRANCH   3  20
BRANCH   4  27
ATOM     27  C   UNL     1       4.430   4.202  16.527  0.00  0.00    +0.000 C 
BRANCH  27  28
ATOM     28  C   UNL     1       4.095   2.938  17.327  0.00  0.00    +0.000 C 
BRANCH  28  29
ATOM     29  C   UNL     1       2.595   2.724  17.547  0.00  0.00    +0.000 C 
ATOM     30  C   UNL     1       1.834   4.066  17.695  0.00  0.00    +0.000 C 
ATOM     31  C   UNL     1       1.070   3.893  19.020  0.00  0.00    +0.000 C 
ATOM     32  C   UNL     1       2.072   3.950  20.186  0.00  0.00    +0.000 C 
ATOM     33  C   UNL     1       2.779   2.590  20.099  0.00  0.00    +0.000 C 
ATOM     34  C   UNL     1       2.171   1.963  18.832  0.00  0.00    +0.000 C 
ATOM     35  C   UNL     1       0.711   2.409  18.976  0.00  0.00    +0.000 C 
ENDBRANCH  28  29
ENDBRANCH  27  28
ENDBRANCH   4  27
TORSDOF 12
ENDMDL
MODEL 3
REMARK VINA RESULT:      -7.8      4.452      8.630
REMARK  Name = 
REMARK  13 active torsions:
REMARK  status: ('A' for Active; 'I' for Inactive)
REMARK    1  A    between atoms: C_1  and  C_2
REMARK    2  A    between atoms: C_2  and  C_3
REMARK    3  A    between atoms: C_3  and  C_4
REMARK    4  A    between atoms: C_6  and  C_7
REMARK    5  A    between atoms: C_7  and  C_8
REMARK    6  A    between atoms: C_8  and  C_9
REMARK    7  A    between atoms: C_9  and  C_10
REMARK    8  A    between atoms: C_10  and  N_11
REMARK    9  A    between atoms: C_13  and  C_14
REMARK   10  A    between atoms: C_14  and  C_15
REMARK   11  A    between atoms: N_21  and  C_22
REMARK   12  A    between atoms: C_22  and  C_23
REMARK   13  A    between atoms: C_23  and  C_24
REMARK                            x       y       z     vdW  Elec       q    Type
REMARK                         _______ _______ _______ _____ _____    ______ ____
ROOT
ATOM      1  N   UNL     1       2.904   7.369  18.697  0.00  0.00    +0.000 N 
ATOM      2  C   UNL     1       3.302   6.408  19.694  0.00  0.00    +0.000 C 
ATOM      3  C   UNL     1       2.077   6.329  20.597  0.00  0.00    +0.000 C 
ATOM      4  N   UNL     1       1.431   7.648  20.400  0.00  0.00    +0.000 N 
ATOM      5  C   UNL     1       1.891   8.213  19.179  0.00  0.00    +0.000 C 
ATOM      6  S   UNL     1       1.374   9.596  18.410  0.00  0.00    +0.000 S 
ENDROOT
BRANCH   1   7
ATOM      7  C   UNL     1       3.433   7.323  17.351  0.00  0.00    +0.000 C 
BRANCH   7   8
ATOM      8  C   UNL     1       4.462   6.223  17.131  0.00  0.00    +0.000 C 
BRANCH   8   9
ATOM      9  C   UNL     1       5.836   6.820  16.842  0.00  0.00    +0.000 C 
BRANCH   9  10
ATOM     10  C   UNL     1       6.976   5.909  17.310  0.00  0.00    +0.000 C 
BRANCH  10  13
ATOM     11  C   UNL     1       6.700   4.309  14.264  0.00  0.00    +0.000 C 
ATOM     12  N   UNL     1       7.336   5.218  14.960  0.00  0.00    +0.000 NA
ATOM     13  C   UNL     1       7.184   4.739  16.365  0.00  0.00    +0.000 C 
ATOM     14  C   UNL     1       5.977   3.787  16.338  0.00  0.00    +0.000 C 
ATOM     15  N   UNL     1       6.077   3.316  14.977  0.00  0.00    +0.000 N 
ATOM     16  H   UNL     1       5.265   2.868  14.570  0.00  0.00    +0.000 HD
BRANCH  11  17
ATOM     17  C   UNL     1       6.569   4.405  12.773  0.00  0.00    +0.000 C 
BRANCH  17  19
ATOM     18  C   UNL     1       4.600   3.356  11.636  0.00  0.00    +0.000 C 
ATOM     19  C   UNL     1       5.998   3.123  12.182  0.00  0.00    +0.000 C 
ENDBRANCH  17  19
ENDBRANCH  11  17
ENDBRANCH  10  13
ENDBRANCH   9  10
ENDBRANCH   8   9
ENDBRANCH   7   8
ENDBRANCH   1   7
BRANCH   3  20
ATOM     20  C   UNL     1       1.145   5.179  20.146  0.00  0.00    +0.000 C 
BRANCH  20  21
ATOM     21  C   UNL     1       1.827   4.064  19.372  0.00  0.00    +0.000 A 
ATOM     22  C   UNL     1       2.600   3.094  20.022  0.00  0.00    +0.000 A 
ATOM     23  C   UNL     1       3.220   2.074  19.298  0.00  0.00    +0.000 A 
ATOM     24  C   UNL     1       3.075   2.010  17.914  0.00  0.00    +0.000 A 
ATOM     25  C   UNL     1       2.313   2.968  17.250  0.00  0.00    +0.000 A 
ATOM     26  C   UNL     1       1.692   3.989  17.975  0.00  0.00    +0.000 A 
ENDBRANCH  20  21
ENDBRANCH   3  20
BRANCH   4  27
ATOM     27  C   UNL     1       0.922   8.398  21.558  0.00  0.00    +0.000 C 
BRANCH  27  28
ATOM     28  C   UNL     1      -0.198   9.407  21.280  0.00  0.00    +0.000 C 
BRANCH  28  29
ATOM     29  C   UNL     1      -0.058  10.718  22.059  0.00  0.00    +0.000 C 
ATOM     30  C   UNL     1      -1.238  10.937  23.041  0.00  0.00    +0.000 C 
ATOM     31  C   UNL     1      -1.751  12.339  22.668  0.00  0.00    +0.000 C 
ATOM     32  C   UNL     1      -2.463  12.263  21.306  0.00  0.00    +0.000 C 
ATOM     33  C   UNL     1      -1.299  12.127  20.316  0.00  0.00    +0.000 C 
ATOM     34  C   UNL     1      -0.068  12.034  21.236  0.00  0.00    +0.000 C 
ATOM     35  C   UNL     1      -0.451  13.058  22.312  0.00  0.00    +0.000 C 
ENDBRANCH  28  29
ENDBRANCH  27  28
ENDBRANCH   4  27
TORSDOF 12
ENDMDL
MODEL 4
REMARK VINA RESULT:      -7.7      2.547      4.638
REMARK  Name = 
REMARK  13 active torsions:
REMARK  status: ('A' for Active; 'I' for Inactive)
REMARK    1  A    between atoms: C_1  and  C_2
REMARK    2  A    between atoms: C_2  and  C_3
REMARK    3  A    between atoms: C_3  and  C_4
REMARK    4  A    between atoms: C_6  and  C_7
REMARK    5  A    between atoms: C_7  and  C_8
REMARK    6  A    between atoms: C_8  and  C_9
REMARK    7  A    between atoms: C_9  and  C_10
REMARK    8  A    between atoms: C_10  and  N_11
REMARK    9  A    between atoms: C_13  and  C_14
REMARK   10  A    between atoms: C_14  and  C_15
REMARK   11  A    between atoms: N_21  and  C_22
REMARK   12  A    between atoms: C_22  and  C_23
REMARK   13  A    between atoms: C_23  and  C_24
REMARK                            x       y       z     vdW  Elec       q    Type
REMARK                         _______ _______ _______ _____ _____    ______ ____
ROOT
ATOM      1  N   UNL     1       6.600   6.883  17.589  0.00  0.00    +0.000 N 
ATOM      2  C   UNL     1       5.411   7.585  17.178  0.00  0.00    +0.000 C 
ATOM      3  C   UNL     1       4.311   6.560  17.424  0.00  0.00    +0.000 C 
ATOM      4  N   UNL     1       5.029   5.268  17.326  0.00  0.00    +0.000 N 
ATOM      5  C   UNL     1       6.419   5.493  17.526  0.00  0.00    +0.000 C 
ATOM      6  S   UNL     1       7.645   4.376  17.671  0.00  0.00    +0.000 S 
ENDROOT
BRANCH   1   7
ATOM      7  C   UNL     1       7.750   7.589  18.112  0.00  0.00    +0.000 C 
BRANCH   7   8
ATOM      8  C   UNL     1       8.122   8.834  17.320  0.00  0.00    +0.000 C 
BRANCH   8   9
ATOM      9  C   UNL     1       8.210  10.050  18.236  0.00  0.00    +0.000 C 
BRANCH   9  10
ATOM     10  C   UNL     1       9.365   9.942  19.237  0.00  0.00    +0.000 C 
BRANCH  10  13
ATOM     11  C   UNL     1       9.994  13.287  18.665  0.00  0.00    +0.000 C 
ATOM     12  N   UNL     1       9.097  12.390  18.992  0.00  0.00    +0.000 NA
ATOM     13  C   UNL     1       9.910  11.307  19.617  0.00  0.00    +0.000 C 
ATOM     14  C   UNL     1      11.342  11.529  19.102  0.00  0.00    +0.000 C 
ATOM     15  N   UNL     1      11.304  12.960  18.907  0.00  0.00    +0.000 N 
ATOM     16  H   UNL     1      12.020  13.377  18.326  0.00  0.00    +0.000 HD
BRANCH  11  17
ATOM     17  C   UNL     1       9.620  14.560  17.967  0.00  0.00    +0.000 C 
BRANCH  17  19
ATOM     18  C   UNL     1      10.595  16.608  19.027  0.00  0.00    +0.000 C 
ATOM     19  C   UNL     1      10.779  15.548  17.955  0.00  0.00    +0.000 C 
ENDBRANCH  17  19
ENDBRANCH  11  17
ENDBRANCH  10  13
ENDBRANCH   9  10
ENDBRANCH   8   9
ENDBRANCH   7   8
ENDBRANCH   1   7
BRANCH   3  20
ATOM     20  C   UNL     1       3.698   6.751  18.832  0.00  0.00    +0.000 C 
BRANCH  20  21
ATOM     21  C   UNL     1       2.577   7.773  18.912  0.00  0.00    +0.000 A 
ATOM     22  C   UNL     1       2.192   8.522  17.792  0.00  0.00    +0.000 A 
ATOM     23  C   UNL     1       1.159   9.458  17.880  0.00  0.00    +0.000 A 
ATOM     24  C   UNL     1       0.497   9.656  19.090  0.00  0.00    +0.000 A 
ATOM     25  C   UNL     1       0.868   8.923  20.214  0.00  0.00    +0.000 A 
ATOM     26  C   UNL     1       1.902   7.987  20.126  0.00  0.00    +0.000 A 
ENDBRANCH  20  21
ENDBRANCH   3  20
BRANCH   4  27
ATOM     27  C   UNL     1       4.437   4.152  16.573  0.00  0.00    +0.000 C 
BRANCH  27  28
ATOM     28  C   UNL     1       4.100   2.890  17.375  0.00  0.00    +0.000 C 
BRANCH  28  29
ATOM     29  C   UNL     1       2.598   2.665  17.572  0.00  0.00    +0.000 C 
ATOM     30  C   UNL     1       1.820   4.002  17.674  0.00  0.00    +0.000 C 
ATOM     31  C   UNL     1       1.033   3.853  18.988  0.00  0.00    +0.000 C 
ATOM     32  C   UNL     1       2.013   3.948  20.170  0.00  0.00    +0.000 C 
ATOM     33  C   UNL     1       2.735   2.594  20.129  0.00  0.00    +0.000 C 
ATOM     34  C   UNL     1       2.157   1.930  18.867  0.00  0.00    +0.000 C 
ATOM     35  C   UNL     1       0.690   2.364  18.974  0.00  0.00    +0.000 C 
ENDBRANCH  28  29
ENDBRANCH  27  28
ENDBRANCH   4  27
TORSDOF 12
ENDMDL
MODEL 5
REMARK VINA RESULT:      -7.5      4.452      7.924
REMARK  Name = 
REMARK  13 active torsions:
REMARK  status: ('A' for Active; 'I' for Inactive)
REMARK    1  A    between atoms: C_1  and  C_2
REMARK    2  A    between atoms: C_2  and  C_3
REMARK    3  A    between atoms: C_3  and  C_4
REMARK    4  A    between atoms: C_6  and  C_7
REMARK    5  A    between atoms: C_7  and  C_8
REMARK    6  A    between atoms: C_8  and  C_9
REMARK    7  A    between atoms: C_9  and  C_10
REMARK    8  A    between atoms: C_10  and  N_11
REMARK    9  A    between atoms: C_13  and  C_14
REMARK   10  A    between atoms: C_14  and  C_15
REMARK   11  A    between atoms: N_21  and  C_22
REMARK   12  A    between atoms: C_22  and  C_23
REMARK   13  A    between atoms: C_23  and  C_24
REMARK                            x       y       z     vdW  Elec       q    Type
REMARK                         _______ _______ _______ _____ _____    ______ ____
ROOT
ATOM      1  N   UNL     1       3.003   6.981  18.788  0.00  0.00    +0.000 N 
ATOM      2  C   UNL     1       3.124   6.332  20.069  0.00  0.00    +0.000 C 
ATOM      3  C   UNL     1       1.846   6.752  20.784  0.00  0.00    +0.000 C 
ATOM      4  N   UNL     1       1.496   8.030  20.120  0.00  0.00    +0.000 N 
ATOM      5  C   UNL     1       2.150   8.093  18.859  0.00  0.00    +0.000 C 
ATOM      6  S   UNL     1       1.982   9.228  17.654  0.00  0.00    +0.000 S 
ENDROOT
BRANCH   1   7
ATOM      7  C   UNL     1       3.610   6.422  17.599  0.00  0.00    +0.000 C 
BRANCH   7   8
ATOM      8  C   UNL     1       3.205   4.983  17.319  0.00  0.00    +0.000 C 
BRANCH   8   9
ATOM      9  C   UNL     1       4.342   4.025  17.666  0.00  0.00    +0.000 C 
BRANCH   9  10
ATOM     10  C   UNL     1       5.146   3.606  16.431  0.00  0.00    +0.000 C 
BRANCH  10  13
ATOM     11  C   UNL     1       7.449   6.026  17.300  0.00  0.00    +0.000 C 
ATOM     12  N   UNL     1       6.781   4.969  17.694  0.00  0.00    +0.000 NA
ATOM     13  C   UNL     1       6.529   4.233  16.422  0.00  0.00    +0.000 C 
ATOM     14  C   UNL     1       6.686   5.283  15.309  0.00  0.00    +0.000 C 
ATOM     15  N   UNL     1       7.636   6.164  15.948  0.00  0.00    +0.000 N 
ATOM     16  H   UNL     1       7.745   7.097  15.570  0.00  0.00    +0.000 HD
BRANCH  11  17
ATOM     17  C   UNL     1       7.894   7.083  18.265  0.00  0.00    +0.000 C 
BRANCH  17  19
ATOM     18  C   UNL     1       8.649   9.467  18.392  0.00  0.00    +0.000 C 
ATOM     19  C   UNL     1       7.757   8.476  17.666  0.00  0.00    +0.000 C 
ENDBRANCH  17  19
ENDBRANCH  11  17
ENDBRANCH  10  13
ENDBRANCH   9  10
ENDBRANCH   8   9
ENDBRANCH   7   8
ENDBRANCH   1   7
BRANCH   3  20
ATOM     20  C   UNL     1       0.735   5.694  20.574  0.00  0.00    +0.000 C 
BRANCH  20  21
ATOM     21  C   UNL     1       1.229   4.268  20.407  0.00  0.00    +0.000 A 
ATOM     22  C   UNL     1       2.053   3.665  21.367  0.00  0.00    +0.000 A 
ATOM     23  C   UNL     1       2.499   2.352  21.201  0.00  0.00    +0.000 A 
ATOM     24  C   UNL     1       2.126   1.624  20.073  0.00  0.00    +0.000 A 
ATOM     25  C   UNL     1       1.311   2.208  19.106  0.00  0.00    +0.000 A 
ATOM     26  C   UNL     1       0.865   3.522  19.273  0.00  0.00    +0.000 A 
ENDBRANCH  20  21
ENDBRANCH   3  20
BRANCH   4  27
ATOM     27  C   UNL     1       1.066   9.183  20.925  0.00  0.00    +0.000 C 
BRANCH  27  28
ATOM     28  C   UNL     1      -0.240   9.864  20.501  0.00  0.00    +0.000 C 
BRANCH  28  29
ATOM     29  C   UNL     1      -0.067  11.325  20.074  0.00  0.00    +0.000 C 
ATOM     30  C   UNL     1      -0.740  12.303  21.071  0.00  0.00    +0.000 C 
ATOM     31  C   UNL     1      -1.647  13.157  20.167  0.00  0.00    +0.000 C 
ATOM     32  C   UNL     1      -2.833  12.297  19.695  0.00  0.00    +0.000 C 
ATOM     33  C   UNL     1      -2.194  11.376  18.647  0.00  0.00    +0.000 C 
ATOM     34  C   UNL     1      -0.701  11.746  18.722  0.00  0.00    +0.000 C 
ATOM     35  C   UNL     1      -0.803  13.266  18.899  0.00  0.00    +0.000 C 
ENDBRANCH  28  29
ENDBRANCH  27  28
ENDBRANCH   4  27
TORSDOF 12
ENDMDL
MODEL 6
REMARK VINA RESULT:      -7.5      6.316     10.017
REMARK  Name = 
REMARK  13 active torsions:
REMARK  status: ('A' for Active; 'I' for Inactive)
REMARK    1  A    between atoms: C_1  and  C_2
REMARK    2  A    between atoms: C_2  and  C_3
REMARK    3  A    between atoms: C_3  and  C_4
REMARK    4  A    between atoms: C_6  and  C_7
REMARK    5  A    between atoms: C_7  and  C_8
REMARK    6  A    between atoms: C_8  and  C_9
REMARK    7  A    between atoms: C_9  and  C_10
REMARK    8  A    between atoms: C_10  and  N_11
REMARK    9  A    between atoms: C_13  and  C_14
REMARK   10  A    between atoms: C_14  and  C_15
REMARK   11  A    between atoms: N_21  and  C_22
REMARK   12  A    between atoms: C_22  and  C_23
REMARK   13  A    between atoms: C_23  and  C_24
REMARK                            x       y       z     vdW  Elec       q    Type
REMARK                         _______ _______ _______ _____ _____    ______ ____
ROOT
ATOM      1  N   UNL     1       1.111   9.632  19.429  0.00  0.00    +0.000 N 
ATOM      2  C   UNL     1       1.162  10.694  18.456  0.00  0.00    +0.000 C 
ATOM      3  C   UNL     1       0.653  11.897  19.240  0.00  0.00    +0.000 C 
ATOM      4  N   UNL     1      -0.189  11.279  20.292  0.00  0.00    +0.000 N 
ATOM      5  C   UNL     1       0.186   9.916  20.445  0.00  0.00    +0.000 C 
ATOM      6  S   UNL     1      -0.329   8.815  21.583  0.00  0.00    +0.000 S 
ENDROOT
BRANCH   1   7
ATOM      7  C   UNL     1       2.024   8.511  19.370  0.00  0.00    +0.000 C 
BRANCH   7   8
ATOM      8  C   UNL     1       2.189   7.924  17.976  0.00  0.00    +0.000 C 
BRANCH   8   9
ATOM      9  C   UNL     1       3.330   6.911  17.948  0.00  0.00    +0.000 C 
BRANCH   9  10
ATOM     10  C   UNL     1       2.827   5.466  18.024  0.00  0.00    +0.000 C 
BRANCH  10  13
ATOM     11  C   UNL     1       6.157   4.578  17.846  0.00  0.00    +0.000 C 
ATOM     12  N   UNL     1       5.219   5.137  18.569  0.00  0.00    +0.000 NA
ATOM     13  C   UNL     1       3.975   4.473  18.084  0.00  0.00    +0.000 C 
ATOM     14  C   UNL     1       4.331   3.908  16.699  0.00  0.00    +0.000 C 
ATOM     15  N   UNL     1       5.744   3.681  16.893  0.00  0.00    +0.000 N 
ATOM     16  H   UNL     1       6.321   3.553  16.070  0.00  0.00    +0.000 HD
BRANCH  11  17
ATOM     17  C   UNL     1       7.598   4.972  17.979  0.00  0.00    +0.000 C 
BRANCH  17  19
ATOM     18  C   UNL     1       7.650   7.448  17.611  0.00  0.00    +0.000 C 
ATOM     19  C   UNL     1       7.742   6.336  18.640  0.00  0.00    +0.000 C 
ENDBRANCH  17  19
ENDBRANCH  11  17
ENDBRANCH  10  13
ENDBRANCH   9  10
ENDBRANCH   8   9
ENDBRANCH   7   8
ENDBRANCH   1   7
BRANCH   3  20
ATOM     20  C   UNL     1       1.836  12.678  19.862  0.00  0.00    +0.000 C 
BRANCH  20  21
ATOM     21  C   UNL     1       2.203  13.965  19.144  0.00  0.00    +0.000 A 
ATOM     22  C   UNL     1       1.407  15.113  19.253  0.00  0.00    +0.000 A 
ATOM     23  C   UNL     1       1.758  16.290  18.588  0.00  0.00    +0.000 A 
ATOM     24  C   UNL     1       2.911  16.335  17.807  0.00  0.00    +0.000 A 
ATOM     25  C   UNL     1       3.713  15.203  17.685  0.00  0.00    +0.000 A 
ATOM     26  C   UNL     1       3.361  14.025  18.350  0.00  0.00    +0.000 A 
ENDBRANCH  20  21
ENDBRANCH   3  20
BRANCH   4  27
ATOM     27  C   UNL     1      -1.505  11.851  20.613  0.00  0.00    +0.000 C 
BRANCH  27  28
ATOM     28  C   UNL     1      -2.456  12.081  19.432  0.00  0.00    +0.000 C 
BRANCH  28  29
ATOM     29  C   UNL     1      -2.333  11.030  18.325  0.00  0.00    +0.000 C 
ATOM     30  C   UNL     1      -2.151  11.679  16.929  0.00  0.00    +0.000 C 
ATOM     31  C   UNL     1      -3.266  11.028  16.091  0.00  0.00    +0.000 C 
ATOM     32  C   UNL     1      -4.624  11.592  16.543  0.00  0.00    +0.000 C 
ATOM     33  C   UNL     1      -4.855  10.895  17.891  0.00  0.00    +0.000 C 
ATOM     34  C   UNL     1      -3.554  10.098  18.098  0.00  0.00    +0.000 C 
ATOM     35  C   UNL     1      -3.297   9.613  16.665  0.00  0.00    +0.000 C 
ENDBRANCH  28  29
ENDBRANCH  27  28
ENDBRANCH   4  27
TORSDOF 12
ENDMDL
MODEL 7
REMARK VINA RESULT:      -7.4      2.591      4.504
REMARK  Name = 
REMARK  13 active torsions:
REMARK  status: ('A' for Active; 'I' for Inactive)
REMARK    1  A    between atoms: C_1  and  C_2
REMARK    2  A    between atoms: C_2  and  C_3
REMARK    3  A    between atoms: C_3  and  C_4
REMARK    4  A    between atoms: C_6  and  C_7
REMARK    5  A    between atoms: C_7  and  C_8
REMARK    6  A    between atoms: C_8  and  C_9
REMARK    7  A    between atoms: C_9  and  C_10
REMARK    8  A    between atoms: C_10  and  N_11
REMARK    9  A    between atoms: C_13  and  C_14
REMARK   10  A    between atoms: C_14  and  C_15
REMARK   11  A    between atoms: N_21  and  C_22
REMARK   12  A    between atoms: C_22  and  C_23
REMARK   13  A    between atoms: C_23  and  C_24
REMARK                            x       y       z     vdW  Elec       q    Type
REMARK                         _______ _______ _______ _____ _____    ______ ____
ROOT
ATOM      1  N   UNL     1       6.190   6.708  16.917  0.00  0.00    +0.000 N 
ATOM      2  C   UNL     1       4.853   7.171  16.642  0.00  0.00    +0.000 C 
ATOM      3  C   UNL     1       3.990   6.220  17.463  0.00  0.00    +0.000 C 
ATOM      4  N   UNL     1       4.837   5.008  17.569  0.00  0.00    +0.000 N 
ATOM      5  C   UNL     1       6.191   5.365  17.321  0.00  0.00    +0.000 C 
ATOM      6  S   UNL     1       7.559   4.427  17.464  0.00  0.00    +0.000 S 
ENDROOT
BRANCH   1   7
ATOM      7  C   UNL     1       7.321   7.611  16.885  0.00  0.00    +0.000 C 
BRANCH   7   8
ATOM      8  C   UNL     1       7.439   8.495  18.117  0.00  0.00    +0.000 C 
BRANCH   8   9
ATOM      9  C   UNL     1       8.578   9.498  17.954  0.00  0.00    +0.000 C 
BRANCH   9  10
ATOM     10  C   UNL     1       9.131   9.974  19.301  0.00  0.00    +0.000 C 
BRANCH  10  13
ATOM     11  C   UNL     1      10.311  13.182  19.786  0.00  0.00    +0.000 C 
ATOM     12  N   UNL     1      10.140  11.995  20.314  0.00  0.00    +0.000 NA
ATOM     13  C   UNL     1      10.146  11.091  19.128  0.00  0.00    +0.000 C 
ATOM     14  C   UNL     1       9.821  11.996  17.928  0.00  0.00    +0.000 C 
ATOM     15  N   UNL     1      10.366  13.241  18.416  0.00  0.00    +0.000 N 
ATOM     16  H   UNL     1      10.076  14.096  17.959  0.00  0.00    +0.000 HD
BRANCH  11  17
ATOM     17  C   UNL     1      10.339  14.423  20.626  0.00  0.00    +0.000 C 
BRANCH  17  19
ATOM     18  C   UNL     1       8.345  14.518  22.136  0.00  0.00    +0.000 C 
ATOM     19  C   UNL     1       9.816  14.156  22.030  0.00  0.00    +0.000 C 
ENDBRANCH  17  19
ENDBRANCH  11  17
ENDBRANCH  10  13
ENDBRANCH   9  10
ENDBRANCH   8   9
ENDBRANCH   7   8
ENDBRANCH   1   7
BRANCH   3  20
ATOM     20  C   UNL     1       3.699   6.820  18.859  0.00  0.00    +0.000 C 
BRANCH  20  21
ATOM     21  C   UNL     1       2.570   7.835  18.900  0.00  0.00    +0.000 A 
ATOM     22  C   UNL     1       1.889   8.120  20.090  0.00  0.00    +0.000 A 
ATOM     23  C   UNL     1       0.853   9.056  20.113  0.00  0.00    +0.000 A 
ATOM     24  C   UNL     1       0.485   9.720  18.945  0.00  0.00    +0.000 A 
ATOM     25  C   UNL     1       1.148   9.447  17.751  0.00  0.00    +0.000 A 
ATOM     26  C   UNL     1       2.184   8.510  17.729  0.00  0.00    +0.000 A 
ENDBRANCH  20  21
ENDBRANCH   3  20
BRANCH   4  27
ATOM     27  C   UNL     1       4.246   3.677  17.366  0.00  0.00    +0.000 C 
BRANCH  27  28
ATOM     28  C   UNL     1       2.725   3.574  17.521  0.00  0.00    +0.000 C 
BRANCH  28  29
ATOM     29  C   UNL     1       2.280   2.656  18.663  0.00  0.00    +0.000 C 
ATOM     30  C   UNL     1       0.750   2.729  18.903  0.00  0.00    +0.000 C 
ATOM     31  C   UNL     1       0.645   3.043  20.406  0.00  0.00    +0.000 C 
ATOM     32  C   UNL     1       1.087   4.497  20.644  0.00  0.00    +0.000 C 
ATOM     33  C   UNL     1       2.613   4.423  20.488  0.00  0.00    +0.000 C 
ATOM     34  C   UNL     1       2.849   2.959  20.076  0.00  0.00    +0.000 C 
ATOM     35  C   UNL     1       1.823   2.251  20.970  0.00  0.00    +0.000 C 
ENDBRANCH  28  29
ENDBRANCH  27  28
ENDBRANCH   4  27
TORSDOF 12
ENDMDL
MODEL 8
REMARK VINA RESULT:      -7.4      6.784     10.904
REMARK  Name = 
REMARK  13 active torsions:
REMARK  status: ('A' for Active; 'I' for Inactive)
REMARK    1  A    between atoms: C_1  and  C_2
REMARK    2  A    between atoms: C_2  and  C_3
REMARK    3  A    between atoms: C_3  and  C_4
REMARK    4  A    between atoms: C_6  and  C_7
REMARK    5  A    between atoms: C_7  and  C_8
REMARK    6  A    between atoms: C_8  and  C_9
REMARK    7  A    between atoms: C_9  and  C_10
REMARK    8  A    between atoms: C_10  and  N_11
REMARK    9  A    between atoms: C_13  and  C_14
REMARK   10  A    between atoms: C_14  and  C_15
REMARK   11  A    between atoms: N_21  and  C_22
REMARK   12  A    between atoms: C_22  and  C_23
REMARK   13  A    between atoms: C_23  and  C_24
REMARK                            x       y       z     vdW  Elec       q    Type
REMARK                         _______ _______ _______ _____ _____    ______ ____
ROOT
ATOM      1  N   UNL     1       1.465   8.726  19.119  0.00  0.00    +0.000 N 
ATOM      2  C   UNL     1       1.057   9.554  18.012  0.00  0.00    +0.000 C 
ATOM      3  C   UNL     1       0.769  10.893  18.679  0.00  0.00    +0.000 C 
ATOM      4  N   UNL     1       0.434  10.509  20.070  0.00  0.00    +0.000 N 
ATOM      5  C   UNL     1       0.959   9.213  20.333  0.00  0.00    +0.000 C 
ATOM      6  S   UNL     1       1.002   8.379  21.773  0.00  0.00    +0.000 S 
ENDROOT
BRANCH   1   7
ATOM      7  C   UNL     1       2.388   7.627  18.937  0.00  0.00    +0.000 C 
BRANCH   7   8
ATOM      8  C   UNL     1       3.145   7.669  17.618  0.00  0.00    +0.000 C 
BRANCH   8   9
ATOM      9  C   UNL     1       4.480   6.938  17.739  0.00  0.00    +0.000 C 
BRANCH   9  10
ATOM     10  C   UNL     1       4.758   6.032  16.535  0.00  0.00    +0.000 C 
BRANCH  10  13
ATOM     11  C   UNL     1       3.559   3.111  17.928  0.00  0.00    +0.000 C 
ATOM     12  N   UNL     1       3.538   3.908  16.889  0.00  0.00    +0.000 NA
ATOM     13  C   UNL     1       4.871   4.574  16.943  0.00  0.00    +0.000 C 
ATOM     14  C   UNL     1       5.346   4.409  18.396  0.00  0.00    +0.000 C 
ATOM     15  N   UNL     1       4.673   3.175  18.727  0.00  0.00    +0.000 N 
ATOM     16  H   UNL     1       4.579   2.934  19.706  0.00  0.00    +0.000 HD
BRANCH  11  17
ATOM     17  C   UNL     1       2.386   2.250  18.288  0.00  0.00    +0.000 C 
BRANCH  17  19
ATOM     18  C   UNL     1       0.976   3.415  19.997  0.00  0.00    +0.000 C 
ATOM     19  C   UNL     1       2.046   2.362  19.767  0.00  0.00    +0.000 C 
ENDBRANCH  17  19
ENDBRANCH  11  17
ENDBRANCH  10  13
ENDBRANCH   9  10
ENDBRANCH   8   9
ENDBRANCH   7   8
ENDBRANCH   1   7
BRANCH   3  20
ATOM     20  C   UNL     1       2.022  11.800  18.638  0.00  0.00    +0.000 C 
BRANCH  20  21
ATOM     21  C   UNL     1       1.853  13.160  19.293  0.00  0.00    +0.000 A 
ATOM     22  C   UNL     1       1.213  14.214  18.629  0.00  0.00    +0.000 A 
ATOM     23  C   UNL     1       1.065  15.459  19.244  0.00  0.00    +0.000 A 
ATOM     24  C   UNL     1       1.553  15.665  20.532  0.00  0.00    +0.000 A 
ATOM     25  C   UNL     1       2.195  14.630  21.206  0.00  0.00    +0.000 A 
ATOM     26  C   UNL     1       2.344  13.385  20.590  0.00  0.00    +0.000 A 
ENDBRANCH  20  21
ENDBRANCH   3  20
BRANCH   4  27
ATOM     27  C   UNL     1      -0.716  11.125  20.748  0.00  0.00    +0.000 C 
BRANCH  27  28
ATOM     28  C   UNL     1      -1.542  12.119  19.924  0.00  0.00    +0.000 C 
BRANCH  28  29
ATOM     29  C   UNL     1      -1.775  13.461  20.625  0.00  0.00    +0.000 C 
ATOM     30  C   UNL     1      -1.167  13.483  22.051  0.00  0.00    +0.000 C 
ATOM     31  C   UNL     1      -2.352  13.917  22.931  0.00  0.00    +0.000 C 
ATOM     32  C   UNL     1      -3.361  12.759  23.018  0.00  0.00    +0.000 C 
ATOM     33  C   UNL     1      -4.027  12.778  21.636  0.00  0.00    +0.000 C 
ATOM     34  C   UNL     1      -3.247  13.875  20.889  0.00  0.00    +0.000 C 
ATOM     35  C   UNL     1      -3.073  14.903  22.013  0.00  0.00    +0.000 C 
ENDBRANCH  28  29
ENDBRANCH  27  28
ENDBRANCH   4  27
TORSDOF 12
ENDMDL
MODEL 9
REMARK VINA RESULT:      -7.4      7.568     10.910
REMARK  Name = 
REMARK  13 active torsions:
REMARK  status: ('A' for Active; 'I' for Inactive)
REMARK    1  A    between atoms: C_1  and  C_2
REMARK    2  A    between atoms: C_2  and  C_3
REMARK    3  A    between atoms: C_3  and  C_4
REMARK    4  A    between atoms: C_6  and  C_7
REMARK    5  A    between atoms: C_7  and  C_8
REMARK    6  A    between atoms: C_8  and  C_9
REMARK    7  A    between atoms: C_9  and  C_10
REMARK    8  A    between atoms: C_10  and  N_11
REMARK    9  A    between atoms: C_13  and  C_14
REMARK   10  A    between atoms: C_14  and  C_15
REMARK   11  A    between atoms: N_21  and  C_22
REMARK   12  A    between atoms: C_22  and  C_23
REMARK   13  A    between atoms: C_23  and  C_24
REMARK                            x       y       z     vdW  Elec       q    Type
REMARK                         _______ _______ _______ _____ _____    ______ ____
ROOT
ATOM      1  N   UNL     1       0.865   9.424  19.685  0.00  0.00    +0.000 N 
ATOM      2  C   UNL     1       0.248  10.144  18.600  0.00  0.00    +0.000 C 
ATOM      3  C   UNL     1      -0.036  11.508  19.216  0.00  0.00    +0.000 C 
ATOM      4  N   UNL     1      -0.144  11.205  20.663  0.00  0.00    +0.000 N 
ATOM      5  C   UNL     1       0.502   9.966  20.927  0.00  0.00    +0.000 C 
ATOM      6  S   UNL     1       0.805   9.242  22.395  0.00  0.00    +0.000 S 
ENDROOT
BRANCH   1   7
ATOM      7  C   UNL     1       1.827   8.371  19.441  0.00  0.00    +0.000 C 
BRANCH   7   8
ATOM      8  C   UNL     1       2.290   8.282  17.995  0.00  0.00    +0.000 C 
BRANCH   8   9
ATOM      9  C   UNL     1       3.234   7.098  17.802  0.00  0.00    +0.000 C 
BRANCH   9  10
ATOM     10  C   UNL     1       2.902   5.932  18.739  0.00  0.00    +0.000 C 
BRANCH  10  13
ATOM     11  C   UNL     1       6.107   4.763  18.215  0.00  0.00    +0.000 C 
ATOM     12  N   UNL     1       5.300   5.394  19.032  0.00  0.00    +0.000 NA
ATOM     13  C   UNL     1       3.960   4.844  18.678  0.00  0.00    +0.000 C 
ATOM     14  C   UNL     1       4.122   4.266  17.262  0.00  0.00    +0.000 C 
ATOM     15  N   UNL     1       5.523   3.916  17.308  0.00  0.00    +0.000 N 
ATOM     16  H   UNL     1       5.998   3.748  16.430  0.00  0.00    +0.000 HD
BRANCH  11  17
ATOM     17  C   UNL     1       7.582   5.031  18.199  0.00  0.00    +0.000 C 
BRANCH  17  19
ATOM     18  C   UNL     1       7.666   7.453  17.571  0.00  0.00    +0.000 C 
ATOM     19  C   UNL     1       7.896   6.441  18.680  0.00  0.00    +0.000 C 
ENDBRANCH  17  19
ENDBRANCH  11  17
ENDBRANCH  10  13
ENDBRANCH   9  10
ENDBRANCH   8   9
ENDBRANCH   7   8
ENDBRANCH   1   7
BRANCH   3  20
ATOM     20  C   UNL     1       1.133  12.483  18.937  0.00  0.00    +0.000 C 
BRANCH  20  21
ATOM     21  C   UNL     1       0.860  13.933  19.296  0.00  0.00    +0.000 A 
ATOM     22  C   UNL     1      -0.146  14.665  18.654  0.00  0.00    +0.000 A 
ATOM     23  C   UNL     1      -0.387  15.998  18.995  0.00  0.00    +0.000 A 
ATOM     24  C   UNL     1       0.377  16.616  19.983  0.00  0.00    +0.000 A 
ATOM     25  C   UNL     1       1.384  15.904  20.630  0.00  0.00    +0.000 A 
ATOM     26  C   UNL     1       1.624  14.571  20.288  0.00  0.00    +0.000 A 
ENDBRANCH  20  21
ENDBRANCH   3  20
BRANCH   4  27
ATOM     27  C   UNL     1      -1.228  11.799  21.460  0.00  0.00    +0.000 C 
BRANCH  27  28
ATOM     28  C   UNL     1      -2.364  12.468  20.678  0.00  0.00    +0.000 C 
BRANCH  28  29
ATOM     29  C   UNL     1      -2.677  13.894  21.139  0.00  0.00    +0.000 C 
ATOM     30  C   UNL     1      -1.676  14.388  22.215  0.00  0.00    +0.000 C 
ATOM     31  C   UNL     1      -2.592  14.849  23.362  0.00  0.00    +0.000 C 
ATOM     32  C   UNL     1      -3.215  13.612  24.033  0.00  0.00    +0.000 C 
ATOM     33  C   UNL     1      -4.266  13.160  23.010  0.00  0.00    +0.000 C 
ATOM     34  C   UNL     1      -4.046  14.127  21.833  0.00  0.00    +0.000 C 
ATOM     35  C   UNL     1      -3.778  15.431  22.595  0.00  0.00    +0.000 C 
ENDBRANCH  28  29
ENDBRANCH  27  28
ENDBRANCH   4  27
TORSDOF 12
ENDMDL
