MODEL 1
REMARK VINA RESULT:      -7.3      0.000      0.000
REMARK  Name = 
REMARK  15 active torsions:
REMARK  status: ('A' for Active; 'I' for Inactive)
REMARK    1  A    between atoms: C_1  and  C_2
REMARK    2  A    between atoms: C_2  and  C_3
REMARK    3  A    between atoms: C_3  and  O_4
REMARK    4  A    between atoms: O_4  and  C_5
REMARK    5  A    between atoms: C_7  and  C_8
REMARK    6  A    between atoms: C_11  and  O_12
REMARK    7  A    between atoms: O_12  and  C_13
REMARK    8  A    between atoms: C_13  and  C_14
REMARK    9  A    between atoms: C_14  and  N_15
REMARK   10  A    between atoms: N_15  and  C_16
REMARK   11  A    between atoms: C_16  and  C_17
REMARK   12  A    between atoms: C_17  and  O_18
REMARK   13  A    between atoms: C_17  and  C_19
REMARK   14  A    between atoms: C_29  and  C_30
REMARK   15  A    between atoms: C_30  and  O_32
REMARK                            x       y       z     vdW  Elec       q    Type
REMARK                         _______ _______ _______ _____ _____    ______ ____
ROOT
ATOM      1  C   UNL     1       1.067   8.970  20.064  0.00  0.00    +0.000 A 
ATOM      2  C   UNL     1       1.506   7.734  20.552  0.00  0.00    +0.000 A 
ATOM      3  C   UNL     1       2.246   6.865  19.755  0.00  0.00    +0.000 A 
ATOM      4  C   UNL     1       2.548   7.194  18.437  0.00  0.00    +0.000 A 
ATOM      5  C   UNL     1       2.097   8.399  17.913  0.00  0.00    +0.000 A 
ATOM      6  C   UNL     1       1.372   9.280  18.722  0.00  0.00    +0.000 A 
ENDROOT
BRANCH   1   9
ATOM      7  C   UNL     1      -0.830  12.061  21.252  0.00  0.00    +0.000 A 
ATOM      8  C   UNL     1      -0.038  11.201  20.476  0.00  0.00    +0.000 A 
ATOM      9  C   UNL     1       0.366   9.931  20.941  0.00  0.00    +0.000 A 
ATOM     10  C   UNL     1       0.023   9.584  22.255  0.00  0.00    +0.000 A 
ATOM     11  C   UNL     1      -0.807  10.402  23.019  0.00  0.00    +0.000 A 
ATOM     12  C   UNL     1      -1.288  11.606  22.493  0.00  0.00    +0.000 A 
BRANCH  12  13
ATOM     13  C   UNL     1      -2.356  12.264  23.274  0.00  0.00    +0.000 C 
ATOM     14  O   UNL     1      -3.362  11.686  23.646  0.00  0.00    +0.000 OA
BRANCH  13  15
ATOM     15  O   UNL     1      -2.142  13.585  23.454  0.00  0.00    +0.000 OA
ATOM     16  H   UNL     1      -1.388  13.940  22.939  0.00  0.00    +0.000 HD
ENDBRANCH  13  15
ENDBRANCH  12  13
BRANCH   7  17
ATOM     17  O   UNL     1      -1.142  13.249  20.644  0.00  0.00    +0.000 OA
BRANCH  17  18
ATOM     18  C   UNL     1      -0.056  14.156  20.401  0.00  0.00    +0.000 C 
BRANCH  18  20
ATOM     19  C   UNL     1       0.659  15.952  18.826  0.00  0.00    +0.000 C 
ATOM     20  C   UNL     1      -0.039  14.605  18.945  0.00  0.00    +0.000 C 
ENDBRANCH  18  20
ENDBRANCH  17  18
ENDBRANCH   7  17
ENDBRANCH   1   9
BRANCH   4  21
ATOM     21  O   UNL     1       3.278   6.413  17.589  0.00  0.00    +0.000 OA
BRANCH  21  22
ATOM     22  C   UNL     1       4.550   6.957  17.215  0.00  0.00    +0.000 C 
BRANCH  22  23
ATOM     23  C   UNL     1       5.656   6.185  17.906  0.00  0.00    +0.000 C 
BRANCH  23  24
ATOM     24  N   UNL     1       5.775   4.806  17.422  0.00  0.00    +0.000 NA
ATOM     25  H   UNL     1       6.743   4.597  17.190  0.00  0.00    +0.000 HD
BRANCH  24  26
ATOM     26  C   UNL     1       5.272   3.833  18.403  0.00  0.00    +0.000 C 
BRANCH  26  27
ATOM     27  C   UNL     1       3.982   3.067  17.993  0.00  0.00    +0.000 C 
BRANCH  27  28
ATOM     28  C   UNL     1       2.996   2.968  19.131  0.00  0.00    +0.000 A 
ATOM     29  C   UNL     1       1.634   3.191  18.900  0.00  0.00    +0.000 A 
ATOM     30  C   UNL     1       0.733   3.209  19.960  0.00  0.00    +0.000 A 
ATOM     31  C   UNL     1       1.182   3.009  21.264  0.00  0.00    +0.000 A 
ATOM     32  C   UNL     1       2.531   2.767  21.511  0.00  0.00    +0.000 A 
ATOM     33  C   UNL     1       3.432   2.739  20.450  0.00  0.00    +0.000 A 
ENDBRANCH  27  28
BRANCH  27  34
ATOM     34  O   UNL     1       3.258   3.688  16.926  0.00  0.00    +0.000 OA
ATOM     35  H   UNL     1       2.948   4.548  17.247  0.00  0.00    +0.000 HD
ENDBRANCH  27  34
ENDBRANCH  26  27
ENDBRANCH  24  26
ENDBRANCH  23  24
ENDBRANCH  22  23
ENDBRANCH  21  22
ENDBRANCH   4  21
TORSDOF 14
ENDMDL
MODEL 2
REMARK VINA RESULT:      -7.2      3.663      9.435
REMARK  Name = 
REMARK  15 active torsions:
REMARK  status: ('A' for Active; 'I' for Inactive)
REMARK    1  A    between atoms: C_1  and  C_2
REMARK    2  A    between atoms: C_2  and  C_3
REMARK    3  A    between atoms: C_3  and  O_4
REMARK    4  A    between atoms: O_4  and  C_5
REMARK    5  A    between atoms: C_7  and  C_8
REMARK    6  A    between atoms: C_11  and  O_12
REMARK    7  A    between atoms: O_12  and  C_13
REMARK    8  A    between atoms: C_13  and  C_14
REMARK    9  A    between atoms: C_14  and  N_15
REMARK   10  A    between atoms: N_15  and  C_16
REMARK   11  A    between atoms: C_16  and  C_17
REMARK   12  A    between atoms: C_17  and  O_18
REMARK   13  A    between atoms: C_17  and  C_19
REMARK   14  A    between atoms: C_29  and  C_30
REMARK   15  A    between atoms: C_30  and  O_32
REMARK                            x       y       z     vdW  Elec       q    Type
REMARK                         _______ _______ _______ _____ _____    ______ ____
ROOT
ATOM      1  C   UNL     1       1.693   8.667  19.257  0.00  0.00    +0.000 A 
ATOM      2  C   UNL     1       1.765   9.671  18.284  0.00  0.00    +0.000 A 
ATOM      3  C   UNL     1       1.262  10.946  18.524  0.00  0.00    +0.000 A 
ATOM      4  C   UNL     1       0.648  11.250  19.735  0.00  0.00    +0.000 A 
ATOM      5  C   UNL     1       0.530  10.266  20.708  0.00  0.00    +0.000 A 
ATOM      6  C   UNL     1       1.055   8.991  20.473  0.00  0.00    +0.000 A 
ENDROOT
BRANCH   1   9
ATOM      7  C   UNL     1       3.806   5.875  17.740  0.00  0.00    +0.000 A 
ATOM      8  C   UNL     1       3.094   7.075  17.891  0.00  0.00    +0.000 A 
ATOM      9  C   UNL     1       2.313   7.345  19.036  0.00  0.00    +0.000 A 
ATOM     10  C   UNL     1       2.194   6.327  19.992  0.00  0.00    +0.000 A 
ATOM     11  C   UNL     1       2.936   5.152  19.885  0.00  0.00    +0.000 A 
ATOM     12  C   UNL     1       3.792   4.956  18.796  0.00  0.00    +0.000 A 
BRANCH  12  13
ATOM     13  C   UNL     1       4.718   3.810  18.907  0.00  0.00    +0.000 C 
ATOM     14  O   UNL     1       5.833   3.898  19.391  0.00  0.00    +0.000 OA
BRANCH  13  15
ATOM     15  O   UNL     1       4.236   2.683  18.341  0.00  0.00    +0.000 OA
ATOM     16  H   UNL     1       3.299   2.496  18.562  0.00  0.00    +0.000 HD
ENDBRANCH  13  15
ENDBRANCH  12  13
BRANCH   7  17
ATOM     17  O   UNL     1       4.523   5.782  16.577  0.00  0.00    +0.000 OA
BRANCH  17  18
ATOM     18  C   UNL     1       5.830   6.373  16.574  0.00  0.00    +0.000 C 
BRANCH  18  20
ATOM     19  C   UNL     1       6.202   4.154  15.495  0.00  0.00    +0.000 C 
ATOM     20  C   UNL     1       6.880   5.366  16.118  0.00  0.00    +0.000 C 
ENDBRANCH  18  20
ENDBRANCH  17  18
ENDBRANCH   7  17
ENDBRANCH   1   9
BRANCH   4  21
ATOM     21  O   UNL     1       0.140  12.474  20.063  0.00  0.00    +0.000 OA
BRANCH  21  22
ATOM     22  C   UNL     1      -1.138  12.442  20.710  0.00  0.00    +0.000 C 
BRANCH  22  23
ATOM     23  C   UNL     1      -1.781  13.812  20.635  0.00  0.00    +0.000 C 
BRANCH  23  24
ATOM     24  N   UNL     1      -3.192  13.757  20.238  0.00  0.00    +0.000 NA
ATOM     25  H   UNL     1      -3.335  14.282  19.378  0.00  0.00    +0.000 HD
BRANCH  24  26
ATOM     26  C   UNL     1      -3.661  12.375  20.068  0.00  0.00    +0.000 C 
BRANCH  26  27
ATOM     27  C   UNL     1      -4.551  12.113  18.819  0.00  0.00    +0.000 C 
BRANCH  27  28
ATOM     28  C   UNL     1      -3.801  11.383  17.732  0.00  0.00    +0.000 A 
ATOM     29  C   UNL     1      -4.331  11.316  16.438  0.00  0.00    +0.000 A 
ATOM     30  C   UNL     1      -3.702  10.555  15.458  0.00  0.00    +0.000 A 
ATOM     31  C   UNL     1      -2.540   9.848  15.758  0.00  0.00    +0.000 A 
ATOM     32  C   UNL     1      -1.988   9.918  17.036  0.00  0.00    +0.000 A 
ATOM     33  C   UNL     1      -2.611  10.686  18.015  0.00  0.00    +0.000 A 
ENDBRANCH  27  28
BRANCH  27  34
ATOM     34  O   UNL     1      -5.698  11.301  19.090  0.00  0.00    +0.000 OA
ATOM     35  H   UNL     1      -5.470  10.388  18.860  0.00  0.00    +0.000 HD
ENDBRANCH  27  34
ENDBRANCH  26  27
ENDBRANCH  24  26
ENDBRANCH  23  24
ENDBRANCH  22  23
ENDBRANCH  21  22
ENDBRANCH   4  21
TORSDOF 14
ENDMDL
MODEL 3
REMARK VINA RESULT:      -7.2      3.193     10.129
REMARK  Name = 
REMARK  15 active torsions:
REMARK  status: ('A' for Active; 'I' for Inactive)
REMARK    1  A    between atoms: C_1  and  C_2
REMARK    2  A    between atoms: C_2  and  C_3
REMARK    3  A    between atoms: C_3  and  O_4
REMARK    4  A    between atoms: O_4  and  C_5
REMARK    5  A    between atoms: C_7  and  C_8
REMARK    6  A    between atoms: C_11  and  O_12
REMARK    7  A    between atoms: O_12  and  C_13
REMARK    8  A    between atoms: C_13  and  C_14
REMARK    9  A    between atoms: C_14  and  N_15
REMARK   10  A    between atoms: N_15  and  C_16
REMARK   11  A    between atoms: C_16  and  C_17
REMARK   12  A    between atoms: C_17  and  O_18
REMARK   13  A    between atoms: C_17  and  C_19
REMARK   14  A    between atoms: C_29  and  C_30
REMARK   15  A    between atoms: C_30  and  O_32
REMARK                            x       y       z     vdW  Elec       q    Type
REMARK                         _______ _______ _______ _____ _____    ______ ____
ROOT
ATOM      1  C   UNL     1       2.290   7.389  18.945  0.00  0.00    +0.000 A 
ATOM      2  C   UNL     1       1.754   7.795  20.172  0.00  0.00    +0.000 A 
ATOM      3  C   UNL     1       1.117   9.025  20.311  0.00  0.00    +0.000 A 
ATOM      4  C   UNL     1       1.018   9.898  19.231  0.00  0.00    +0.000 A 
ATOM      5  C   UNL     1       1.570   9.538  18.009  0.00  0.00    +0.000 A 
ATOM      6  C   UNL     1       2.192   8.293  17.867  0.00  0.00    +0.000 A 
ENDROOT
BRANCH   1   9
ATOM      7  C   UNL     1       4.753   4.478  19.101  0.00  0.00    +0.000 A 
ATOM      8  C   UNL     1       4.224   5.778  19.117  0.00  0.00    +0.000 A 
ATOM      9  C   UNL     1       2.880   6.045  18.778  0.00  0.00    +0.000 A 
ATOM     10  C   UNL     1       2.099   4.969  18.332  0.00  0.00    +0.000 A 
ATOM     11  C   UNL     1       2.591   3.666  18.361  0.00  0.00    +0.000 A 
ATOM     12  C   UNL     1       3.892   3.414  18.810  0.00  0.00    +0.000 A 
BRANCH  12  13
ATOM     13  C   UNL     1       4.224   1.993  19.047  0.00  0.00    +0.000 C 
ATOM     14  O   UNL     1       3.699   1.076  18.439  0.00  0.00    +0.000 OA
BRANCH  13  15
ATOM     15  O   UNL     1       5.098   1.815  20.059  0.00  0.00    +0.000 OA
ATOM     16  H   UNL     1       4.700   1.909  20.951  0.00  0.00    +0.000 HD
ENDBRANCH  13  15
ENDBRANCH  12  13
BRANCH   7  17
ATOM     17  O   UNL     1       6.070   4.396  19.469  0.00  0.00    +0.000 OA
BRANCH  17  18
ATOM     18  C   UNL     1       6.870   5.571  19.275  0.00  0.00    +0.000 C 
BRANCH  18  20
ATOM     19  C   UNL     1       7.646   4.495  17.162  0.00  0.00    +0.000 C 
ATOM     20  C   UNL     1       7.159   5.791  17.795  0.00  0.00    +0.000 C 
ENDBRANCH  18  20
ENDBRANCH  17  18
ENDBRANCH   7  17
ENDBRANCH   1   9
BRANCH   4  21
ATOM     21  O   UNL     1       0.400  11.114  19.270  0.00  0.00    +0.000 OA
BRANCH  21  22
ATOM     22  C   UNL     1      -0.932  11.096  19.797  0.00  0.00    +0.000 C 
BRANCH  22  23
ATOM     23  C   UNL     1      -1.928  10.995  18.659  0.00  0.00    +0.000 C 
BRANCH  23  24
ATOM     24  N   UNL     1      -2.835  12.145  18.593  0.00  0.00    +0.000 NA
ATOM     25  H   UNL     1      -3.746  11.855  18.245  0.00  0.00    +0.000 HD
BRANCH  24  26
ATOM     26  C   UNL     1      -2.980  12.806  19.897  0.00  0.00    +0.000 C 
BRANCH  26  27
ATOM     27  C   UNL     1      -4.441  13.012  20.390  0.00  0.00    +0.000 C 
BRANCH  27  28
ATOM     28  C   UNL     1      -4.554  12.899  21.891  0.00  0.00    +0.000 A 
ATOM     29  C   UNL     1      -3.429  12.569  22.655  0.00  0.00    +0.000 A 
ATOM     30  C   UNL     1      -3.546  12.356  24.025  0.00  0.00    +0.000 A 
ATOM     31  C   UNL     1      -4.787  12.465  24.647  0.00  0.00    +0.000 A 
ATOM     32  C   UNL     1      -5.915  12.810  23.905  0.00  0.00    +0.000 A 
ATOM     33  C   UNL     1      -5.798  13.033  22.536  0.00  0.00    +0.000 A 
ENDBRANCH  27  28
BRANCH  27  34
ATOM     34  O   UNL     1      -4.980  14.299  20.072  0.00  0.00    +0.000 OA
ATOM     35  H   UNL     1      -5.017  14.811  20.894  0.00  0.00    +0.000 HD
ENDBRANCH  27  34
ENDBRANCH  26  27
ENDBRANCH  24  26
ENDBRANCH  23  24
ENDBRANCH  22  23
ENDBRANCH  21  22
ENDBRANCH   4  21
TORSDOF 14
ENDMDL
MODEL 4
REMARK VINA RESULT:      -7.2      3.466      9.335
REMARK  Name = 
REMARK  15 active torsions:
REMARK  status: ('A' for Active; 'I' for Inactive)
REMARK    1  A    between atoms: C_1  and  C_2
REMARK    2  A    between atoms: C_2  and  C_3
REMARK    3  A    between atoms: C_3  and  O_4
REMARK    4  A    between atoms: O_4  and  C_5
REMARK    5  A    between atoms: C_7  and  C_8
REMARK    6  A    between atoms: C_11  and  O_12
REMARK    7  A    between atoms: O_12  and  C_13
REMARK    8  A    between atoms: C_13  and  C_14
REMARK    9  A    between atoms: C_14  and  N_15
REMARK   10  A    between atoms: N_15  and  C_16
REMARK   11  A    between atoms: C_16  and  C_17
REMARK   12  A    between atoms: C_17  and  O_18
REMARK   13  A    between atoms: C_17  and  C_19
REMARK   14  A    between atoms: C_29  and  C_30
REMARK   15  A    between atoms: C_30  and  O_32
REMARK                            x       y       z     vdW  Elec       q    Type
REMARK                         _______ _______ _______ _____ _____    ______ ____
ROOT
ATOM      1  C   UNL     1       1.828   8.301  19.159  0.00  0.00    +0.000 A 
ATOM      2  C   UNL     1       2.069   9.188  18.104  0.00  0.00    +0.000 A 
ATOM      3  C   UNL     1       1.680  10.523  18.180  0.00  0.00    +0.000 A 
ATOM      4  C   UNL     1       1.016  11.005  19.304  0.00  0.00    +0.000 A 
ATOM      5  C   UNL     1       0.733  10.141  20.354  0.00  0.00    +0.000 A 
ATOM      6  C   UNL     1       1.142   8.805  20.284  0.00  0.00    +0.000 A 
ENDROOT
BRANCH   1   9
ATOM      7  C   UNL     1       3.625   5.142  17.995  0.00  0.00    +0.000 A 
ATOM      8  C   UNL     1       3.021   6.409  17.992  0.00  0.00    +0.000 A 
ATOM      9  C   UNL     1       2.326   6.911  19.114  0.00  0.00    +0.000 A 
ATOM     10  C   UNL     1       2.177   6.058  20.217  0.00  0.00    +0.000 A 
ATOM     11  C   UNL     1       2.814   4.820  20.257  0.00  0.00    +0.000 A 
ATOM     12  C   UNL     1       3.593   4.392  19.177  0.00  0.00    +0.000 A 
BRANCH  12  13
ATOM     13  C   UNL     1       4.427   3.197  19.422  0.00  0.00    +0.000 C 
ATOM     14  O   UNL     1       4.017   2.206  20.000  0.00  0.00    +0.000 OA
BRANCH  13  15
ATOM     15  O   UNL     1       5.706   3.353  19.018  0.00  0.00    +0.000 OA
ATOM     16  H   UNL     1       6.225   3.976  19.569  0.00  0.00    +0.000 HD
ENDBRANCH  13  15
ENDBRANCH  12  13
BRANCH   7  17
ATOM     17  O   UNL     1       4.269   4.816  16.831  0.00  0.00    +0.000 OA
BRANCH  17  18
ATOM     18  C   UNL     1       5.144   5.810  16.277  0.00  0.00    +0.000 C 
BRANCH  18  20
ATOM     19  C   UNL     1       6.104   3.808  15.140  0.00  0.00    +0.000 C 
ATOM     20  C   UNL     1       5.815   5.296  15.008  0.00  0.00    +0.000 C 
ENDBRANCH  18  20
ENDBRANCH  17  18
ENDBRANCH   7  17
ENDBRANCH   1   9
BRANCH   4  21
ATOM     21  O   UNL     1       0.612  12.298  19.473  0.00  0.00    +0.000 OA
BRANCH  21  22
ATOM     22  C   UNL     1       0.784  12.814  20.799  0.00  0.00    +0.000 C 
BRANCH  22  23
ATOM     23  C   UNL     1      -0.568  13.171  21.385  0.00  0.00    +0.000 C 
BRANCH  23  24
ATOM     24  N   UNL     1      -1.598  13.368  20.361  0.00  0.00    +0.000 NA
ATOM     25  H   UNL     1      -1.170  13.433  19.440  0.00  0.00    +0.000 HD
BRANCH  24  26
ATOM     26  C   UNL     1      -2.600  12.292  20.375  0.00  0.00    +0.000 C 
BRANCH  26  27
ATOM     27  C   UNL     1      -3.701  12.382  19.280  0.00  0.00    +0.000 C 
BRANCH  27  28
ATOM     28  C   UNL     1      -3.416  11.468  18.114  0.00  0.00    +0.000 A 
ATOM     29  C   UNL     1      -2.296  10.630  18.137  0.00  0.00    +0.000 A 
ATOM     30  C   UNL     1      -1.965   9.865  17.024  0.00  0.00    +0.000 A 
ATOM     31  C   UNL     1      -2.745   9.931  15.872  0.00  0.00    +0.000 A 
ATOM     32  C   UNL     1      -3.874  10.746  15.836  0.00  0.00    +0.000 A 
ATOM     33  C   UNL     1      -4.212  11.504  16.953  0.00  0.00    +0.000 A 
ENDBRANCH  27  28
BRANCH  27  34
ATOM     34  O   UNL     1      -5.002  12.004  19.741  0.00  0.00    +0.000 OA
ATOM     35  H   UNL     1      -5.399  12.780  20.163  0.00  0.00    +0.000 HD
ENDBRANCH  27  34
ENDBRANCH  26  27
ENDBRANCH  24  26
ENDBRANCH  23  24
ENDBRANCH  22  23
ENDBRANCH  21  22
ENDBRANCH   4  21
TORSDOF 14
ENDMDL
MODEL 5
REMARK VINA RESULT:      -7.1      1.818      2.530
REMARK  Name = 
REMARK  15 active torsions:
REMARK  status: ('A' for Active; 'I' for Inactive)
REMARK    1  A    between atoms: C_1  and  C_2
REMARK    2  A    between atoms: C_2  and  C_3
REMARK    3  A    between atoms: C_3  and  O_4
REMARK    4  A    between atoms: O_4  and  C_5
REMARK    5  A    between atoms: C_7  and  C_8
REMARK    6  A    between atoms: C_11  and  O_12
REMARK    7  A    between atoms: O_12  and  C_13
REMARK    8  A    between atoms: C_13  and  C_14
REMARK    9  A    between atoms: C_14  and  N_15
REMARK   10  A    between atoms: N_15  and  C_16
REMARK   11  A    between atoms: C_16  and  C_17
REMARK   12  A    between atoms: C_17  and  O_18
REMARK   13  A    between atoms: C_17  and  C_19
REMARK   14  A    between atoms: C_29  and  C_30
REMARK   15  A    between atoms: C_30  and  O_32
REMARK                            x       y       z     vdW  Elec       q    Type
REMARK                         _______ _______ _______ _____ _____    ______ ____
ROOT
ATOM      1  C   UNL     1       0.730   9.618  20.071  0.00  0.00    +0.000 A 
ATOM      2  C   UNL     1       1.064   9.839  18.730  0.00  0.00    +0.000 A 
ATOM      3  C   UNL     1       1.816   8.914  18.010  0.00  0.00    +0.000 A 
ATOM      4  C   UNL     1       2.278   7.751  18.617  0.00  0.00    +0.000 A 
ATOM      5  C   UNL     1       1.991   7.518  19.956  0.00  0.00    +0.000 A 
ATOM      6  C   UNL     1       1.219   8.440  20.672  0.00  0.00    +0.000 A 
ENDROOT
BRANCH   1   9
ATOM      7  C   UNL     1      -2.024  12.150  20.823  0.00  0.00    +0.000 A 
ATOM      8  C   UNL     1      -1.088  11.367  20.131  0.00  0.00    +0.000 A 
ATOM      9  C   UNL     1      -0.148  10.555  20.802  0.00  0.00    +0.000 A 
ATOM     10  C   UNL     1      -0.116  10.623  22.202  0.00  0.00    +0.000 A 
ATOM     11  C   UNL     1      -1.072  11.353  22.905  0.00  0.00    +0.000 A 
ATOM     12  C   UNL     1      -2.065  12.059  22.219  0.00  0.00    +0.000 A 
BRANCH  12  13
ATOM     13  C   UNL     1      -3.171  12.580  23.050  0.00  0.00    +0.000 C 
ATOM     14  O   UNL     1      -3.711  11.927  23.925  0.00  0.00    +0.000 OA
BRANCH  13  15
ATOM     15  O   UNL     1      -3.575  13.814  22.681  0.00  0.00    +0.000 OA
ATOM     16  H   UNL     1      -3.257  14.089  21.795  0.00  0.00    +0.000 HD
ENDBRANCH  13  15
ENDBRANCH  12  13
BRANCH   7  17
ATOM     17  O   UNL     1      -2.870  12.867  20.019  0.00  0.00    +0.000 OA
BRANCH  17  18
ATOM     18  C   UNL     1      -3.765  12.113  19.188  0.00  0.00    +0.000 C 
BRANCH  18  20
ATOM     19  C   UNL     1      -6.136  11.462  18.767  0.00  0.00    +0.000 C 
ATOM     20  C   UNL     1      -5.202  12.242  19.681  0.00  0.00    +0.000 C 
ENDBRANCH  18  20
ENDBRANCH  17  18
ENDBRANCH   7  17
ENDBRANCH   1   9
BRANCH   4  21
ATOM     21  O   UNL     1       3.006   6.783  17.989  0.00  0.00    +0.000 OA
BRANCH  21  22
ATOM     22  C   UNL     1       4.239   7.235  17.416  0.00  0.00    +0.000 C 
BRANCH  22  23
ATOM     23  C   UNL     1       4.802   6.160  16.507  0.00  0.00    +0.000 C 
BRANCH  23  24
ATOM     24  N   UNL     1       5.740   5.267  17.194  0.00  0.00    +0.000 NA
ATOM     25  H   UNL     1       6.117   5.723  18.022  0.00  0.00    +0.000 HD
BRANCH  24  26
ATOM     26  C   UNL     1       5.113   3.990  17.564  0.00  0.00    +0.000 C 
BRANCH  26  27
ATOM     27  C   UNL     1       4.751   3.827  19.068  0.00  0.00    +0.000 C 
BRANCH  27  28
ATOM     28  C   UNL     1       3.261   3.734  19.284  0.00  0.00    +0.000 A 
ATOM     29  C   UNL     1       2.724   3.935  20.562  0.00  0.00    +0.000 A 
ATOM     30  C   UNL     1       1.366   3.745  20.793  0.00  0.00    +0.000 A 
ATOM     31  C   UNL     1       0.527   3.349  19.754  0.00  0.00    +0.000 A 
ATOM     32  C   UNL     1       1.040   3.162  18.472  0.00  0.00    +0.000 A 
ATOM     33  C   UNL     1       2.397   3.361  18.237  0.00  0.00    +0.000 A 
ENDBRANCH  27  28
BRANCH  27  34
ATOM     34  O   UNL     1       5.288   2.642  19.664  0.00  0.00    +0.000 OA
ATOM     35  H   UNL     1       4.552   2.028  19.807  0.00  0.00    +0.000 HD
ENDBRANCH  27  34
ENDBRANCH  26  27
ENDBRANCH  24  26
ENDBRANCH  23  24
ENDBRANCH  22  23
ENDBRANCH  21  22
ENDBRANCH   4  21
TORSDOF 14
ENDMDL
MODEL 6
REMARK VINA RESULT:      -7.1      2.840      9.694
REMARK  Name = 
REMARK  15 active torsions:
REMARK  status: ('A' for Active; 'I' for Inactive)
REMARK    1  A    between atoms: C_1  and  C_2
REMARK    2  A    between atoms: C_2  and  C_3
REMARK    3  A    between atoms: C_3  and  O_4
REMARK    4  A    between atoms: O_4  and  C_5
REMARK    5  A    between atoms: C_7  and  C_8
REMARK    6  A    between atoms: C_11  and  O_12
REMARK    7  A    between atoms: O_12  and  C_13
REMARK    8  A    between atoms: C_13  and  C_14
REMARK    9  A    between atoms: C_14  and  N_15
REMARK   10  A    between atoms: N_15  and  C_16
REMARK   11  A    between atoms: C_16  and  C_17
REMARK   12  A    between atoms: C_17  and  O_18
REMARK   13  A    between atoms: C_17  and  C_19
REMARK   14  A    between atoms: C_29  and  C_30
REMARK   15  A    between atoms: C_30  and  O_32
REMARK                            x       y       z     vdW  Elec       q    Type
REMARK                         _______ _______ _______ _____ _____    ______ ____
ROOT
ATOM      1  C   UNL     1       1.951   7.408  19.131  0.00  0.00    +0.000 A 
ATOM      2  C   UNL     1       2.096   8.186  17.977  0.00  0.00    +0.000 A 
ATOM      3  C   UNL     1       1.790   9.544  17.978  0.00  0.00    +0.000 A 
ATOM      4  C   UNL     1       1.305  10.160  19.128  0.00  0.00    +0.000 A 
ATOM      5  C   UNL     1       1.118   9.407  20.280  0.00  0.00    +0.000 A 
ATOM      6  C   UNL     1       1.446   8.047  20.282  0.00  0.00    +0.000 A 
ENDROOT
BRANCH   1   9
ATOM      7  C   UNL     1       3.511   4.084  18.091  0.00  0.00    +0.000 A 
ATOM      8  C   UNL     1       2.981   5.382  18.035  0.00  0.00    +0.000 A 
ATOM      9  C   UNL     1       2.368   5.991  19.152  0.00  0.00    +0.000 A 
ATOM     10  C   UNL     1       2.222   5.216  20.311  0.00  0.00    +0.000 A 
ATOM     11  C   UNL     1       2.790   3.947  20.402  0.00  0.00    +0.000 A 
ATOM     12  C   UNL     1       3.492   3.410  19.317  0.00  0.00    +0.000 A 
BRANCH  12  13
ATOM     13  C   UNL     1       4.268   2.185  19.601  0.00  0.00    +0.000 C 
ATOM     14  O   UNL     1       4.993   2.065  20.573  0.00  0.00    +0.000 OA
BRANCH  13  15
ATOM     15  O   UNL     1       4.158   1.252  18.631  0.00  0.00    +0.000 OA
ATOM     16  H   UNL     1       3.233   1.003  18.422  0.00  0.00    +0.000 HD
ENDBRANCH  13  15
ENDBRANCH  12  13
BRANCH   7  17
ATOM     17  O   UNL     1       4.081   3.652  16.923  0.00  0.00    +0.000 OA
BRANCH  17  18
ATOM     18  C   UNL     1       4.878   4.603  16.202  0.00  0.00    +0.000 C 
BRANCH  18  20
ATOM     19  C   UNL     1       6.460   4.279  14.301  0.00  0.00    +0.000 C 
ATOM     20  C   UNL     1       6.204   3.986  15.772  0.00  0.00    +0.000 C 
ENDBRANCH  18  20
ENDBRANCH  17  18
ENDBRANCH   7  17
ENDBRANCH   1   9
BRANCH   4  21
ATOM     21  O   UNL     1       0.993  11.485  19.227  0.00  0.00    +0.000 OA
BRANCH  21  22
ATOM     22  C   UNL     1      -0.269  11.850  18.656  0.00  0.00    +0.000 C 
BRANCH  22  23
ATOM     23  C   UNL     1      -0.314  13.350  18.437  0.00  0.00    +0.000 C 
BRANCH  23  24
ATOM     24  N   UNL     1      -1.008  14.062  19.514  0.00  0.00    +0.000 NA
ATOM     25  H   UNL     1      -1.506  13.402  20.108  0.00  0.00    +0.000 HD
BRANCH  24  26
ATOM     26  C   UNL     1      -0.085  14.870  20.324  0.00  0.00    +0.000 C 
BRANCH  26  27
ATOM     27  C   UNL     1       0.431  14.200  21.629  0.00  0.00    +0.000 C 
BRANCH  27  28
ATOM     28  C   UNL     1      -0.660  13.447  22.349  0.00  0.00    +0.000 A 
ATOM     29  C   UNL     1      -0.626  12.049  22.408  0.00  0.00    +0.000 A 
ATOM     30  C   UNL     1      -1.681  11.341  22.973  0.00  0.00    +0.000 A 
ATOM     31  C   UNL     1      -2.786  12.020  23.484  0.00  0.00    +0.000 A 
ATOM     32  C   UNL     1      -2.829  13.412  23.450  0.00  0.00    +0.000 A 
ATOM     33  C   UNL     1      -1.770  14.122  22.893  0.00  0.00    +0.000 A 
ENDBRANCH  27  28
BRANCH  27  34
ATOM     34  O   UNL     1       1.467  13.238  21.412  0.00  0.00    +0.000 OA
ATOM     35  H   UNL     1       1.354  12.885  20.516  0.00  0.00    +0.000 HD
ENDBRANCH  27  34
ENDBRANCH  26  27
ENDBRANCH  24  26
ENDBRANCH  23  24
ENDBRANCH  22  23
ENDBRANCH  21  22
ENDBRANCH   4  21
TORSDOF 14
ENDMDL
MODEL 7
REMARK VINA RESULT:      -7.1      1.005      1.381
REMARK  Name = 
REMARK  15 active torsions:
REMARK  status: ('A' for Active; 'I' for Inactive)
REMARK    1  A    between atoms: C_1  and  C_2
REMARK    2  A    between atoms: C_2  and  C_3
REMARK    3  A    between atoms: C_3  and  O_4
REMARK    4  A    between atoms: O_4  and  C_5
REMARK    5  A    between atoms: C_7  and  C_8
REMARK    6  A    between atoms: C_11  and  O_12
REMARK    7  A    between atoms: O_12  and  C_13
REMARK    8  A    between atoms: C_13  and  C_14
REMARK    9  A    between atoms: C_14  and  N_15
REMARK   10  A    between atoms: N_15  and  C_16
REMARK   11  A    between atoms: C_16  and  C_17
REMARK   12  A    between atoms: C_17  and  O_18
REMARK   13  A    between atoms: C_17  and  C_19
REMARK   14  A    between atoms: C_29  and  C_30
REMARK   15  A    between atoms: C_30  and  O_32
REMARK                            x       y       z     vdW  Elec       q    Type
REMARK                         _______ _______ _______ _____ _____    ______ ____
ROOT
ATOM      1  C   UNL     1       1.053   9.343  20.153  0.00  0.00    +0.000 A 
ATOM      2  C   UNL     1       1.283   9.659  18.809  0.00  0.00    +0.000 A 
ATOM      3  C   UNL     1       1.937   8.770  17.960  0.00  0.00    +0.000 A 
ATOM      4  C   UNL     1       2.402   7.548  18.436  0.00  0.00    +0.000 A 
ATOM      5  C   UNL     1       2.219   7.221  19.773  0.00  0.00    +0.000 A 
ATOM      6  C   UNL     1       1.544   8.107  20.619  0.00  0.00    +0.000 A 
ENDROOT
BRANCH   1   9
ATOM      7  C   UNL     1      -1.022  12.317  21.343  0.00  0.00    +0.000 A 
ATOM      8  C   UNL     1      -0.162  11.514  20.579  0.00  0.00    +0.000 A 
ATOM      9  C   UNL     1       0.275  10.247  21.025  0.00  0.00    +0.000 A 
ATOM     10  C   UNL     1      -0.109   9.848  22.313  0.00  0.00    +0.000 A 
ATOM     11  C   UNL     1      -1.004  10.608  23.062  0.00  0.00    +0.000 A 
ATOM     12  C   UNL     1      -1.513  11.806  22.549  0.00  0.00    +0.000 A 
BRANCH  12  13
ATOM     13  C   UNL     1      -2.640  12.396  23.301  0.00  0.00    +0.000 C 
ATOM     14  O   UNL     1      -3.504  11.728  23.840  0.00  0.00    +0.000 OA
BRANCH  13  15
ATOM     15  O   UNL     1      -2.660  13.745  23.253  0.00  0.00    +0.000 OA
ATOM     16  H   UNL     1      -3.553  14.126  23.118  0.00  0.00    +0.000 HD
ENDBRANCH  13  15
ENDBRANCH  12  13
BRANCH   7  17
ATOM     17  O   UNL     1      -1.357  13.509  20.756  0.00  0.00    +0.000 OA
BRANCH  17  18
ATOM     18  C   UNL     1      -0.308  14.476  20.612  0.00  0.00    +0.000 C 
BRANCH  18  20
ATOM     19  C   UNL     1      -1.913  16.365  20.332  0.00  0.00    +0.000 C 
ATOM     20  C   UNL     1      -0.744  15.620  19.703  0.00  0.00    +0.000 C 
ENDBRANCH  18  20
ENDBRANCH  17  18
ENDBRANCH   7  17
ENDBRANCH   1   9
BRANCH   4  21
ATOM     21  O   UNL     1       3.039   6.610  17.676  0.00  0.00    +0.000 OA
BRANCH  21  22
ATOM     22  C   UNL     1       4.336   6.996  17.206  0.00  0.00    +0.000 C 
BRANCH  22  23
ATOM     23  C   UNL     1       5.298   5.833  17.353  0.00  0.00    +0.000 C 
BRANCH  23  24
ATOM     24  N   UNL     1       4.993   4.724  16.443  0.00  0.00    +0.000 NA
ATOM     25  H   UNL     1       5.790   4.537  15.840  0.00  0.00    +0.000 HD
BRANCH  24  26
ATOM     26  C   UNL     1       4.615   3.504  17.171  0.00  0.00    +0.000 C 
BRANCH  26  27
ATOM     27  C   UNL     1       4.561   3.631  18.720  0.00  0.00    +0.000 C 
BRANCH  27  28
ATOM     28  C   UNL     1       3.168   3.416  19.258  0.00  0.00    +0.000 A 
ATOM     29  C   UNL     1       2.158   2.936  18.416  0.00  0.00    +0.000 A 
ATOM     30  C   UNL     1       0.848   2.838  18.873  0.00  0.00    +0.000 A 
ATOM     31  C   UNL     1       0.529   3.221  20.174  0.00  0.00    +0.000 A 
ATOM     32  C   UNL     1       1.525   3.684  21.031  0.00  0.00    +0.000 A 
ATOM     33  C   UNL     1       2.838   3.773  20.579  0.00  0.00    +0.000 A 
ENDBRANCH  27  28
BRANCH  27  34
ATOM     34  O   UNL     1       5.377   2.675  19.404  0.00  0.00    +0.000 OA
ATOM     35  H   UNL     1       4.936   2.461  20.240  0.00  0.00    +0.000 HD
ENDBRANCH  27  34
ENDBRANCH  26  27
ENDBRANCH  24  26
ENDBRANCH  23  24
ENDBRANCH  22  23
ENDBRANCH  21  22
ENDBRANCH   4  21
TORSDOF 14
ENDMDL
MODEL 8
REMARK VINA RESULT:      -7.1      3.627      9.978
REMARK  Name = 
REMARK  15 active torsions:
REMARK  status: ('A' for Active; 'I' for Inactive)
REMARK    1  A    between atoms: C_1  and  C_2
REMARK    2  A    between atoms: C_2  and  C_3
REMARK    3  A    between atoms: C_3  and  O_4
REMARK    4  A    between atoms: O_4  and  C_5
REMARK    5  A    between atoms: C_7  and  C_8
REMARK    6  A    between atoms: C_11  and  O_12
REMARK    7  A    between atoms: O_12  and  C_13
REMARK    8  A    between atoms: C_13  and  C_14
REMARK    9  A    between atoms: C_14  and  N_15
REMARK   10  A    between atoms: N_15  and  C_16
REMARK   11  A    between atoms: C_16  and  C_17
REMARK   12  A    between atoms: C_17  and  O_18
REMARK   13  A    between atoms: C_17  and  C_19
REMARK   14  A    between atoms: C_29  and  C_30
REMARK   15  A    between atoms: C_30  and  O_32
REMARK                            x       y       z     vdW  Elec       q    Type
REMARK                         _______ _______ _______ _____ _____    ______ ____
ROOT
ATOM      1  C   UNL     1       2.282   7.458  18.901  0.00  0.00    +0.000 A 
ATOM      2  C   UNL     1       2.359   8.316  17.798  0.00  0.00    +0.000 A 
ATOM      3  C   UNL     1       1.876   9.621  17.862  0.00  0.00    +0.000 A 
ATOM      4  C   UNL     1       1.278  10.099  19.024  0.00  0.00    +0.000 A 
ATOM      5  C   UNL     1       1.157   9.261  20.125  0.00  0.00    +0.000 A 
ATOM      6  C   UNL     1       1.661   7.957  20.065  0.00  0.00    +0.000 A 
ENDROOT
BRANCH   1   9
ATOM      7  C   UNL     1       4.819   4.621  19.172  0.00  0.00    +0.000 A 
ATOM      8  C   UNL     1       4.263   5.905  19.063  0.00  0.00    +0.000 A 
ATOM      9  C   UNL     1       2.881   6.109  18.860  0.00  0.00    +0.000 A 
ATOM     10  C   UNL     1       2.080   4.973  18.677  0.00  0.00    +0.000 A 
ATOM     11  C   UNL     1       2.606   3.692  18.834  0.00  0.00    +0.000 A 
ATOM     12  C   UNL     1       3.958   3.519  19.149  0.00  0.00    +0.000 A 
BRANCH  12  13
ATOM     13  C   UNL     1       4.352   2.151  19.547  0.00  0.00    +0.000 C 
ATOM     14  O   UNL     1       4.955   1.905  20.577  0.00  0.00    +0.000 OA
BRANCH  13  15
ATOM     15  O   UNL     1       4.054   1.222  18.615  0.00  0.00    +0.000 OA
ATOM     16  H   UNL     1       4.827   0.703  18.307  0.00  0.00    +0.000 HD
ENDBRANCH  13  15
ENDBRANCH  12  13
BRANCH   7  17
ATOM     17  O   UNL     1       6.173   4.604  19.380  0.00  0.00    +0.000 OA
BRANCH  17  18
ATOM     18  C   UNL     1       7.003   4.969  18.269  0.00  0.00    +0.000 C 
BRANCH  18  20
ATOM     19  C   UNL     1       7.483   7.318  17.580  0.00  0.00    +0.000 C 
ATOM     20  C   UNL     1       7.812   6.222  18.584  0.00  0.00    +0.000 C 
ENDBRANCH  18  20
ENDBRANCH  17  18
ENDBRANCH   7  17
ENDBRANCH   1   9
BRANCH   4  21
ATOM     21  O   UNL     1       0.792  11.364  19.184  0.00  0.00    +0.000 OA
BRANCH  21  22
ATOM     22  C   UNL     1      -0.475  11.441  19.850  0.00  0.00    +0.000 C 
BRANCH  22  23
ATOM     23  C   UNL     1      -1.140  12.765  19.526  0.00  0.00    +0.000 C 
BRANCH  23  24
ATOM     24  N   UNL     1      -1.880  13.322  20.662  0.00  0.00    +0.000 NA
ATOM     25  H   UNL     1      -2.376  14.164  20.379  0.00  0.00    +0.000 HD
BRANCH  24  26
ATOM     26  C   UNL     1      -2.824  12.351  21.233  0.00  0.00    +0.000 C 
BRANCH  26  27
ATOM     27  C   UNL     1      -4.292  12.842  21.380  0.00  0.00    +0.000 C 
BRANCH  27  28
ATOM     28  C   UNL     1      -5.195  12.252  20.325  0.00  0.00    +0.000 A 
ATOM     29  C   UNL     1      -6.480  11.815  20.667  0.00  0.00    +0.000 A 
ATOM     30  C   UNL     1      -7.279  11.171  19.728  0.00  0.00    +0.000 A 
ATOM     31  C   UNL     1      -6.804  10.951  18.437  0.00  0.00    +0.000 A 
ATOM     32  C   UNL     1      -5.534  11.395  18.074  0.00  0.00    +0.000 A 
ATOM     33  C   UNL     1      -4.737  12.048  19.010  0.00  0.00    +0.000 A 
ENDBRANCH  27  28
BRANCH  27  34
ATOM     34  O   UNL     1      -4.895  12.488  22.628  0.00  0.00    +0.000 OA
ATOM     35  H   UNL     1      -5.061  13.309  23.116  0.00  0.00    +0.000 HD
ENDBRANCH  27  34
ENDBRANCH  26  27
ENDBRANCH  24  26
ENDBRANCH  23  24
ENDBRANCH  22  23
ENDBRANCH  21  22
ENDBRANCH   4  21
TORSDOF 14
ENDMDL
MODEL 9
REMARK VINA RESULT:      -7.1      3.572      9.944
REMARK  Name = 
REMARK  15 active torsions:
REMARK  status: ('A' for Active; 'I' for Inactive)
REMARK    1  A    between atoms: C_1  and  C_2
REMARK    2  A    between atoms: C_2  and  C_3
REMARK    3  A    between atoms: C_3  and  O_4
REMARK    4  A    between atoms: O_4  and  C_5
REMARK    5  A    between atoms: C_7  and  C_8
REMARK    6  A    between atoms: C_11  and  O_12
REMARK    7  A    between atoms: O_12  and  C_13
REMARK    8  A    between atoms: C_13  and  C_14
REMARK    9  A    between atoms: C_14  and  N_15
REMARK   10  A    between atoms: N_15  and  C_16
REMARK   11  A    between atoms: C_16  and  C_17
REMARK   12  A    between atoms: C_17  and  O_18
REMARK   13  A    between atoms: C_17  and  C_19
REMARK   14  A    between atoms: C_29  and  C_30
REMARK   15  A    between atoms: C_30  and  O_32
REMARK                            x       y       z     vdW  Elec       q    Type
REMARK                         _______ _______ _______ _____ _____    ______ ____
ROOT
ATOM      1  C   UNL     1       2.327   7.932  18.568  0.00  0.00    +0.000 A 
ATOM      2  C   UNL     1       1.893   9.016  17.796  0.00  0.00    +0.000 A 
ATOM      3  C   UNL     1       1.085  10.011  18.338  0.00  0.00    +0.000 A 
ATOM      4  C   UNL     1       0.666   9.940  19.663  0.00  0.00    +0.000 A 
ATOM      5  C   UNL     1       1.052   8.859  20.445  0.00  0.00    +0.000 A 
ATOM      6  C   UNL     1       1.880   7.870  19.904  0.00  0.00    +0.000 A 
ENDROOT
BRANCH   1   9
ATOM      7  C   UNL     1       3.715   4.643  17.217  0.00  0.00    +0.000 A 
ATOM      8  C   UNL     1       2.893   5.573  17.872  0.00  0.00    +0.000 A 
ATOM      9  C   UNL     1       3.261   6.929  18.016  0.00  0.00    +0.000 A 
ATOM     10  C   UNL     1       4.531   7.306  17.559  0.00  0.00    +0.000 A 
ATOM     11  C   UNL     1       5.337   6.410  16.859  0.00  0.00    +0.000 A 
ATOM     12  C   UNL     1       4.900   5.101  16.630  0.00  0.00    +0.000 A 
BRANCH  12  13
ATOM     13  C   UNL     1       5.702   4.318  15.667  0.00  0.00    +0.000 C 
ATOM     14  O   UNL     1       6.848   3.966  15.885  0.00  0.00    +0.000 OA
BRANCH  13  15
ATOM     15  O   UNL     1       5.067   4.110  14.494  0.00  0.00    +0.000 OA
ATOM     16  H   UNL     1       5.642   3.746  13.788  0.00  0.00    +0.000 HD
ENDBRANCH  13  15
ENDBRANCH  12  13
BRANCH   7  17
ATOM     17  O   UNL     1       3.201   3.375  17.154  0.00  0.00    +0.000 OA
BRANCH  17  18
ATOM     18  C   UNL     1       3.714   2.422  18.097  0.00  0.00    +0.000 C 
BRANCH  18  20
ATOM     19  C   UNL     1       1.264   2.328  18.557  0.00  0.00    +0.000 C 
ATOM     20  C   UNL     1       2.649   2.043  19.119  0.00  0.00    +0.000 C 
ENDBRANCH  18  20
ENDBRANCH  17  18
ENDBRANCH   7  17
ENDBRANCH   1   9
BRANCH   4  21
ATOM     21  O   UNL     1      -0.112  10.874  20.283  0.00  0.00    +0.000 OA
BRANCH  21  22
ATOM     22  C   UNL     1      -0.195  12.134  19.605  0.00  0.00    +0.000 C 
BRANCH  22  23
ATOM     23  C   UNL     1      -1.104  13.069  20.379  0.00  0.00    +0.000 C 
BRANCH  23  24
ATOM     24  N   UNL     1      -2.350  13.368  19.668  0.00  0.00    +0.000 NA
ATOM     25  H   UNL     1      -2.186  13.390  18.664  0.00  0.00    +0.000 HD
BRANCH  24  26
ATOM     26  C   UNL     1      -3.409  12.399  19.983  0.00  0.00    +0.000 C 
BRANCH  26  27
ATOM     27  C   UNL     1      -4.449  12.143  18.855  0.00  0.00    +0.000 C 
BRANCH  27  28
ATOM     28  C   UNL     1      -3.879  11.299  17.741  0.00  0.00    +0.000 A 
ATOM     29  C   UNL     1      -2.840  10.399  18.005  0.00  0.00    +0.000 A 
ATOM     30  C   UNL     1      -2.236   9.697  16.967  0.00  0.00    +0.000 A 
ATOM     31  C   UNL     1      -2.659   9.887  15.653  0.00  0.00    +0.000 A 
ATOM     32  C   UNL     1      -3.704  10.765  15.374  0.00  0.00    +0.000 A 
ATOM     33  C   UNL     1      -4.316  11.461  16.413  0.00  0.00    +0.000 A 
ENDBRANCH  27  28
BRANCH  27  34
ATOM     34  O   UNL     1      -5.616  11.442  19.295  0.00  0.00    +0.000 OA
ATOM     35  H   UNL     1      -6.386  11.984  19.064  0.00  0.00    +0.000 HD
ENDBRANCH  27  34
ENDBRANCH  26  27
ENDBRANCH  24  26
ENDBRANCH  23  24
ENDBRANCH  22  23
ENDBRANCH  21  22
ENDBRANCH   4  21
TORSDOF 14
ENDMDL
