MODEL 1
REMARK VINA RESULT:      -8.4      0.000      0.000
REMARK  Name = 
REMARK  3 active torsions:
REMARK  status: ('A' for Active; 'I' for Inactive)
REMARK    1  A    between atoms: N_1  and  C_2
REMARK    2  A    between atoms: C_3  and  C_4
REMARK    3  A    between atoms: N_6  and  C_7
REMARK                            x       y       z     vdW  Elec       q    Type
REMARK                         _______ _______ _______ _____ _____    ______ ____
ROOT
ATOM      1  C   UNL     1       1.046  10.042  19.045  0.00  0.00    +0.000 A 
ATOM      2  C   UNL     1       1.402   8.828  19.603  0.00  0.00    +0.000 A 
ATOM      3  S   UNL     1       0.785   8.680  21.197  0.00  0.00    +0.000 S 
ATOM      4  C   UNL     1       0.158  10.258  21.176  0.00  0.00    +0.000 A 
ATOM      5  N   UNL     1      -0.443  10.772  22.269  0.00  0.00    +0.000 NA
ATOM      6  C   UNL     1      -0.857  12.055  22.142  0.00  0.00    +0.000 A 
ATOM      7  C   UNL     1      -0.702  12.810  20.981  0.00  0.00    +0.000 A 
ATOM      8  C   UNL     1      -0.118  12.225  19.856  0.00  0.00    +0.000 A 
ATOM      9  C   UNL     1       0.354  10.898  19.958  0.00  0.00    +0.000 A 
ATOM     10  C   UNL     1      -1.108  14.235  20.937  0.00  0.00    +0.000 C 
ATOM     11  O   UNL     1      -1.042  14.868  19.890  0.00  0.00    +0.000 OA
ATOM     12  C   UNL     1      -1.526  14.879  22.239  0.00  0.00    +0.000 C 
ATOM     13  C   UNL     1      -2.300  13.894  23.096  0.00  0.00    +0.000 C 
ATOM     14  C   UNL     1      -1.454  12.660  23.388  0.00  0.00    +0.000 C 
ENDROOT
BRANCH   2  15
ATOM     15  C   UNL     1       2.224   7.788  19.001  0.00  0.00    +0.000 C 
ATOM     16  O   UNL     1       2.614   7.855  17.835  0.00  0.00    +0.000 OA
ATOM     17  N   UNL     1       2.483   6.693  19.809  0.00  0.00    +0.000 N 
ATOM     18  H   UNL     1       1.915   6.604  20.642  0.00  0.00    +0.000 HD
BRANCH  17  19
ATOM     19  C   UNL     1       3.345   5.623  19.483  0.00  0.00    +0.000 A 
ATOM     20  C   UNL     1       4.721   5.826  19.408  0.00  0.00    +0.000 A 
ATOM     21  C   UNL     1       5.531   4.726  19.221  0.00  0.00    +0.000 A 
ATOM     22  N   UNL     1       5.067   3.464  19.110  0.00  0.00    +0.000 NA
ATOM     23  C   UNL     1       3.739   3.270  19.150  0.00  0.00    +0.000 A 
ATOM     24  C   UNL     1       3.253   1.976  19.012  0.00  0.00    +0.000 A 
ATOM     25  C   UNL     1       1.884   1.697  18.991  0.00  0.00    +0.000 A 
ATOM     26  C   UNL     1       0.968   2.733  19.090  0.00  0.00    +0.000 A 
ATOM     27  C   UNL     1       1.428   4.037  19.253  0.00  0.00    +0.000 A 
ATOM     28  C   UNL     1       2.814   4.324  19.317  0.00  0.00    +0.000 A 
ENDBRANCH  17  19
ENDBRANCH   2  15
BRANCH   1  29
ATOM     29  N   UNL     1       1.349  10.391  17.776  0.00  0.00    +0.000 N 
ATOM     30  H   UNL     1       2.046  11.114  17.580  0.00  0.00    +0.000 HD
ATOM     31  H   UNL     1       0.839  10.075  16.958  0.00  0.00    +0.000 HD
ENDBRANCH   1  29
TORSDOF 3
ENDMDL
MODEL 2
REMARK VINA RESULT:      -8.2      1.598      1.646
REMARK  Name = 
REMARK  3 active torsions:
REMARK  status: ('A' for Active; 'I' for Inactive)
REMARK    1  A    between atoms: N_1  and  C_2
REMARK    2  A    between atoms: C_3  and  C_4
REMARK    3  A    between atoms: N_6  and  C_7
REMARK                            x       y       z     vdW  Elec       q    Type
REMARK                         _______ _______ _______ _____ _____    ______ ____
ROOT
ATOM      1  C   UNL     1      -0.193  10.149  18.758  0.00  0.00    +0.000 A 
ATOM      2  C   UNL     1       0.966   9.485  19.115  0.00  0.00    +0.000 A 
ATOM      3  S   UNL     1       1.306   9.696  20.783  0.00  0.00    +0.000 S 
ATOM      4  C   UNL     1      -0.007  10.752  20.990  0.00  0.00    +0.000 A 
ATOM      5  N   UNL     1      -0.234  11.340  22.183  0.00  0.00    +0.000 NA
ATOM      6  C   UNL     1      -1.281  12.198  22.206  0.00  0.00    +0.000 A 
ATOM      7  C   UNL     1      -2.092  12.464  21.104  0.00  0.00    +0.000 A 
ATOM      8  C   UNL     1      -1.852  11.798  19.901  0.00  0.00    +0.000 A 
ATOM      9  C   UNL     1      -0.750  10.919  19.827  0.00  0.00    +0.000 A 
ATOM     10  C   UNL     1      -3.175  13.474  21.180  0.00  0.00    +0.000 C 
ATOM     11  O   UNL     1      -3.932  13.645  20.231  0.00  0.00    +0.000 OA
ATOM     12  C   UNL     1      -3.249  14.321  22.429  0.00  0.00    +0.000 C 
ATOM     13  C   UNL     1      -2.890  13.498  23.653  0.00  0.00    +0.000 C 
ATOM     14  C   UNL     1      -1.487  12.919  23.515  0.00  0.00    +0.000 C 
ENDROOT
BRANCH   2  15
ATOM     15  C   UNL     1       1.852   8.727  18.242  0.00  0.00    +0.000 C 
ATOM     16  O   UNL     1       2.214   9.156  17.146  0.00  0.00    +0.000 OA
ATOM     17  N   UNL     1       2.209   7.471  18.704  0.00  0.00    +0.000 N 
ATOM     18  H   UNL     1       1.665   7.103  19.474  0.00  0.00    +0.000 HD
BRANCH  17  19
ATOM     19  C   UNL     1       3.144   6.610  18.088  0.00  0.00    +0.000 A 
ATOM     20  C   UNL     1       4.365   7.104  17.636  0.00  0.00    +0.000 A 
ATOM     21  C   UNL     1       5.296   6.203  17.166  0.00  0.00    +0.000 A 
ATOM     22  N   UNL     1       5.095   4.870  17.123  0.00  0.00    +0.000 NA
ATOM     23  C   UNL     1       3.907   4.395  17.529  0.00  0.00    +0.000 A 
ATOM     24  C   UNL     1       3.683   3.025  17.465  0.00  0.00    +0.000 A 
ATOM     25  C   UNL     1       2.457   2.457  17.819  0.00  0.00    +0.000 A 
ATOM     26  C   UNL     1       1.414   3.272  18.231  0.00  0.00    +0.000 A 
ATOM     27  C   UNL     1       1.618   4.646  18.328  0.00  0.00    +0.000 A 
ATOM     28  C   UNL     1       2.871   5.226  18.010  0.00  0.00    +0.000 A 
ENDBRANCH  17  19
ENDBRANCH   2  15
BRANCH   1  29
ATOM     29  N   UNL     1      -0.725  10.097  17.518  0.00  0.00    +0.000 N 
ATOM     30  H   UNL     1      -0.460  10.778  16.802  0.00  0.00    +0.000 HD
ATOM     31  H   UNL     1      -1.493   9.491  17.250  0.00  0.00    +0.000 HD
ENDBRANCH   1  29
TORSDOF 3
ENDMDL
MODEL 3
REMARK VINA RESULT:      -7.9      1.291      1.351
REMARK  Name = 
REMARK  3 active torsions:
REMARK  status: ('A' for Active; 'I' for Inactive)
REMARK    1  A    between atoms: N_1  and  C_2
REMARK    2  A    between atoms: C_3  and  C_4
REMARK    3  A    between atoms: N_6  and  C_7
REMARK                            x       y       z     vdW  Elec       q    Type
REMARK                         _______ _______ _______ _____ _____    ______ ____
ROOT
ATOM      1  C   UNL     1       1.449  11.098  18.918  0.00  0.00    +0.000 A 
ATOM      2  C   UNL     1       1.303   9.756  19.217  0.00  0.00    +0.000 A 
ATOM      3  S   UNL     1       0.314   9.540  20.602  0.00  0.00    +0.000 S 
ATOM      4  C   UNL     1       0.188  11.213  20.860  0.00  0.00    +0.000 A 
ATOM      5  N   UNL     1      -0.479  11.694  21.930  0.00  0.00    +0.000 NA
ATOM      6  C   UNL     1      -0.467  13.043  22.050  0.00  0.00    +0.000 A 
ATOM      7  C   UNL     1       0.164  13.898  21.148  0.00  0.00    +0.000 A 
ATOM      8  C   UNL     1       0.802  13.362  20.028  0.00  0.00    +0.000 A 
ATOM      9  C   UNL     1       0.837  11.958  19.883  0.00  0.00    +0.000 A 
ATOM     10  C   UNL     1       0.204  15.361  21.384  0.00  0.00    +0.000 C 
ATOM     11  O   UNL     1       0.691  16.112  20.546  0.00  0.00    +0.000 OA
ATOM     12  C   UNL     1      -0.304  15.865  22.715  0.00  0.00    +0.000 C 
ATOM     13  C   UNL     1      -1.506  15.054  23.168  0.00  0.00    +0.000 C 
ATOM     14  C   UNL     1      -1.140  13.579  23.289  0.00  0.00    +0.000 C 
ENDROOT
BRANCH   2  15
ATOM     15  C   UNL     1       1.909   8.627  18.525  0.00  0.00    +0.000 C 
ATOM     16  O   UNL     1       2.080   8.622  17.305  0.00  0.00    +0.000 OA
ATOM     17  N   UNL     1       2.223   7.540  19.324  0.00  0.00    +0.000 N 
ATOM     18  H   UNL     1       1.815   7.529  20.250  0.00  0.00    +0.000 HD
BRANCH  17  19
ATOM     19  C   UNL     1       2.919   6.387  18.898  0.00  0.00    +0.000 A 
ATOM     20  C   UNL     1       3.983   6.497  18.006  0.00  0.00    +0.000 A 
ATOM     21  C   UNL     1       4.715   5.363  17.725  0.00  0.00    +0.000 A 
ATOM     22  N   UNL     1       4.463   4.154  18.268  0.00  0.00    +0.000 NA
ATOM     23  C   UNL     1       3.419   4.040  19.105  0.00  0.00    +0.000 A 
ATOM     24  C   UNL     1       3.138   2.794  19.650  0.00  0.00    +0.000 A 
ATOM     25  C   UNL     1       2.040   2.580  20.486  0.00  0.00    +0.000 A 
ATOM     26  C   UNL     1       1.182   3.630  20.777  0.00  0.00    +0.000 A 
ATOM     27  C   UNL     1       1.453   4.895  20.264  0.00  0.00    +0.000 A 
ATOM     28  C   UNL     1       2.588   5.129  19.448  0.00  0.00    +0.000 A 
ENDBRANCH  17  19
ENDBRANCH   2  15
BRANCH   1  29
ATOM     29  N   UNL     1       2.127  11.547  17.839  0.00  0.00    +0.000 N 
ATOM     30  H   UNL     1       1.839  11.289  16.891  0.00  0.00    +0.000 HD
ATOM     31  H   UNL     1       3.010  12.044  17.884  0.00  0.00    +0.000 HD
ENDBRANCH   1  29
TORSDOF 3
ENDMDL
MODEL 4
REMARK VINA RESULT:      -7.9      3.117      9.452
REMARK  Name = 
REMARK  3 active torsions:
REMARK  status: ('A' for Active; 'I' for Inactive)
REMARK    1  A    between atoms: N_1  and  C_2
REMARK    2  A    between atoms: C_3  and  C_4
REMARK    3  A    between atoms: N_6  and  C_7
REMARK                            x       y       z     vdW  Elec       q    Type
REMARK                         _______ _______ _______ _____ _____    ______ ____
ROOT
ATOM      1  C   UNL     1       1.165   8.790  20.475  0.00  0.00    +0.000 A 
ATOM      2  C   UNL     1       1.320   9.810  19.555  0.00  0.00    +0.000 A 
ATOM      3  S   UNL     1       1.974   9.217  18.085  0.00  0.00    +0.000 S 
ATOM      4  C   UNL     1       2.154   7.651  18.714  0.00  0.00    +0.000 A 
ATOM      5  N   UNL     1       2.721   6.675  17.975  0.00  0.00    +0.000 NA
ATOM      6  C   UNL     1       2.852   5.484  18.607  0.00  0.00    +0.000 A 
ATOM      7  C   UNL     1       2.431   5.248  19.914  0.00  0.00    +0.000 A 
ATOM      8  C   UNL     1       1.805   6.271  20.628  0.00  0.00    +0.000 A 
ATOM      9  C   UNL     1       1.678   7.537  20.015  0.00  0.00    +0.000 A 
ATOM     10  C   UNL     1       2.676   3.941  20.571  0.00  0.00    +0.000 C 
ATOM     11  O   UNL     1       2.233   3.715  21.690  0.00  0.00    +0.000 OA
ATOM     12  C   UNL     1       3.548   2.948  19.838  0.00  0.00    +0.000 C 
ATOM     13  C   UNL     1       3.288   3.011  18.343  0.00  0.00    +0.000 C 
ATOM     14  C   UNL     1       3.559   4.414  17.813  0.00  0.00    +0.000 C 
ENDROOT
BRANCH   2  15
ATOM     15  C   UNL     1       1.033  11.225  19.750  0.00  0.00    +0.000 C 
ATOM     16  O   UNL     1       0.730  11.685  20.851  0.00  0.00    +0.000 OA
ATOM     17  N   UNL     1       1.064  12.001  18.604  0.00  0.00    +0.000 N 
ATOM     18  H   UNL     1       1.062  11.502  17.722  0.00  0.00    +0.000 HD
BRANCH  17  19
ATOM     19  C   UNL     1       0.933  13.406  18.565  0.00  0.00    +0.000 A 
ATOM     20  C   UNL     1      -0.319  14.000  18.695  0.00  0.00    +0.000 A 
ATOM     21  C   UNL     1      -0.381  15.375  18.786  0.00  0.00    +0.000 A 
ATOM     22  N   UNL     1       0.704  16.177  18.762  0.00  0.00    +0.000 NA
ATOM     23  C   UNL     1       1.910  15.608  18.605  0.00  0.00    +0.000 A 
ATOM     24  C   UNL     1       3.029  16.429  18.555  0.00  0.00    +0.000 A 
ATOM     25  C   UNL     1       4.313  15.920  18.343  0.00  0.00    +0.000 A 
ATOM     26  C   UNL     1       4.491  14.558  18.155  0.00  0.00    +0.000 A 
ATOM     27  C   UNL     1       3.390  13.709  18.225  0.00  0.00    +0.000 A 
ATOM     28  C   UNL     1       2.090  14.213  18.481  0.00  0.00    +0.000 A 
ENDBRANCH  17  19
ENDBRANCH   2  15
BRANCH   1  29
ATOM     29  N   UNL     1       0.612   8.969  21.695  0.00  0.00    +0.000 N 
ATOM     30  H   UNL     1       0.673   9.872  22.173  0.00  0.00    +0.000 HD
ATOM     31  H   UNL     1       0.227   8.223  22.263  0.00  0.00    +0.000 HD
ENDBRANCH   1  29
TORSDOF 3
ENDMDL
MODEL 5
REMARK VINA RESULT:      -7.9      1.861      9.132
REMARK  Name = 
REMARK  3 active torsions:
REMARK  status: ('A' for Active; 'I' for Inactive)
REMARK    1  A    between atoms: N_1  and  C_2
REMARK    2  A    between atoms: C_3  and  C_4
REMARK    3  A    between atoms: N_6  and  C_7
REMARK                            x       y       z     vdW  Elec       q    Type
REMARK                         _______ _______ _______ _____ _____    ______ ____
ROOT
ATOM      1  C   UNL     1       1.893   8.668  18.741  0.00  0.00    +0.000 A 
ATOM      2  C   UNL     1       1.213   9.249  19.795  0.00  0.00    +0.000 A 
ATOM      3  S   UNL     1       1.108   8.174  21.127  0.00  0.00    +0.000 S 
ATOM      4  C   UNL     1       1.854   6.918  20.262  0.00  0.00    +0.000 A 
ATOM      5  N   UNL     1       2.009   5.699  20.819  0.00  0.00    +0.000 NA
ATOM      6  C   UNL     1       2.573   4.770  20.011  0.00  0.00    +0.000 A 
ATOM      7  C   UNL     1       2.987   5.025  18.705  0.00  0.00    +0.000 A 
ATOM      8  C   UNL     1       2.853   6.313  18.183  0.00  0.00    +0.000 A 
ATOM      9  C   UNL     1       2.241   7.302  18.984  0.00  0.00    +0.000 A 
ATOM     10  C   UNL     1       3.526   3.940  17.849  0.00  0.00    +0.000 C 
ATOM     11  O   UNL     1       3.960   4.189  16.731  0.00  0.00    +0.000 OA
ATOM     12  C   UNL     1       3.443   2.529  18.383  0.00  0.00    +0.000 C 
ATOM     13  C   UNL     1       3.691   2.510  19.881  0.00  0.00    +0.000 C 
ATOM     14  C   UNL     1       2.672   3.385  20.601  0.00  0.00    +0.000 C 
ENDROOT
BRANCH   2  15
ATOM     15  C   UNL     1       0.602  10.571  19.828  0.00  0.00    +0.000 C 
ATOM     16  O   UNL     1      -0.159  10.962  18.942  0.00  0.00    +0.000 OA
ATOM     17  N   UNL     1       0.983  11.375  20.889  0.00  0.00    +0.000 N 
ATOM     18  H   UNL     1       1.797  11.076  21.411  0.00  0.00    +0.000 HD
BRANCH  17  19
ATOM     19  C   UNL     1       0.438  12.643  21.190  0.00  0.00    +0.000 A 
ATOM     20  C   UNL     1       1.001  13.797  20.652  0.00  0.00    +0.000 A 
ATOM     21  C   UNL     1       0.355  14.996  20.865  0.00  0.00    +0.000 A 
ATOM     22  N   UNL     1      -0.795  15.115  21.560  0.00  0.00    +0.000 NA
ATOM     23  C   UNL     1      -1.323  14.007  22.106  0.00  0.00    +0.000 A 
ATOM     24  C   UNL     1      -2.494  14.125  22.844  0.00  0.00    +0.000 A 
ATOM     25  C   UNL     1      -3.078  13.030  23.487  0.00  0.00    +0.000 A 
ATOM     26  C   UNL     1      -2.474  11.785  23.412  0.00  0.00    +0.000 A 
ATOM     27  C   UNL     1      -1.313  11.634  22.659  0.00  0.00    +0.000 A 
ATOM     28  C   UNL     1      -0.736  12.730  21.970  0.00  0.00    +0.000 A 
ENDBRANCH  17  19
ENDBRANCH   2  15
BRANCH   1  29
ATOM     29  N   UNL     1       2.173   9.317  17.591  0.00  0.00    +0.000 N 
ATOM     30  H   UNL     1       2.479  10.294  17.598  0.00  0.00    +0.000 HD
ATOM     31  H   UNL     1       1.984   8.949  16.665  0.00  0.00    +0.000 HD
ENDBRANCH   1  29
TORSDOF 3
ENDMDL
MODEL 6
REMARK VINA RESULT:      -7.8      2.097      3.351
REMARK  Name = 
REMARK  3 active torsions:
REMARK  status: ('A' for Active; 'I' for Inactive)
REMARK    1  A    between atoms: N_1  and  C_2
REMARK    2  A    between atoms: C_3  and  C_4
REMARK    3  A    between atoms: N_6  and  C_7
REMARK                            x       y       z     vdW  Elec       q    Type
REMARK                         _______ _______ _______ _____ _____    ______ ____
ROOT
ATOM      1  C   UNL     1       1.279   9.165  20.882  0.00  0.00    +0.000 A 
ATOM      2  C   UNL     1       1.656   8.557  19.699  0.00  0.00    +0.000 A 
ATOM      3  S   UNL     1       1.475   9.629  18.372  0.00  0.00    +0.000 S 
ATOM      4  C   UNL     1       0.794  10.838  19.351  0.00  0.00    +0.000 A 
ATOM      5  N   UNL     1       0.359  11.995  18.811  0.00  0.00    +0.000 NA
ATOM      6  C   UNL     1      -0.208  12.857  19.687  0.00  0.00    +0.000 A 
ATOM      7  C   UNL     1      -0.335  12.605  21.052  0.00  0.00    +0.000 A 
ATOM      8  C   UNL     1       0.171  11.415  21.579  0.00  0.00    +0.000 A 
ATOM      9  C   UNL     1       0.742  10.477  20.692  0.00  0.00    +0.000 A 
ATOM     10  C   UNL     1      -1.038  13.560  21.942  0.00  0.00    +0.000 C 
ATOM     11  O   UNL     1      -1.075  13.369  23.152  0.00  0.00    +0.000 OA
ATOM     12  C   UNL     1      -1.757  14.718  21.290  0.00  0.00    +0.000 C 
ATOM     13  C   UNL     1      -0.971  15.229  20.095  0.00  0.00    +0.000 C 
ATOM     14  C   UNL     1      -0.769  14.115  19.074  0.00  0.00    +0.000 C 
ENDROOT
BRANCH   2  15
ATOM     15  C   UNL     1       2.112   7.186  19.519  0.00  0.00    +0.000 C 
ATOM     16  O   UNL     1       2.032   6.346  20.416  0.00  0.00    +0.000 OA
ATOM     17  N   UNL     1       2.694   6.910  18.293  0.00  0.00    +0.000 N 
ATOM     18  H   UNL     1       2.952   7.708  17.727  0.00  0.00    +0.000 HD
BRANCH  17  19
ATOM     19  C   UNL     1       3.101   5.631  17.852  0.00  0.00    +0.000 A 
ATOM     20  C   UNL     1       2.198   4.572  17.835  0.00  0.00    +0.000 A 
ATOM     21  C   UNL     1       2.604   3.381  17.270  0.00  0.00    +0.000 A 
ATOM     22  N   UNL     1       3.823   3.185  16.729  0.00  0.00    +0.000 NA
ATOM     23  C   UNL     1       4.706   4.195  16.772  0.00  0.00    +0.000 A 
ATOM     24  C   UNL     1       5.973   3.993  16.238  0.00  0.00    +0.000 A 
ATOM     25  C   UNL     1       6.965   4.976  16.291  0.00  0.00    +0.000 A 
ATOM     26  C   UNL     1       6.700   6.189  16.908  0.00  0.00    +0.000 A 
ATOM     27  C   UNL     1       5.432   6.428  17.429  0.00  0.00    +0.000 A 
ATOM     28  C   UNL     1       4.408   5.452  17.344  0.00  0.00    +0.000 A 
ENDBRANCH  17  19
ENDBRANCH   2  15
BRANCH   1  29
ATOM     29  N   UNL     1       1.381   8.566  22.089  0.00  0.00    +0.000 N 
ATOM     30  H   UNL     1       2.268   8.558  22.599  0.00  0.00    +0.000 HD
ATOM     31  H   UNL     1       0.657   7.991  22.505  0.00  0.00    +0.000 HD
ENDBRANCH   1  29
TORSDOF 3
ENDMDL
MODEL 7
REMARK VINA RESULT:      -7.8      1.894      9.408
REMARK  Name = 
REMARK  3 active torsions:
REMARK  status: ('A' for Active; 'I' for Inactive)
REMARK    1  A    between atoms: N_1  and  C_2
REMARK    2  A    between atoms: C_3  and  C_4
REMARK    3  A    between atoms: N_6  and  C_7
REMARK                            x       y       z     vdW  Elec       q    Type
REMARK                         _______ _______ _______ _____ _____    ______ ____
ROOT
ATOM      1  C   UNL     1       1.695   9.448  18.774  0.00  0.00    +0.000 A 
ATOM      2  C   UNL     1       0.909   9.490  19.911  0.00  0.00    +0.000 A 
ATOM      3  S   UNL     1       1.158   8.097  20.882  0.00  0.00    +0.000 S 
ATOM      4  C   UNL     1       2.206   7.403  19.741  0.00  0.00    +0.000 A 
ATOM      5  N   UNL     1       2.721   6.172  19.941  0.00  0.00    +0.000 NA
ATOM      6  C   UNL     1       3.503   5.710  18.937  0.00  0.00    +0.000 A 
ATOM      7  C   UNL     1       3.786   6.431  17.778  0.00  0.00    +0.000 A 
ATOM      8  C   UNL     1       3.272   7.721  17.631  0.00  0.00    +0.000 A 
ATOM      9  C   UNL     1       2.427   8.226  18.643  0.00  0.00    +0.000 A 
ATOM     10  C   UNL     1       4.587   5.832  16.684  0.00  0.00    +0.000 C 
ATOM     11  O   UNL     1       4.898   6.500  15.705  0.00  0.00    +0.000 OA
ATOM     12  C   UNL     1       4.929   4.365  16.795  0.00  0.00    +0.000 C 
ATOM     13  C   UNL     1       5.217   3.993  18.239  0.00  0.00    +0.000 C 
ATOM     14  C   UNL     1       4.012   4.302  19.121  0.00  0.00    +0.000 C 
ENDROOT
BRANCH   2  15
ATOM     15  C   UNL     1      -0.054  10.518  20.280  0.00  0.00    +0.000 C 
ATOM     16  O   UNL     1      -0.931  10.901  19.505  0.00  0.00    +0.000 OA
ATOM     17  N   UNL     1       0.123  11.075  21.535  0.00  0.00    +0.000 N 
ATOM     18  H   UNL     1       1.009  10.891  21.989  0.00  0.00    +0.000 HD
BRANCH  17  19
ATOM     19  C   UNL     1      -0.750  11.999  22.149  0.00  0.00    +0.000 A 
ATOM     20  C   UNL     1      -1.930  11.563  22.747  0.00  0.00    +0.000 A 
ATOM     21  C   UNL     1      -2.681  12.481  23.449  0.00  0.00    +0.000 A 
ATOM     22  N   UNL     1      -2.337  13.777  23.595  0.00  0.00    +0.000 NA
ATOM     23  C   UNL     1      -1.216  14.207  22.993  0.00  0.00    +0.000 A 
ATOM     24  C   UNL     1      -0.867  15.546  23.119  0.00  0.00    +0.000 A 
ATOM     25  C   UNL     1       0.254  16.082  22.481  0.00  0.00    +0.000 A 
ATOM     26  C   UNL     1       1.044  15.273  21.679  0.00  0.00    +0.000 A 
ATOM     27  C   UNL     1       0.731  13.922  21.556  0.00  0.00    +0.000 A 
ATOM     28  C   UNL     1      -0.381  13.361  22.232  0.00  0.00    +0.000 A 
ENDBRANCH  17  19
ENDBRANCH   2  15
BRANCH   1  29
ATOM     29  N   UNL     1       1.742  10.449  17.868  0.00  0.00    +0.000 N 
ATOM     30  H   UNL     1       2.017  11.395  18.143  0.00  0.00    +0.000 HD
ATOM     31  H   UNL     1       1.397  10.376  16.917  0.00  0.00    +0.000 HD
ENDBRANCH   1  29
TORSDOF 3
ENDMDL
MODEL 8
REMARK VINA RESULT:      -7.7      1.982      9.433
REMARK  Name = 
REMARK  3 active torsions:
REMARK  status: ('A' for Active; 'I' for Inactive)
REMARK    1  A    between atoms: N_1  and  C_2
REMARK    2  A    between atoms: C_3  and  C_4
REMARK    3  A    between atoms: N_6  and  C_7
REMARK                            x       y       z     vdW  Elec       q    Type
REMARK                         _______ _______ _______ _____ _____    ______ ____
ROOT
ATOM      1  C   UNL     1       1.786   9.400  18.543  0.00  0.00    +0.000 A 
ATOM      2  C   UNL     1       0.987   9.408  19.671  0.00  0.00    +0.000 A 
ATOM      3  S   UNL     1       1.279   8.024  20.641  0.00  0.00    +0.000 S 
ATOM      4  C   UNL     1       2.365   7.373  19.509  0.00  0.00    +0.000 A 
ATOM      5  N   UNL     1       2.925   6.163  19.712  0.00  0.00    +0.000 NA
ATOM      6  C   UNL     1       3.735   5.734  18.715  0.00  0.00    +0.000 A 
ATOM      7  C   UNL     1       4.002   6.469  17.561  0.00  0.00    +0.000 A 
ATOM      8  C   UNL     1       3.441   7.738  17.412  0.00  0.00    +0.000 A 
ATOM      9  C   UNL     1       2.566   8.208  18.416  0.00  0.00    +0.000 A 
ATOM     10  C   UNL     1       4.837   5.905  16.474  0.00  0.00    +0.000 C 
ATOM     11  O   UNL     1       5.132   6.587  15.500  0.00  0.00    +0.000 OA
ATOM     12  C   UNL     1       5.234   4.451  16.585  0.00  0.00    +0.000 C 
ATOM     13  C   UNL     1       5.521   4.086  18.031  0.00  0.00    +0.000 C 
ATOM     14  C   UNL     1       4.296   4.346  18.900  0.00  0.00    +0.000 C 
ENDROOT
BRANCH   2  15
ATOM     15  C   UNL     1      -0.019  10.398  20.032  0.00  0.00    +0.000 C 
ATOM     16  O   UNL     1      -1.173  10.343  19.606  0.00  0.00    +0.000 OA
ATOM     17  N   UNL     1       0.428  11.433  20.836  0.00  0.00    +0.000 N 
ATOM     18  H   UNL     1       1.432  11.538  20.919  0.00  0.00    +0.000 HD
BRANCH  17  19
ATOM     19  C   UNL     1      -0.387  12.437  21.404  0.00  0.00    +0.000 A 
ATOM     20  C   UNL     1      -0.994  12.235  22.641  0.00  0.00    +0.000 A 
ATOM     21  C   UNL     1      -1.668  13.292  23.214  0.00  0.00    +0.000 A 
ATOM     22  N   UNL     1      -1.770  14.512  22.648  0.00  0.00    +0.000 NA
ATOM     23  C   UNL     1      -1.212  14.700  21.441  0.00  0.00    +0.000 A 
ATOM     24  C   UNL     1      -1.333  15.947  20.840  0.00  0.00    +0.000 A 
ATOM     25  C   UNL     1      -0.827  16.207  19.564  0.00  0.00    +0.000 A 
ATOM     26  C   UNL     1      -0.198  15.197  18.854  0.00  0.00    +0.000 A 
ATOM     27  C   UNL     1      -0.041  13.945  19.441  0.00  0.00    +0.000 A 
ATOM     28  C   UNL     1      -0.515  13.684  20.751  0.00  0.00    +0.000 A 
ENDBRANCH  17  19
ENDBRANCH   2  15
BRANCH   1  29
ATOM     29  N   UNL     1       1.804  10.405  17.640  0.00  0.00    +0.000 N 
ATOM     30  H   UNL     1       2.391  10.350  16.803  0.00  0.00    +0.000 HD
ATOM     31  H   UNL     1       1.361  11.307  17.778  0.00  0.00    +0.000 HD
ENDBRANCH   1  29
TORSDOF 3
ENDMDL
MODEL 9
REMARK VINA RESULT:      -7.7      1.665      2.097
REMARK  Name = 
REMARK  3 active torsions:
REMARK  status: ('A' for Active; 'I' for Inactive)
REMARK    1  A    between atoms: N_1  and  C_2
REMARK    2  A    between atoms: C_3  and  C_4
REMARK    3  A    between atoms: N_6  and  C_7
REMARK                            x       y       z     vdW  Elec       q    Type
REMARK                         _______ _______ _______ _____ _____    ______ ____
ROOT
ATOM      1  C   UNL     1       1.180   8.998  20.475  0.00  0.00    +0.000 A 
ATOM      2  C   UNL     1       1.616   8.816  19.176  0.00  0.00    +0.000 A 
ATOM      3  S   UNL     1       0.975  10.022  18.138  0.00  0.00    +0.000 S 
ATOM      4  C   UNL     1       0.040  10.697  19.384  0.00  0.00    +0.000 A 
ATOM      5  N   UNL     1      -0.793  11.729  19.136  0.00  0.00    +0.000 NA
ATOM      6  C   UNL     1      -1.519  12.146  20.200  0.00  0.00    +0.000 A 
ATOM      7  C   UNL     1      -1.426  11.582  21.472  0.00  0.00    +0.000 A 
ATOM      8  C   UNL     1      -0.518  10.547  21.698  0.00  0.00    +0.000 A 
ATOM      9  C   UNL     1       0.236  10.064  20.606  0.00  0.00    +0.000 A 
ATOM     10  C   UNL     1      -2.309  12.036  22.574  0.00  0.00    +0.000 C 
ATOM     11  O   UNL     1      -2.166  11.592  23.707  0.00  0.00    +0.000 OA
ATOM     12  C   UNL     1      -3.420  12.998  22.223  0.00  0.00    +0.000 C 
ATOM     13  C   UNL     1      -2.958  13.983  21.163  0.00  0.00    +0.000 C 
ATOM     14  C   UNL     1      -2.510  13.244  19.907  0.00  0.00    +0.000 C 
ENDROOT
BRANCH   2  15
ATOM     15  C   UNL     1       2.467   7.747  18.673  0.00  0.00    +0.000 C 
ATOM     16  O   UNL     1       3.031   7.818  17.581  0.00  0.00    +0.000 OA
ATOM     17  N   UNL     1       2.548   6.623  19.479  0.00  0.00    +0.000 N 
ATOM     18  H   UNL     1       1.857   6.546  20.215  0.00  0.00    +0.000 HD
BRANCH  17  19
ATOM     19  C   UNL     1       3.396   5.516  19.254  0.00  0.00    +0.000 A 
ATOM     20  C   UNL     1       4.780   5.669  19.304  0.00  0.00    +0.000 A 
ATOM     21  C   UNL     1       5.562   4.537  19.213  0.00  0.00    +0.000 A 
ATOM     22  N   UNL     1       5.064   3.290  19.084  0.00  0.00    +0.000 NA
ATOM     23  C   UNL     1       3.732   3.144  19.004  0.00  0.00    +0.000 A 
ATOM     24  C   UNL     1       3.212   1.865  18.847  0.00  0.00    +0.000 A 
ATOM     25  C   UNL     1       1.842   1.634  18.704  0.00  0.00    +0.000 A 
ATOM     26  C   UNL     1       0.960   2.704  18.698  0.00  0.00    +0.000 A 
ATOM     27  C   UNL     1       1.451   3.994  18.879  0.00  0.00    +0.000 A 
ATOM     28  C   UNL     1       2.835   4.234  19.065  0.00  0.00    +0.000 A 
ENDBRANCH  17  19
ENDBRANCH   2  15
BRANCH   1  29
ATOM     29  N   UNL     1       1.584   8.226  21.508  0.00  0.00    +0.000 N 
ATOM     30  H   UNL     1       2.484   8.391  21.968  0.00  0.00    +0.000 HD
ATOM     31  H   UNL     1       1.113   7.380  21.809  0.00  0.00    +0.000 HD
ENDBRANCH   1  29
TORSDOF 3
ENDMDL
