MODEL 1
REMARK VINA RESULT:      -8.4      0.000      0.000
REMARK  Name = 
REMARK  5 active torsions:
REMARK  status: ('A' for Active; 'I' for Inactive)
REMARK    1  A    between atoms: C_1  and  C_2
REMARK    2  A    between atoms: C_4  and  C_5
REMARK    3  A    between atoms: C_14  and  C_15
REMARK    4  A    between atoms: N_17  and  C_18
REMARK    5  A    between atoms: C_22  and  C_23
REMARK                            x       y       z     vdW  Elec       q    Type
REMARK                         _______ _______ _______ _____ _____    ______ ____
ROOT
ATOM      1  C   UNL     1      -0.316  10.414  22.510  0.00  0.00    +0.000 C 
ATOM      2  O   UNL     1      -0.180  10.282  23.720  0.00  0.00    +0.000 OA
ATOM      3  N   UNL     1      -1.029  11.449  21.909  0.00  0.00    +0.000 N 
ATOM      4  H   UNL     1      -0.895  11.550  20.906  0.00  0.00    +0.000 HD
ENDROOT
BRANCH   1  12
ATOM      5  C   UNL     1       2.020   9.852  17.687  0.00  0.00    +0.000 C 
ATOM      6  C   UNL     1       1.963   8.654  18.582  0.00  0.00    +0.000 A 
ATOM      7  C   UNL     1       2.505   7.473  18.253  0.00  0.00    +0.000 A 
ATOM      8  C   UNL     1       2.330   6.353  19.239  0.00  0.00    +0.000 A 
ATOM      9  N   UNL     1       1.763   6.482  20.412  0.00  0.00    +0.000 NA
ATOM     10  C   UNL     1       1.251   7.715  20.732  0.00  0.00    +0.000 A 
ATOM     11  N   UNL     1       0.635   8.132  21.828  0.00  0.00    +0.000 NA
ATOM     12  C   UNL     1       0.348   9.463  21.568  0.00  0.00    +0.000 A 
ATOM     13  N   UNL     1       0.738   9.869  20.349  0.00  0.00    +0.000 NA
ATOM     14  N   UNL     1       1.327   8.781  19.824  0.00  0.00    +0.000 N 
BRANCH   8  15
ATOM     15  C   UNL     1       2.858   5.018  18.797  0.00  0.00    +0.000 A 
ATOM     16  C   UNL     1       3.949   4.460  19.474  0.00  0.00    +0.000 A 
ATOM     17  C   UNL     1       4.440   3.201  19.105  0.00  0.00    +0.000 A 
ATOM     18  C   UNL     1       3.841   2.492  18.065  0.00  0.00    +0.000 A 
ATOM     19  C   UNL     1       2.758   3.038  17.383  0.00  0.00    +0.000 A 
ATOM     20  C   UNL     1       2.265   4.295  17.750  0.00  0.00    +0.000 A 
ENDBRANCH   8  15
ENDBRANCH   1  12
BRANCH   3  21
ATOM     21  C   UNL     1      -1.557  12.547  22.597  0.00  0.00    +0.000 A 
ATOM     22  S   UNL     1      -3.186  12.600  23.139  0.00  0.00    +0.000 S 
ATOM     23  C   UNL     1      -2.936  14.080  23.954  0.00  0.00    +0.000 A 
ATOM     24  C   UNL     1      -1.586  14.360  24.013  0.00  0.00    +0.000 A 
ATOM     25  C   UNL     1      -0.962  13.781  22.848  0.00  0.00    +0.000 A 
ATOM     26  C   UNL     1      -1.035  15.317  25.021  0.00  0.00    +0.000 C 
ATOM     27  C   UNL     1      -1.326  16.771  24.701  0.00  0.00    +0.000 C 
ATOM     28  C   UNL     1      -2.770  17.168  25.027  0.00  0.00    +0.000 C 
ATOM     29  C   UNL     1      -3.868  16.409  24.257  0.00  0.00    +0.000 C 
ATOM     30  C   UNL     1      -4.030  14.900  24.575  0.00  0.00    +0.000 C 
BRANCH  25  31
ATOM     31  C   UNL     1       0.136  14.346  22.077  0.00  0.00    +0.000 C 
ATOM     32  N   UNL     1      -0.158  15.550  21.488  0.00  0.00    +0.000 N 
ATOM     33  O   UNL     1       1.279  13.894  22.060  0.00  0.00    +0.000 OA
ATOM     34  H   UNL     1      -0.977  16.064  21.793  0.00  0.00    +0.000 HD
ATOM     35  H   UNL     1       0.637  16.103  21.198  0.00  0.00    +0.000 HD
ENDBRANCH  25  31
ENDBRANCH   3  21
TORSDOF 4
ENDMDL
MODEL 2
REMARK VINA RESULT:      -8.4      1.596      2.485
REMARK  Name = 
REMARK  5 active torsions:
REMARK  status: ('A' for Active; 'I' for Inactive)
REMARK    1  A    between atoms: C_1  and  C_2
REMARK    2  A    between atoms: C_4  and  C_5
REMARK    3  A    between atoms: C_14  and  C_15
REMARK    4  A    between atoms: N_17  and  C_18
REMARK    5  A    between atoms: C_22  and  C_23
REMARK                            x       y       z     vdW  Elec       q    Type
REMARK                         _______ _______ _______ _____ _____    ______ ____
ROOT
ATOM      1  C   UNL     1      -0.692  11.117  22.323  0.00  0.00    +0.000 C 
ATOM      2  O   UNL     1      -0.864  10.876  23.511  0.00  0.00    +0.000 OA
ATOM      3  N   UNL     1      -1.109  12.286  21.691  0.00  0.00    +0.000 N 
ATOM      4  H   UNL     1      -0.730  12.441  20.760  0.00  0.00    +0.000 HD
ENDROOT
BRANCH   1  12
ATOM      5  C   UNL     1       1.896  10.436  17.646  0.00  0.00    +0.000 C 
ATOM      6  C   UNL     1       1.841   9.277  18.591  0.00  0.00    +0.000 A 
ATOM      7  C   UNL     1       2.442   8.106  18.343  0.00  0.00    +0.000 A 
ATOM      8  C   UNL     1       2.261   7.024  19.369  0.00  0.00    +0.000 A 
ATOM      9  N   UNL     1       1.633   7.182  20.508  0.00  0.00    +0.000 NA
ATOM     10  C   UNL     1       1.061   8.406  20.746  0.00  0.00    +0.000 A 
ATOM     11  N   UNL     1       0.376   8.847  21.791  0.00  0.00    +0.000 NA
ATOM     12  C   UNL     1       0.053  10.153  21.458  0.00  0.00    +0.000 A 
ATOM     13  N   UNL     1       0.486  10.520  20.241  0.00  0.00    +0.000 NA
ATOM     14  N   UNL     1       1.140   9.434  19.794  0.00  0.00    +0.000 N 
BRANCH   8  15
ATOM     15  C   UNL     1       2.860   5.693  19.015  0.00  0.00    +0.000 A 
ATOM     16  C   UNL     1       2.174   4.851  18.131  0.00  0.00    +0.000 A 
ATOM     17  C   UNL     1       2.727   3.620  17.757  0.00  0.00    +0.000 A 
ATOM     18  C   UNL     1       3.968   3.227  18.257  0.00  0.00    +0.000 A 
ATOM     19  C   UNL     1       4.657   4.055  19.138  0.00  0.00    +0.000 A 
ATOM     20  C   UNL     1       4.109   5.286  19.512  0.00  0.00    +0.000 A 
ENDBRANCH   8  15
ENDBRANCH   1  12
BRANCH   3  21
ATOM     21  C   UNL     1      -1.644  13.395  22.356  0.00  0.00    +0.000 A 
ATOM     22  S   UNL     1      -0.664  14.670  22.959  0.00  0.00    +0.000 S 
ATOM     23  C   UNL     1      -2.029  15.593  23.412  0.00  0.00    +0.000 A 
ATOM     24  C   UNL     1      -3.170  15.039  22.870  0.00  0.00    +0.000 A 
ATOM     25  C   UNL     1      -2.960  13.616  22.754  0.00  0.00    +0.000 A 
ATOM     26  C   UNL     1      -4.422  15.840  22.712  0.00  0.00    +0.000 C 
ATOM     27  C   UNL     1      -5.157  16.083  24.016  0.00  0.00    +0.000 C 
ATOM     28  C   UNL     1      -4.497  17.173  24.869  0.00  0.00    +0.000 C 
ATOM     29  C   UNL     1      -3.052  16.891  25.323  0.00  0.00    +0.000 C 
ATOM     30  C   UNL     1      -1.965  16.859  24.218  0.00  0.00    +0.000 C 
BRANCH  25  31
ATOM     31  C   UNL     1      -3.951  12.570  22.965  0.00  0.00    +0.000 C 
ATOM     32  N   UNL     1      -3.853  11.947  24.185  0.00  0.00    +0.000 N 
ATOM     33  O   UNL     1      -4.894  12.343  22.211  0.00  0.00    +0.000 OA
ATOM     34  H   UNL     1      -3.297  12.376  24.916  0.00  0.00    +0.000 HD
ATOM     35  H   UNL     1      -4.673  11.437  24.484  0.00  0.00    +0.000 HD
ENDBRANCH  25  31
ENDBRANCH   3  21
TORSDOF 4
ENDMDL
MODEL 3
REMARK VINA RESULT:      -8.3      2.449      2.985
REMARK  Name = 
REMARK  5 active torsions:
REMARK  status: ('A' for Active; 'I' for Inactive)
REMARK    1  A    between atoms: C_1  and  C_2
REMARK    2  A    between atoms: C_4  and  C_5
REMARK    3  A    between atoms: C_14  and  C_15
REMARK    4  A    between atoms: N_17  and  C_18
REMARK    5  A    between atoms: C_22  and  C_23
REMARK                            x       y       z     vdW  Elec       q    Type
REMARK                         _______ _______ _______ _____ _____    ______ ____
ROOT
ATOM      1  C   UNL     1       0.310  10.361  19.750  0.00  0.00    +0.000 C 
ATOM      2  O   UNL     1      -0.726  10.546  19.123  0.00  0.00    +0.000 OA
ATOM      3  N   UNL     1       0.679  11.079  20.885  0.00  0.00    +0.000 N 
ATOM      4  H   UNL     1       1.456  10.693  21.416  0.00  0.00    +0.000 HD
ENDROOT
BRANCH   1  12
ATOM      5  C   UNL     1       2.023   5.363  20.803  0.00  0.00    +0.000 C 
ATOM      6  C   UNL     1       2.625   6.077  19.634  0.00  0.00    +0.000 A 
ATOM      7  C   UNL     1       3.528   5.513  18.820  0.00  0.00    +0.000 A 
ATOM      8  C   UNL     1       4.071   6.372  17.714  0.00  0.00    +0.000 A 
ATOM      9  N   UNL     1       3.659   7.588  17.453  0.00  0.00    +0.000 NA
ATOM     10  C   UNL     1       2.706   8.122  18.283  0.00  0.00    +0.000 A 
ATOM     11  N   UNL     1       2.113   9.307  18.262  0.00  0.00    +0.000 NA
ATOM     12  C   UNL     1       1.251   9.273  19.347  0.00  0.00    +0.000 A 
ATOM     13  N   UNL     1       1.313   8.129  20.047  0.00  0.00    +0.000 NA
ATOM     14  N   UNL     1       2.211   7.391  19.373  0.00  0.00    +0.000 N 
BRANCH   8  15
ATOM     15  C   UNL     1       5.155   5.746  16.885  0.00  0.00    +0.000 A 
ATOM     16  C   UNL     1       6.222   5.107  17.528  0.00  0.00    +0.000 A 
ATOM     17  C   UNL     1       7.227   4.485  16.778  0.00  0.00    +0.000 A 
ATOM     18  C   UNL     1       7.170   4.492  15.385  0.00  0.00    +0.000 A 
ATOM     19  C   UNL     1       6.116   5.127  14.735  0.00  0.00    +0.000 A 
ATOM     20  C   UNL     1       5.109   5.748  15.481  0.00  0.00    +0.000 A 
ENDBRANCH   8  15
ENDBRANCH   1  12
BRANCH   3  21
ATOM     21  C   UNL     1      -0.148  12.000  21.541  0.00  0.00    +0.000 A 
ATOM     22  S   UNL     1      -1.265  11.532  22.758  0.00  0.00    +0.000 S 
ATOM     23  C   UNL     1      -1.674  13.155  23.098  0.00  0.00    +0.000 A 
ATOM     24  C   UNL     1      -0.782  14.003  22.475  0.00  0.00    +0.000 A 
ATOM     25  C   UNL     1      -0.319  13.355  21.272  0.00  0.00    +0.000 A 
ATOM     26  C   UNL     1      -0.606  15.416  22.932  0.00  0.00    +0.000 C 
ATOM     27  C   UNL     1      -1.752  16.329  22.540  0.00  0.00    +0.000 C 
ATOM     28  C   UNL     1      -2.988  16.135  23.426  0.00  0.00    +0.000 C 
ATOM     29  C   UNL     1      -3.625  14.733  23.395  0.00  0.00    +0.000 C 
ATOM     30  C   UNL     1      -2.796  13.573  24.005  0.00  0.00    +0.000 C 
BRANCH  25  31
ATOM     31  C   UNL     1      -0.028  13.992  19.996  0.00  0.00    +0.000 C 
ATOM     32  N   UNL     1      -0.981  13.772  19.032  0.00  0.00    +0.000 N 
ATOM     33  O   UNL     1       0.892  14.785  19.809  0.00  0.00    +0.000 OA
ATOM     34  H   UNL     1      -1.886  13.408  19.305  0.00  0.00    +0.000 HD
ATOM     35  H   UNL     1      -0.971  14.413  18.250  0.00  0.00    +0.000 HD
ENDBRANCH  25  31
ENDBRANCH   3  21
TORSDOF 4
ENDMDL
MODEL 4
REMARK VINA RESULT:      -8.0      2.401      3.520
REMARK  Name = 
REMARK  5 active torsions:
REMARK  status: ('A' for Active; 'I' for Inactive)
REMARK    1  A    between atoms: C_1  and  C_2
REMARK    2  A    between atoms: C_4  and  C_5
REMARK    3  A    between atoms: C_14  and  C_15
REMARK    4  A    between atoms: N_17  and  C_18
REMARK    5  A    between atoms: C_22  and  C_23
REMARK                            x       y       z     vdW  Elec       q    Type
REMARK                         _______ _______ _______ _____ _____    ______ ____
ROOT
ATOM      1  C   UNL     1       0.040   8.755  21.244  0.00  0.00    +0.000 C 
ATOM      2  O   UNL     1      -0.654   8.410  22.193  0.00  0.00    +0.000 OA
ATOM      3  N   UNL     1       0.016  10.027  20.676  0.00  0.00    +0.000 N 
ATOM      4  H   UNL     1       0.777  10.236  20.034  0.00  0.00    +0.000 HD
ENDROOT
BRANCH   1  12
ATOM      5  C   UNL     1       2.073   3.769  21.433  0.00  0.00    +0.000 C 
ATOM      6  C   UNL     1       2.601   4.701  20.388  0.00  0.00    +0.000 A 
ATOM      7  C   UNL     1       3.515   4.335  19.479  0.00  0.00    +0.000 A 
ATOM      8  C   UNL     1       3.977   5.396  18.521  0.00  0.00    +0.000 A 
ATOM      9  N   UNL     1       3.488   6.610  18.470  0.00  0.00    +0.000 NA
ATOM     10  C   UNL     1       2.526   6.941  19.392  0.00  0.00    +0.000 A 
ATOM     11  N   UNL     1       1.864   8.073  19.575  0.00  0.00    +0.000 NA
ATOM     12  C   UNL     1       1.033   7.809  20.653  0.00  0.00    +0.000 A 
ATOM     13  N   UNL     1       1.181   6.572  21.155  0.00  0.00    +0.000 NA
ATOM     14  N   UNL     1       2.103   6.011  20.354  0.00  0.00    +0.000 N 
BRANCH   8  15
ATOM     15  C   UNL     1       5.075   4.983  17.583  0.00  0.00    +0.000 A 
ATOM     16  C   UNL     1       4.749   4.629  16.268  0.00  0.00    +0.000 A 
ATOM     17  C   UNL     1       5.757   4.273  15.364  0.00  0.00    +0.000 A 
ATOM     18  C   UNL     1       7.092   4.275  15.763  0.00  0.00    +0.000 A 
ATOM     19  C   UNL     1       7.427   4.623  17.069  0.00  0.00    +0.000 A 
ATOM     20  C   UNL     1       6.423   4.980  17.975  0.00  0.00    +0.000 A 
ENDBRANCH   8  15
ENDBRANCH   1  12
BRANCH   3  21
ATOM     21  C   UNL     1      -0.693  11.113  21.202  0.00  0.00    +0.000 A 
ATOM     22  S   UNL     1      -1.013  11.280  22.881  0.00  0.00    +0.000 S 
ATOM     23  C   UNL     1      -1.698  12.829  22.664  0.00  0.00    +0.000 A 
ATOM     24  C   UNL     1      -1.437  13.282  21.387  0.00  0.00    +0.000 A 
ATOM     25  C   UNL     1      -1.349  12.133  20.518  0.00  0.00    +0.000 A 
ATOM     26  C   UNL     1      -1.508  14.737  21.050  0.00  0.00    +0.000 C 
ATOM     27  C   UNL     1      -2.925  15.270  20.952  0.00  0.00    +0.000 C 
ATOM     28  C   UNL     1      -3.565  15.496  22.326  0.00  0.00    +0.000 C 
ATOM     29  C   UNL     1      -3.717  14.246  23.213  0.00  0.00    +0.000 C 
ATOM     30  C   UNL     1      -2.410  13.598  23.740  0.00  0.00    +0.000 C 
BRANCH  25  31
ATOM     31  C   UNL     1      -1.814  12.046  19.142  0.00  0.00    +0.000 C 
ATOM     32  N   UNL     1      -3.160  12.273  18.993  0.00  0.00    +0.000 N 
ATOM     33  O   UNL     1      -1.079  11.933  18.164  0.00  0.00    +0.000 OA
ATOM     34  H   UNL     1      -3.678  12.697  19.754  0.00  0.00    +0.000 HD
ATOM     35  H   UNL     1      -3.465  12.506  18.058  0.00  0.00    +0.000 HD
ENDBRANCH  25  31
ENDBRANCH   3  21
TORSDOF 4
ENDMDL
MODEL 5
REMARK VINA RESULT:      -8.0      2.396      3.280
REMARK  Name = 
REMARK  5 active torsions:
REMARK  status: ('A' for Active; 'I' for Inactive)
REMARK    1  A    between atoms: C_1  and  C_2
REMARK    2  A    between atoms: C_4  and  C_5
REMARK    3  A    between atoms: C_14  and  C_15
REMARK    4  A    between atoms: N_17  and  C_18
REMARK    5  A    between atoms: C_22  and  C_23
REMARK                            x       y       z     vdW  Elec       q    Type
REMARK                         _______ _______ _______ _____ _____    ______ ____
ROOT
ATOM      1  C   UNL     1       0.669   9.449  21.444  0.00  0.00    +0.000 C 
ATOM      2  O   UNL     1       0.998   9.691  22.598  0.00  0.00    +0.000 OA
ATOM      3  N   UNL     1      -0.334  10.127  20.755  0.00  0.00    +0.000 N 
ATOM      4  H   UNL     1      -0.366   9.963  19.752  0.00  0.00    +0.000 HD
ENDROOT
BRANCH   1  12
ATOM      5  C   UNL     1       1.796   4.197  21.025  0.00  0.00    +0.000 C 
ATOM      6  C   UNL     1       2.338   5.115  19.975  0.00  0.00    +0.000 A 
ATOM      7  C   UNL     1       3.044   4.681  18.921  0.00  0.00    +0.000 A 
ATOM      8  C   UNL     1       3.556   5.730  17.974  0.00  0.00    +0.000 A 
ATOM      9  N   UNL     1       3.286   7.008  18.071  0.00  0.00    +0.000 NA
ATOM     10  C   UNL     1       2.529   7.413  19.141  0.00  0.00    +0.000 A 
ATOM     11  N   UNL     1       2.107   8.620  19.489  0.00  0.00    +0.000 NA
ATOM     12  C   UNL     1       1.393   8.405  20.657  0.00  0.00    +0.000 A 
ATOM     13  N   UNL     1       1.384   7.122  21.054  0.00  0.00    +0.000 NA
ATOM     14  N   UNL     1       2.079   6.487  20.094  0.00  0.00    +0.000 N 
BRANCH   8  15
ATOM     15  C   UNL     1       4.429   5.223  16.863  0.00  0.00    +0.000 A 
ATOM     16  C   UNL     1       5.021   6.142  15.989  0.00  0.00    +0.000 A 
ATOM     17  C   UNL     1       5.867   5.698  14.965  0.00  0.00    +0.000 A 
ATOM     18  C   UNL     1       6.132   4.338  14.813  0.00  0.00    +0.000 A 
ATOM     19  C   UNL     1       5.546   3.415  15.675  0.00  0.00    +0.000 A 
ATOM     20  C   UNL     1       4.702   3.855  16.700  0.00  0.00    +0.000 A 
ENDBRANCH   8  15
ENDBRANCH   1  12
BRANCH   3  21
ATOM     21  C   UNL     1      -0.994  11.263  21.238  0.00  0.00    +0.000 A 
ATOM     22  S   UNL     1      -1.523  11.399  22.866  0.00  0.00    +0.000 S 
ATOM     23  C   UNL     1      -2.010  13.021  22.641  0.00  0.00    +0.000 A 
ATOM     24  C   UNL     1      -1.531  13.491  21.436  0.00  0.00    +0.000 A 
ATOM     25  C   UNL     1      -1.441  12.373  20.527  0.00  0.00    +0.000 A 
ATOM     26  C   UNL     1      -1.406  14.957  21.169  0.00  0.00    +0.000 C 
ATOM     27  C   UNL     1      -2.734  15.643  20.911  0.00  0.00    +0.000 C 
ATOM     28  C   UNL     1      -3.531  15.885  22.198  0.00  0.00    +0.000 C 
ATOM     29  C   UNL     1      -3.930  14.626  22.990  0.00  0.00    +0.000 C 
ATOM     30  C   UNL     1      -2.781  13.821  23.651  0.00  0.00    +0.000 C 
BRANCH  25  31
ATOM     31  C   UNL     1      -1.719  12.389  19.099  0.00  0.00    +0.000 C 
ATOM     32  N   UNL     1      -3.036  12.156  18.784  0.00  0.00    +0.000 N 
ATOM     33  O   UNL     1      -0.912  12.726  18.236  0.00  0.00    +0.000 OA
ATOM     34  H   UNL     1      -3.737  12.222  19.512  0.00  0.00    +0.000 HD
ATOM     35  H   UNL     1      -3.322  12.439  17.857  0.00  0.00    +0.000 HD
ENDBRANCH  25  31
ENDBRANCH   3  21
TORSDOF 4
ENDMDL
MODEL 6
REMARK VINA RESULT:      -7.9      2.123      2.830
REMARK  Name = 
REMARK  5 active torsions:
REMARK  status: ('A' for Active; 'I' for Inactive)
REMARK    1  A    between atoms: C_1  and  C_2
REMARK    2  A    between atoms: C_4  and  C_5
REMARK    3  A    between atoms: C_14  and  C_15
REMARK    4  A    between atoms: N_17  and  C_18
REMARK    5  A    between atoms: C_22  and  C_23
REMARK                            x       y       z     vdW  Elec       q    Type
REMARK                         _______ _______ _______ _____ _____    ______ ____
ROOT
ATOM      1  C   UNL     1      -0.750  11.304  21.945  0.00  0.00    +0.000 C 
ATOM      2  O   UNL     1      -0.702  11.521  23.150  0.00  0.00    +0.000 OA
ATOM      3  N   UNL     1      -1.420  12.112  21.029  0.00  0.00    +0.000 N 
ATOM      4  H   UNL     1      -1.214  11.930  20.050  0.00  0.00    +0.000 HD
ENDROOT
BRANCH   1  12
ATOM      5  C   UNL     1       2.023   9.503  17.691  0.00  0.00    +0.000 C 
ATOM      6  C   UNL     1       1.861   8.585  18.861  0.00  0.00    +0.000 A 
ATOM      7  C   UNL     1       2.412   7.364  18.911  0.00  0.00    +0.000 A 
ATOM      8  C   UNL     1       2.125   6.543  20.137  0.00  0.00    +0.000 A 
ATOM      9  N   UNL     1       1.452   6.975  21.174  0.00  0.00    +0.000 NA
ATOM     10  C   UNL     1       0.933   8.244  21.105  0.00  0.00    +0.000 A 
ATOM     11  N   UNL     1       0.222   8.932  21.986  0.00  0.00    +0.000 NA
ATOM     12  C   UNL     1      -0.015  10.144  21.358  0.00  0.00    +0.000 A 
ATOM     13  N   UNL     1       0.495  10.215  20.117  0.00  0.00    +0.000 NA
ATOM     14  N   UNL     1       1.112   9.032  19.958  0.00  0.00    +0.000 N 
BRANCH   8  15
ATOM     15  C   UNL     1       2.670   5.144  20.118  0.00  0.00    +0.000 A 
ATOM     16  C   UNL     1       3.825   4.873  19.375  0.00  0.00    +0.000 A 
ATOM     17  C   UNL     1       4.374   3.585  19.368  0.00  0.00    +0.000 A 
ATOM     18  C   UNL     1       3.777   2.564  20.106  0.00  0.00    +0.000 A 
ATOM     19  C   UNL     1       2.627   2.821  20.846  0.00  0.00    +0.000 A 
ATOM     20  C   UNL     1       2.077   4.108  20.856  0.00  0.00    +0.000 A 
ENDBRANCH   8  15
ENDBRANCH   1  12
BRANCH   3  21
ATOM     21  C   UNL     1      -2.001  13.347  21.342  0.00  0.00    +0.000 A 
ATOM     22  S   UNL     1      -1.094  14.804  21.398  0.00  0.00    +0.000 S 
ATOM     23  C   UNL     1      -2.498  15.744  21.651  0.00  0.00    +0.000 A 
ATOM     24  C   UNL     1      -3.622  14.976  21.431  0.00  0.00    +0.000 A 
ATOM     25  C   UNL     1      -3.299  13.611  21.769  0.00  0.00    +0.000 A 
ATOM     26  C   UNL     1      -4.947  15.605  21.139  0.00  0.00    +0.000 C 
ATOM     27  C   UNL     1      -5.606  16.227  22.355  0.00  0.00    +0.000 C 
ATOM     28  C   UNL     1      -4.984  17.575  22.736  0.00  0.00    +0.000 C 
ATOM     29  C   UNL     1      -3.492  17.545  23.118  0.00  0.00    +0.000 C 
ATOM     30  C   UNL     1      -2.486  17.208  21.987  0.00  0.00    +0.000 C 
BRANCH  25  31
ATOM     31  C   UNL     1      -4.179  12.640  22.404  0.00  0.00    +0.000 C 
ATOM     32  N   UNL     1      -3.787  12.275  23.668  0.00  0.00    +0.000 N 
ATOM     33  O   UNL     1      -5.260  12.277  21.946  0.00  0.00    +0.000 OA
ATOM     34  H   UNL     1      -3.095  12.835  24.153  0.00  0.00    +0.000 HD
ATOM     35  H   UNL     1      -4.499  11.844  24.242  0.00  0.00    +0.000 HD
ENDBRANCH  25  31
ENDBRANCH   3  21
TORSDOF 4
ENDMDL
MODEL 7
REMARK VINA RESULT:      -7.9      3.942      4.772
REMARK  Name = 
REMARK  5 active torsions:
REMARK  status: ('A' for Active; 'I' for Inactive)
REMARK    1  A    between atoms: C_1  and  C_2
REMARK    2  A    between atoms: C_4  and  C_5
REMARK    3  A    between atoms: C_14  and  C_15
REMARK    4  A    between atoms: N_17  and  C_18
REMARK    5  A    between atoms: C_22  and  C_23
REMARK                            x       y       z     vdW  Elec       q    Type
REMARK                         _______ _______ _______ _____ _____    ______ ____
ROOT
ATOM      1  C   UNL     1      -0.388  10.794  18.477  0.00  0.00    +0.000 C 
ATOM      2  O   UNL     1      -0.115  11.966  18.248  0.00  0.00    +0.000 OA
ATOM      3  N   UNL     1      -1.675  10.321  18.719  0.00  0.00    +0.000 N 
ATOM      4  H   UNL     1      -1.784   9.310  18.694  0.00  0.00    +0.000 HD
ENDROOT
BRANCH   1  12
ATOM      5  C   UNL     1       1.652   6.472  20.965  0.00  0.00    +0.000 C 
ATOM      6  C   UNL     1       2.302   6.919  19.693  0.00  0.00    +0.000 A 
ATOM      7  C   UNL     1       3.329   6.268  19.131  0.00  0.00    +0.000 A 
ATOM      8  C   UNL     1       3.901   6.864  17.876  0.00  0.00    +0.000 A 
ATOM      9  N   UNL     1       3.410   7.914  17.266  0.00  0.00    +0.000 NA
ATOM     10  C   UNL     1       2.335   8.536  17.849  0.00  0.00    +0.000 A 
ATOM     11  N   UNL     1       1.643   9.598  17.465  0.00  0.00    +0.000 NA
ATOM     12  C   UNL     1       0.683   9.752  18.453  0.00  0.00    +0.000 A 
ATOM     13  N   UNL     1       0.776   8.845  19.439  0.00  0.00    +0.000 NA
ATOM     14  N   UNL     1       1.800   8.063  19.057  0.00  0.00    +0.000 N 
BRANCH   8  15
ATOM     15  C   UNL     1       5.114   6.169  17.328  0.00  0.00    +0.000 A 
ATOM     16  C   UNL     1       6.124   5.765  18.210  0.00  0.00    +0.000 A 
ATOM     17  C   UNL     1       7.249   5.085  17.730  0.00  0.00    +0.000 A 
ATOM     18  C   UNL     1       7.371   4.800  16.370  0.00  0.00    +0.000 A 
ATOM     19  C   UNL     1       6.375   5.200  15.484  0.00  0.00    +0.000 A 
ATOM     20  C   UNL     1       5.248   5.878  15.961  0.00  0.00    +0.000 A 
ENDBRANCH   8  15
ENDBRANCH   1  12
BRANCH   3  21
ATOM     21  C   UNL     1      -2.837  11.092  18.591  0.00  0.00    +0.000 A 
ATOM     22  S   UNL     1      -3.817  11.054  17.181  0.00  0.00    +0.000 S 
ATOM     23  C   UNL     1      -4.999  12.060  17.897  0.00  0.00    +0.000 A 
ATOM     24  C   UNL     1      -4.752  12.183  19.249  0.00  0.00    +0.000 A 
ATOM     25  C   UNL     1      -3.328  12.070  19.452  0.00  0.00    +0.000 A 
ATOM     26  C   UNL     1      -5.825  12.610  20.198  0.00  0.00    +0.000 C 
ATOM     27  C   UNL     1      -6.153  14.090  20.119  0.00  0.00    +0.000 C 
ATOM     28  C   UNL     1      -7.013  14.437  18.899  0.00  0.00    +0.000 C 
ATOM     29  C   UNL     1      -6.383  14.140  17.525  0.00  0.00    +0.000 C 
ATOM     30  C   UNL     1      -6.168  12.648  17.160  0.00  0.00    +0.000 C 
BRANCH  25  31
ATOM     31  C   UNL     1      -2.525  12.805  20.418  0.00  0.00    +0.000 C 
ATOM     32  N   UNL     1      -1.879  13.897  19.891  0.00  0.00    +0.000 N 
ATOM     33  O   UNL     1      -2.523  12.591  21.628  0.00  0.00    +0.000 OA
ATOM     34  H   UNL     1      -2.163  14.250  18.985  0.00  0.00    +0.000 HD
ATOM     35  H   UNL     1      -1.559  14.583  20.561  0.00  0.00    +0.000 HD
ENDBRANCH  25  31
ENDBRANCH   3  21
TORSDOF 4
ENDMDL
MODEL 8
REMARK VINA RESULT:      -7.9      2.677      3.469
REMARK  Name = 
REMARK  5 active torsions:
REMARK  status: ('A' for Active; 'I' for Inactive)
REMARK    1  A    between atoms: C_1  and  C_2
REMARK    2  A    between atoms: C_4  and  C_5
REMARK    3  A    between atoms: C_14  and  C_15
REMARK    4  A    between atoms: N_17  and  C_18
REMARK    5  A    between atoms: C_22  and  C_23
REMARK                            x       y       z     vdW  Elec       q    Type
REMARK                         _______ _______ _______ _____ _____    ______ ____
ROOT
ATOM      1  C   UNL     1       0.802  10.660  20.069  0.00  0.00    +0.000 C 
ATOM      2  O   UNL     1       1.151  11.781  19.721  0.00  0.00    +0.000 OA
ATOM      3  N   UNL     1      -0.282  10.398  20.904  0.00  0.00    +0.000 N 
ATOM      4  H   UNL     1      -0.578   9.427  20.949  0.00  0.00    +0.000 HD
ENDROOT
BRANCH   1  12
ATOM      5  C   UNL     1       1.729   5.402  20.794  0.00  0.00    +0.000 C 
ATOM      6  C   UNL     1       2.355   6.066  19.609  0.00  0.00    +0.000 A 
ATOM      7  C   UNL     1       3.090   5.402  18.705  0.00  0.00    +0.000 A 
ATOM      8  C   UNL     1       3.687   6.216  17.592  0.00  0.00    +0.000 A 
ATOM      9  N   UNL     1       3.466   7.494  17.410  0.00  0.00    +0.000 NA
ATOM     10  C   UNL     1       2.679   8.135  18.333  0.00  0.00    +0.000 A 
ATOM     11  N   UNL     1       2.291   9.400  18.404  0.00  0.00    +0.000 NA
ATOM     12  C   UNL     1       1.517   9.454  19.552  0.00  0.00    +0.000 A 
ATOM     13  N   UNL     1       1.438   8.281  20.202  0.00  0.00    +0.000 NA
ATOM     14  N   UNL     1       2.148   7.440  19.431  0.00  0.00    +0.000 N 
BRANCH   8  15
ATOM     15  C   UNL     1       4.588   5.463  16.656  0.00  0.00    +0.000 A 
ATOM     16  C   UNL     1       4.744   4.082  16.824  0.00  0.00    +0.000 A 
ATOM     17  C   UNL     1       5.551   3.351  15.944  0.00  0.00    +0.000 A 
ATOM     18  C   UNL     1       6.200   3.992  14.890  0.00  0.00    +0.000 A 
ATOM     19  C   UNL     1       6.054   5.365  14.715  0.00  0.00    +0.000 A 
ATOM     20  C   UNL     1       5.248   6.098  15.592  0.00  0.00    +0.000 A 
ENDBRANCH   8  15
ENDBRANCH   1  12
BRANCH   3  21
ATOM     21  C   UNL     1      -1.197  11.366  21.335  0.00  0.00    +0.000 A 
ATOM     22  S   UNL     1      -1.680  11.512  22.976  0.00  0.00    +0.000 S 
ATOM     23  C   UNL     1      -2.584  12.925  22.653  0.00  0.00    +0.000 A 
ATOM     24  C   UNL     1      -2.292  13.388  21.386  0.00  0.00    +0.000 A 
ATOM     25  C   UNL     1      -1.948  12.252  20.567  0.00  0.00    +0.000 A 
ATOM     26  C   UNL     1      -2.568  14.805  20.996  0.00  0.00    +0.000 C 
ATOM     27  C   UNL     1      -4.038  15.098  20.767  0.00  0.00    +0.000 C 
ATOM     28  C   UNL     1      -4.820  15.246  22.077  0.00  0.00    +0.000 C 
ATOM     29  C   UNL     1      -4.843  14.006  22.991  0.00  0.00    +0.000 C 
ATOM     30  C   UNL     1      -3.498  13.590  23.642  0.00  0.00    +0.000 C 
BRANCH  25  31
ATOM     31  C   UNL     1      -2.276  12.061  19.161  0.00  0.00    +0.000 C 
ATOM     32  N   UNL     1      -1.437  12.721  18.298  0.00  0.00    +0.000 N 
ATOM     33  O   UNL     1      -3.119  11.270  18.745  0.00  0.00    +0.000 OA
ATOM     34  H   UNL     1      -0.556  13.082  18.644  0.00  0.00    +0.000 HD
ATOM     35  H   UNL     1      -1.445  12.393  17.342  0.00  0.00    +0.000 HD
ENDBRANCH  25  31
ENDBRANCH   3  21
TORSDOF 4
ENDMDL
MODEL 9
REMARK VINA RESULT:      -7.9      2.762      3.554
REMARK  Name = 
REMARK  5 active torsions:
REMARK  status: ('A' for Active; 'I' for Inactive)
REMARK    1  A    between atoms: C_1  and  C_2
REMARK    2  A    between atoms: C_4  and  C_5
REMARK    3  A    between atoms: C_14  and  C_15
REMARK    4  A    between atoms: N_17  and  C_18
REMARK    5  A    between atoms: C_22  and  C_23
REMARK                            x       y       z     vdW  Elec       q    Type
REMARK                         _______ _______ _______ _____ _____    ______ ____
ROOT
ATOM      1  C   UNL     1       0.376  10.937  19.315  0.00  0.00    +0.000 C 
ATOM      2  O   UNL     1       0.617  12.046  18.854  0.00  0.00    +0.000 OA
ATOM      3  N   UNL     1      -0.737  10.638  20.097  0.00  0.00    +0.000 N 
ATOM      4  H   UNL     1      -0.917   9.648  20.243  0.00  0.00    +0.000 HD
ENDROOT
BRANCH   1  12
ATOM      5  C   UNL     1       1.803   5.934  20.717  0.00  0.00    +0.000 C 
ATOM      6  C   UNL     1       2.473   6.546  19.527  0.00  0.00    +0.000 A 
ATOM      7  C   UNL     1       3.370   5.890  18.777  0.00  0.00    +0.000 A 
ATOM      8  C   UNL     1       3.986   6.653  17.640  0.00  0.00    +0.000 A 
ATOM      9  N   UNL     1       3.644   7.869  17.294  0.00  0.00    +0.000 NA
ATOM     10  C   UNL     1       2.697   8.499  18.060  0.00  0.00    +0.000 A 
ATOM     11  N   UNL     1       2.165   9.707  17.950  0.00  0.00    +0.000 NA
ATOM     12  C   UNL     1       1.272   9.782  19.007  0.00  0.00    +0.000 A 
ATOM     13  N   UNL     1       1.256   8.681  19.776  0.00  0.00    +0.000 NA
ATOM     14  N   UNL     1       2.134   7.860  19.176  0.00  0.00    +0.000 N 
BRANCH   8  15
ATOM     15  C   UNL     1       5.060   5.925  16.883  0.00  0.00    +0.000 A 
ATOM     16  C   UNL     1       6.066   5.263  17.597  0.00  0.00    +0.000 A 
ATOM     17  C   UNL     1       7.060   4.548  16.917  0.00  0.00    +0.000 A 
ATOM     18  C   UNL     1       7.051   4.485  15.524  0.00  0.00    +0.000 A 
ATOM     19  C   UNL     1       6.057   5.142  14.804  0.00  0.00    +0.000 A 
ATOM     20  C   UNL     1       5.062   5.856  15.481  0.00  0.00    +0.000 A 
ENDBRANCH   8  15
ENDBRANCH   1  12
BRANCH   3  21
ATOM     21  C   UNL     1      -1.796  11.522  20.335  0.00  0.00    +0.000 A 
ATOM     22  S   UNL     1      -2.940  11.938  19.125  0.00  0.00    +0.000 S 
ATOM     23  C   UNL     1      -3.883  12.834  20.232  0.00  0.00    +0.000 A 
ATOM     24  C   UNL     1      -3.456  12.586  21.520  0.00  0.00    +0.000 A 
ATOM     25  C   UNL     1      -2.045  12.290  21.470  0.00  0.00    +0.000 A 
ATOM     26  C   UNL     1      -4.339  12.857  22.696  0.00  0.00    +0.000 C 
ATOM     27  C   UNL     1      -4.480  14.331  23.024  0.00  0.00    +0.000 C 
ATOM     28  C   UNL     1      -5.432  15.058  22.067  0.00  0.00    +0.000 C 
ATOM     29  C   UNL     1      -5.022  15.062  20.582  0.00  0.00    +0.000 C 
ATOM     30  C   UNL     1      -5.049  13.699  19.844  0.00  0.00    +0.000 C 
BRANCH  25  31
ATOM     31  C   UNL     1      -1.039  12.676  22.449  0.00  0.00    +0.000 C 
ATOM     32  N   UNL     1      -0.909  14.034  22.610  0.00  0.00    +0.000 N 
ATOM     33  O   UNL     1      -0.453  11.891  23.191  0.00  0.00    +0.000 OA
ATOM     34  H   UNL     1      -1.631  14.646  22.247  0.00  0.00    +0.000 HD
ATOM     35  H   UNL     1      -0.451  14.334  23.460  0.00  0.00    +0.000 HD
ENDBRANCH  25  31
ENDBRANCH   3  21
TORSDOF 4
ENDMDL
