MODEL 1
REMARK VINA RESULT:      -7.0      0.000      0.000
REMARK  Name = 
REMARK  5 active torsions:
REMARK  status: ('A' for Active; 'I' for Inactive)
REMARK    1  A    between atoms: C_1  and  C_2
REMARK    2  A    between atoms: N_4  and  C_5
REMARK    3  A    between atoms: C_6  and  C_7
REMARK    4  A    between atoms: C_8  and  N_9
REMARK    5  A    between atoms: C_10  and  C_12
REMARK                            x       y       z     vdW  Elec       q    Type
REMARK                         _______ _______ _______ _____ _____    ______ ____
ROOT
ATOM      1  N   UNL     1       3.704   4.485  17.790  0.00  0.00    +0.000 N 
ATOM      2  C   UNL     1       5.084   4.373  17.803  0.00  0.00    +0.000 C 
ATOM      3  O   UNL     1       5.775   4.153  18.791  0.00  0.00    +0.000 OA
ATOM      4  H   UNL     1       3.232   4.227  16.933  0.00  0.00    +0.000 HD
ENDROOT
BRANCH   1  12
ATOM      5  C   UNL     1       2.445   6.891  19.651  0.00  0.00    +0.000 C 
ATOM      6  C   UNL     1       2.431   5.415  19.811  0.00  0.00    +0.000 A 
ATOM      7  N   UNL     1       1.758   4.880  20.840  0.00  0.00    +0.000 NA
ATOM      8  N   UNL     1       1.875   3.557  20.663  0.00  0.00    +0.000 N 
ATOM      9  C   UNL     1       1.325   2.676  21.666  0.00  0.00    +0.000 C 
ATOM     10  C   UNL     1       2.540   3.209  19.514  0.00  0.00    +0.000 A 
ATOM     11  C   UNL     1       2.814   1.809  19.110  0.00  0.00    +0.000 C 
ATOM     12  C   UNL     1       2.952   4.405  18.955  0.00  0.00    +0.000 A 
ENDBRANCH   1  12
BRANCH   2  13
ATOM     13  C   UNL     1       5.754   4.433  16.474  0.00  0.00    +0.000 A 
ATOM     14  C   UNL     1       5.118   3.994  15.306  0.00  0.00    +0.000 A 
ATOM     15  C   UNL     1       5.738   4.176  14.065  0.00  0.00    +0.000 A 
ATOM     16  C   UNL     1       6.990   4.790  13.990  0.00  0.00    +0.000 A 
ATOM     17 CL   UNL     1       7.725   5.054  12.458  0.00  0.00    +0.000 Cl
ATOM     18  C   UNL     1       7.639   5.209  15.150  0.00  0.00    +0.000 A 
ATOM     19  C   UNL     1       7.019   5.035  16.390  0.00  0.00    +0.000 A 
ENDBRANCH   2  13
TORSDOF 2
ENDMDL
MODEL 2
REMARK VINA RESULT:      -6.7      0.328      1.185
REMARK  Name = 
REMARK  5 active torsions:
REMARK  status: ('A' for Active; 'I' for Inactive)
REMARK    1  A    between atoms: C_1  and  C_2
REMARK    2  A    between atoms: N_4  and  C_5
REMARK    3  A    between atoms: C_6  and  C_7
REMARK    4  A    between atoms: C_8  and  N_9
REMARK    5  A    between atoms: C_10  and  C_12
REMARK                            x       y       z     vdW  Elec       q    Type
REMARK                         _______ _______ _______ _____ _____    ______ ____
ROOT
ATOM      1  N   UNL     1       3.639   4.558  17.649  0.00  0.00    +0.000 N 
ATOM      2  C   UNL     1       5.022   4.590  17.594  0.00  0.00    +0.000 C 
ATOM      3  O   UNL     1       5.779   4.488  18.552  0.00  0.00    +0.000 OA
ATOM      4  H   UNL     1       3.156   4.214  16.829  0.00  0.00    +0.000 HD
ENDROOT
BRANCH   1  12
ATOM      5  C   UNL     1       2.452   6.925  19.605  0.00  0.00    +0.000 C 
ATOM      6  C   UNL     1       2.470   5.447  19.749  0.00  0.00    +0.000 A 
ATOM      7  N   UNL     1       1.865   4.891  20.809  0.00  0.00    +0.000 NA
ATOM      8  N   UNL     1       1.992   3.572  20.610  0.00  0.00    +0.000 N 
ATOM      9  C   UNL     1       1.514   2.672  21.633  0.00  0.00    +0.000 C 
ATOM     10  C   UNL     1       2.596   3.246  19.421  0.00  0.00    +0.000 A 
ATOM     11  C   UNL     1       2.868   1.855  18.987  0.00  0.00    +0.000 C 
ATOM     12  C   UNL     1       2.957   4.454  18.853  0.00  0.00    +0.000 A 
ENDBRANCH   1  12
BRANCH   2  13
ATOM     13  C   UNL     1       5.618   4.658  16.230  0.00  0.00    +0.000 A 
ATOM     14  C   UNL     1       6.913   5.149  16.015  0.00  0.00    +0.000 A 
ATOM     15  C   UNL     1       7.476   5.087  14.735  0.00  0.00    +0.000 A 
ATOM     16  C   UNL     1       6.749   4.543  13.675  0.00  0.00    +0.000 A 
ATOM     17 CL   UNL     1       7.465   4.428  12.115  0.00  0.00    +0.000 Cl
ATOM     18  C   UNL     1       5.453   4.075  13.877  0.00  0.00    +0.000 A 
ATOM     19  C   UNL     1       4.889   4.129  15.155  0.00  0.00    +0.000 A 
ENDBRANCH   2  13
TORSDOF 2
ENDMDL
MODEL 3
REMARK VINA RESULT:      -6.7      4.490      6.821
REMARK  Name = 
REMARK  5 active torsions:
REMARK  status: ('A' for Active; 'I' for Inactive)
REMARK    1  A    between atoms: C_1  and  C_2
REMARK    2  A    between atoms: N_4  and  C_5
REMARK    3  A    between atoms: C_6  and  C_7
REMARK    4  A    between atoms: C_8  and  N_9
REMARK    5  A    between atoms: C_10  and  C_12
REMARK                            x       y       z     vdW  Elec       q    Type
REMARK                         _______ _______ _______ _____ _____    ______ ____
ROOT
ATOM      1  N   UNL     1       2.734   6.124  20.182  0.00  0.00    +0.000 N 
ATOM      2  C   UNL     1       2.296   7.154  19.368  0.00  0.00    +0.000 C 
ATOM      3  O   UNL     1       2.321   7.159  18.143  0.00  0.00    +0.000 OA
ATOM      4  H   UNL     1       2.284   6.029  21.084  0.00  0.00    +0.000 HD
ENDROOT
BRANCH   1  12
ATOM      5  C   UNL     1       5.841   5.573  19.246  0.00  0.00    +0.000 C 
ATOM      6  C   UNL     1       4.633   4.710  19.202  0.00  0.00    +0.000 A 
ATOM      7  N   UNL     1       4.755   3.446  18.771  0.00  0.00    +0.000 NA
ATOM      8  N   UNL     1       3.529   2.924  18.920  0.00  0.00    +0.000 N 
ATOM      9  C   UNL     1       3.292   1.577  18.459  0.00  0.00    +0.000 C 
ATOM     10  C   UNL     1       2.629   3.783  19.501  0.00  0.00    +0.000 A 
ATOM     11  C   UNL     1       1.207   3.445  19.751  0.00  0.00    +0.000 C 
ATOM     12  C   UNL     1       3.313   4.974  19.660  0.00  0.00    +0.000 A 
ENDBRANCH   1  12
BRANCH   2  13
ATOM     13  C   UNL     1       1.655   8.305  20.063  0.00  0.00    +0.000 A 
ATOM     14  C   UNL     1       1.174   9.417  19.360  0.00  0.00    +0.000 A 
ATOM     15  C   UNL     1       0.475  10.422  20.039  0.00  0.00    +0.000 A 
ATOM     16  C   UNL     1       0.262  10.319  21.415  0.00  0.00    +0.000 A 
ATOM     17 CL   UNL     1      -0.639  11.534  22.235  0.00  0.00    +0.000 Cl
ATOM     18  C   UNL     1       0.756   9.227  22.125  0.00  0.00    +0.000 A 
ATOM     19  C   UNL     1       1.449   8.219  21.449  0.00  0.00    +0.000 A 
ENDBRANCH   2  13
TORSDOF 2
ENDMDL
MODEL 4
REMARK VINA RESULT:      -6.6      4.401      6.636
REMARK  Name = 
REMARK  5 active torsions:
REMARK  status: ('A' for Active; 'I' for Inactive)
REMARK    1  A    between atoms: C_1  and  C_2
REMARK    2  A    between atoms: N_4  and  C_5
REMARK    3  A    between atoms: C_6  and  C_7
REMARK    4  A    between atoms: C_8  and  N_9
REMARK    5  A    between atoms: C_10  and  C_12
REMARK                            x       y       z     vdW  Elec       q    Type
REMARK                         _______ _______ _______ _____ _____    ______ ____
ROOT
ATOM      1  N   UNL     1       2.856   6.000  20.108  0.00  0.00    +0.000 N 
ATOM      2  C   UNL     1       2.390   6.968  19.235  0.00  0.00    +0.000 C 
ATOM      3  O   UNL     1       2.435   6.910  18.011  0.00  0.00    +0.000 OA
ATOM      4  H   UNL     1       2.396   5.934  21.006  0.00  0.00    +0.000 HD
ENDROOT
BRANCH   1  12
ATOM      5  C   UNL     1       6.014   5.510  19.317  0.00  0.00    +0.000 C 
ATOM      6  C   UNL     1       4.835   4.609  19.260  0.00  0.00    +0.000 A 
ATOM      7  N   UNL     1       5.011   3.334  18.884  0.00  0.00    +0.000 NA
ATOM      8  N   UNL     1       3.796   2.781  19.006  0.00  0.00    +0.000 N 
ATOM      9  C   UNL     1       3.618   1.410  18.589  0.00  0.00    +0.000 C 
ATOM     10  C   UNL     1       2.848   3.633  19.517  0.00  0.00    +0.000 A 
ATOM     11  C   UNL     1       1.428   3.260  19.724  0.00  0.00    +0.000 C 
ATOM     12  C   UNL     1       3.489   4.850  19.655  0.00  0.00    +0.000 A 
ENDBRANCH   1  12
BRANCH   2  13
ATOM     13  C   UNL     1       1.691   8.126  19.859  0.00  0.00    +0.000 A 
ATOM     14  C   UNL     1       1.416   8.169  21.233  0.00  0.00    +0.000 A 
ATOM     15  C   UNL     1       0.864   9.324  21.797  0.00  0.00    +0.000 A 
ATOM     16  C   UNL     1       0.583  10.431  20.992  0.00  0.00    +0.000 A 
ATOM     17 CL   UNL     1      -0.051  11.865  21.700  0.00  0.00    +0.000 Cl
ATOM     18  C   UNL     1       0.833  10.387  19.623  0.00  0.00    +0.000 A 
ATOM     19  C   UNL     1       1.390   9.237  19.057  0.00  0.00    +0.000 A 
ENDBRANCH   2  13
TORSDOF 2
ENDMDL
MODEL 5
REMARK VINA RESULT:      -6.4      4.149      6.081
REMARK  Name = 
REMARK  5 active torsions:
REMARK  status: ('A' for Active; 'I' for Inactive)
REMARK    1  A    between atoms: C_1  and  C_2
REMARK    2  A    between atoms: N_4  and  C_5
REMARK    3  A    between atoms: C_6  and  C_7
REMARK    4  A    between atoms: C_8  and  N_9
REMARK    5  A    between atoms: C_10  and  C_12
REMARK                            x       y       z     vdW  Elec       q    Type
REMARK                         _______ _______ _______ _____ _____    ______ ____
ROOT
ATOM      1  N   UNL     1       3.090   6.292  18.561  0.00  0.00    +0.000 N 
ATOM      2  C   UNL     1       2.298   6.834  19.559  0.00  0.00    +0.000 C 
ATOM      3  O   UNL     1       2.037   6.304  20.633  0.00  0.00    +0.000 OA
ATOM      4  H   UNL     1       3.581   6.944  17.963  0.00  0.00    +0.000 HD
ENDROOT
BRANCH   1  12
ATOM      5  C   UNL     1       6.155   5.392  19.353  0.00  0.00    +0.000 C 
ATOM      6  C   UNL     1       4.965   4.593  18.965  0.00  0.00    +0.000 A 
ATOM      7  N   UNL     1       5.053   3.255  18.968  0.00  0.00    +0.000 NA
ATOM      8  N   UNL     1       3.818   2.840  18.652  0.00  0.00    +0.000 N 
ATOM      9  C   UNL     1       3.589   1.425  18.482  0.00  0.00    +0.000 C 
ATOM     10  C   UNL     1       2.909   3.860  18.513  0.00  0.00    +0.000 A 
ATOM     11  C   UNL     1       1.488   3.655  18.145  0.00  0.00    +0.000 C 
ATOM     12  C   UNL     1       3.640   5.023  18.672  0.00  0.00    +0.000 A 
ENDBRANCH   1  12
BRANCH   2  13
ATOM     13  C   UNL     1       1.813   8.223  19.324  0.00  0.00    +0.000 A 
ATOM     14  C   UNL     1       1.111   8.936  20.305  0.00  0.00    +0.000 A 
ATOM     15  C   UNL     1       0.776  10.276  20.085  0.00  0.00    +0.000 A 
ATOM     16  C   UNL     1       1.134  10.901  18.888  0.00  0.00    +0.000 A 
ATOM     17 CL   UNL     1       0.760  12.562  18.644  0.00  0.00    +0.000 Cl
ATOM     18  C   UNL     1       1.812  10.192  17.899  0.00  0.00    +0.000 A 
ATOM     19  C   UNL     1       2.154   8.855  18.118  0.00  0.00    +0.000 A 
ENDBRANCH   2  13
TORSDOF 2
ENDMDL
MODEL 6
REMARK VINA RESULT:      -6.4      4.197      6.153
REMARK  Name = 
REMARK  5 active torsions:
REMARK  status: ('A' for Active; 'I' for Inactive)
REMARK    1  A    between atoms: C_1  and  C_2
REMARK    2  A    between atoms: N_4  and  C_5
REMARK    3  A    between atoms: C_6  and  C_7
REMARK    4  A    between atoms: C_8  and  N_9
REMARK    5  A    between atoms: C_10  and  C_12
REMARK                            x       y       z     vdW  Elec       q    Type
REMARK                         _______ _______ _______ _____ _____    ______ ____
ROOT
ATOM      1  N   UNL     1       3.135   6.332  18.551  0.00  0.00    +0.000 N 
ATOM      2  C   UNL     1       2.334   6.865  19.546  0.00  0.00    +0.000 C 
ATOM      3  O   UNL     1       2.049   6.318  20.606  0.00  0.00    +0.000 OA
ATOM      4  H   UNL     1       3.644   6.987  17.972  0.00  0.00    +0.000 HD
ENDROOT
BRANCH   1  12
ATOM      5  C   UNL     1       6.185   5.382  19.347  0.00  0.00    +0.000 C 
ATOM      6  C   UNL     1       4.986   4.603  18.942  0.00  0.00    +0.000 A 
ATOM      7  N   UNL     1       5.057   3.264  18.928  0.00  0.00    +0.000 NA
ATOM      8  N   UNL     1       3.819   2.869  18.599  0.00  0.00    +0.000 N 
ATOM      9  C   UNL     1       3.574   1.460  18.410  0.00  0.00    +0.000 C 
ATOM     10  C   UNL     1       2.924   3.902  18.469  0.00  0.00    +0.000 A 
ATOM     11  C   UNL     1       1.503   3.721  18.091  0.00  0.00    +0.000 C 
ATOM     12  C   UNL     1       3.669   5.054  18.648  0.00  0.00    +0.000 A 
ENDBRANCH   1  12
BRANCH   2  13
ATOM     13  C   UNL     1       1.868   8.263  19.328  0.00  0.00    +0.000 A 
ATOM     14  C   UNL     1       2.044   8.916  18.101  0.00  0.00    +0.000 A 
ATOM     15  C   UNL     1       1.489  10.185  17.902  0.00  0.00    +0.000 A 
ATOM     16  C   UNL     1       0.765  10.802  18.925  0.00  0.00    +0.000 A 
ATOM     17 CL   UNL     1       0.046  12.341  18.658  0.00  0.00    +0.000 Cl
ATOM     18  C   UNL     1       0.606  10.168  20.155  0.00  0.00    +0.000 A 
ATOM     19  C   UNL     1       1.153   8.898  20.355  0.00  0.00    +0.000 A 
ENDBRANCH   2  13
TORSDOF 2
ENDMDL
MODEL 7
REMARK VINA RESULT:      -6.3      4.050      7.009
REMARK  Name = 
REMARK  5 active torsions:
REMARK  status: ('A' for Active; 'I' for Inactive)
REMARK    1  A    between atoms: C_1  and  C_2
REMARK    2  A    between atoms: N_4  and  C_5
REMARK    3  A    between atoms: C_6  and  C_7
REMARK    4  A    between atoms: C_8  and  N_9
REMARK    5  A    between atoms: C_10  and  C_12
REMARK                            x       y       z     vdW  Elec       q    Type
REMARK                         _______ _______ _______ _____ _____    ______ ____
ROOT
ATOM      1  N   UNL     1       3.210   6.733  17.972  0.00  0.00    +0.000 N 
ATOM      2  C   UNL     1       2.709   6.703  19.262  0.00  0.00    +0.000 C 
ATOM      3  O   UNL     1       2.942   5.840  20.102  0.00  0.00    +0.000 OA
ATOM      4  H   UNL     1       3.323   7.643  17.546  0.00  0.00    +0.000 HD
ENDROOT
BRANCH   1  12
ATOM      5  C   UNL     1       2.478   3.588  17.329  0.00  0.00    +0.000 C 
ATOM      6  C   UNL     1       3.754   4.341  17.229  0.00  0.00    +0.000 A 
ATOM      7  N   UNL     1       4.839   3.718  16.746  0.00  0.00    +0.000 NA
ATOM      8  N   UNL     1       5.783   4.668  16.716  0.00  0.00    +0.000 N 
ATOM      9  C   UNL     1       7.121   4.298  16.320  0.00  0.00    +0.000 C 
ATOM     10  C   UNL     1       5.333   5.909  17.097  0.00  0.00    +0.000 A 
ATOM     11  C   UNL     1       6.193   7.114  17.167  0.00  0.00    +0.000 C 
ATOM     12  C   UNL     1       4.017   5.717  17.477  0.00  0.00    +0.000 A 
ENDBRANCH   1  12
BRANCH   2  13
ATOM     13  C   UNL     1       1.894   7.881  19.672  0.00  0.00    +0.000 A 
ATOM     14  C   UNL     1       1.596   8.918  18.778  0.00  0.00    +0.000 A 
ATOM     15  C   UNL     1       0.732   9.947  19.170  0.00  0.00    +0.000 A 
ATOM     16  C   UNL     1       0.173   9.944  20.449  0.00  0.00    +0.000 A 
ATOM     17 CL   UNL     1      -0.925  11.186  20.907  0.00  0.00    +0.000 Cl
ATOM     18  C   UNL     1       0.482   8.928  21.351  0.00  0.00    +0.000 A 
ATOM     19  C   UNL     1       1.340   7.895  20.961  0.00  0.00    +0.000 A 
ENDBRANCH   2  13
TORSDOF 2
ENDMDL
MODEL 8
REMARK VINA RESULT:      -6.3      1.179      2.540
REMARK  Name = 
REMARK  5 active torsions:
REMARK  status: ('A' for Active; 'I' for Inactive)
REMARK    1  A    between atoms: C_1  and  C_2
REMARK    2  A    between atoms: N_4  and  C_5
REMARK    3  A    between atoms: C_6  and  C_7
REMARK    4  A    between atoms: C_8  and  N_9
REMARK    5  A    between atoms: C_10  and  C_12
REMARK                            x       y       z     vdW  Elec       q    Type
REMARK                         _______ _______ _______ _____ _____    ______ ____
ROOT
ATOM      1  N   UNL     1       3.671   5.285  17.529  0.00  0.00    +0.000 N 
ATOM      2  C   UNL     1       5.050   5.319  17.408  0.00  0.00    +0.000 C 
ATOM      3  O   UNL     1       5.841   5.596  18.302  0.00  0.00    +0.000 OA
ATOM      4  H   UNL     1       3.173   4.651  16.918  0.00  0.00    +0.000 HD
ENDROOT
BRANCH   1  12
ATOM      5  C   UNL     1       3.036   3.443  20.182  0.00  0.00    +0.000 C 
ATOM      6  C   UNL     1       2.698   4.853  19.860  0.00  0.00    +0.000 A 
ATOM      7  N   UNL     1       2.073   5.597  20.784  0.00  0.00    +0.000 NA
ATOM      8  N   UNL     1       1.981   6.812  20.226  0.00  0.00    +0.000 N 
ATOM      9  C   UNL     1       1.269   7.846  20.938  0.00  0.00    +0.000 C 
ATOM     10  C   UNL     1       2.589   6.905  18.998  0.00  0.00    +0.000 A 
ATOM     11  C   UNL     1       2.603   8.138  18.175  0.00  0.00    +0.000 C 
ATOM     12  C   UNL     1       3.033   5.626  18.714  0.00  0.00    +0.000 A 
ENDBRANCH   1  12
BRANCH   2  13
ATOM     13  C   UNL     1       5.598   4.884  16.093  0.00  0.00    +0.000 A 
ATOM     14  C   UNL     1       4.821   4.178  15.166  0.00  0.00    +0.000 A 
ATOM     15  C   UNL     1       5.338   3.891  13.898  0.00  0.00    +0.000 A 
ATOM     16  C   UNL     1       6.629   4.303  13.558  0.00  0.00    +0.000 A 
ATOM     17 CL   UNL     1       7.241   3.989  11.982  0.00  0.00    +0.000 Cl
ATOM     18  C   UNL     1       7.416   4.986  14.483  0.00  0.00    +0.000 A 
ATOM     19  C   UNL     1       6.900   5.279  15.748  0.00  0.00    +0.000 A 
ENDBRANCH   2  13
TORSDOF 2
ENDMDL
MODEL 9
REMARK VINA RESULT:      -6.3      3.996      6.971
REMARK  Name = 
REMARK  5 active torsions:
REMARK  status: ('A' for Active; 'I' for Inactive)
REMARK    1  A    between atoms: C_1  and  C_2
REMARK    2  A    between atoms: N_4  and  C_5
REMARK    3  A    between atoms: C_6  and  C_7
REMARK    4  A    between atoms: C_8  and  N_9
REMARK    5  A    between atoms: C_10  and  C_12
REMARK                            x       y       z     vdW  Elec       q    Type
REMARK                         _______ _______ _______ _____ _____    ______ ____
ROOT
ATOM      1  N   UNL     1       3.147   6.624  17.964  0.00  0.00    +0.000 N 
ATOM      2  C   UNL     1       2.718   6.609  19.280  0.00  0.00    +0.000 C 
ATOM      3  O   UNL     1       3.040   5.785  20.129  0.00  0.00    +0.000 OA
ATOM      4  H   UNL     1       3.190   7.525  17.507  0.00  0.00    +0.000 HD
ENDROOT
BRANCH   1  12
ATOM      5  C   UNL     1       2.496   3.464  17.306  0.00  0.00    +0.000 C 
ATOM      6  C   UNL     1       3.750   4.253  17.199  0.00  0.00    +0.000 A 
ATOM      7  N   UNL     1       4.846   3.664  16.700  0.00  0.00    +0.000 NA
ATOM      8  N   UNL     1       5.763   4.641  16.667  0.00  0.00    +0.000 N 
ATOM      9  C   UNL     1       7.106   4.311  16.254  0.00  0.00    +0.000 C 
ATOM     10  C   UNL     1       5.283   5.865  17.060  0.00  0.00    +0.000 A 
ATOM     11  C   UNL     1       6.109   7.094  17.130  0.00  0.00    +0.000 C 
ATOM     12  C   UNL     1       3.977   5.635  17.454  0.00  0.00    +0.000 A 
ENDBRANCH   1  12
BRANCH   2  13
ATOM     13  C   UNL     1       1.868   7.757  19.701  0.00  0.00    +0.000 A 
ATOM     14  C   UNL     1       1.356   7.860  21.001  0.00  0.00    +0.000 A 
ATOM     15  C   UNL     1       0.661   9.011  21.387  0.00  0.00    +0.000 A 
ATOM     16  C   UNL     1       0.472  10.054  20.477  0.00  0.00    +0.000 A 
ATOM     17 CL   UNL     1      -0.342  11.486  20.973  0.00  0.00    +0.000 Cl
ATOM     18  C   UNL     1       0.958   9.950  19.176  0.00  0.00    +0.000 A 
ATOM     19  C   UNL     1       1.659   8.804  18.789  0.00  0.00    +0.000 A 
ENDBRANCH   2  13
TORSDOF 2
ENDMDL
