MODEL 1
REMARK VINA RESULT:      -8.1      0.000      0.000
REMARK  Name = 
REMARK  8 active torsions:
REMARK  status: ('A' for Active; 'I' for Inactive)
REMARK    1  A    between atoms: C_1  and  C_2
REMARK    2  A    between atoms: N_4  and  C_5
REMARK    3  A    between atoms: C_5  and  C_6
REMARK    4  A    between atoms: C_5  and  C_7
REMARK    5  A    between atoms: C_10  and  O_11
REMARK    6  A    between atoms: O_11  and  C_12
REMARK    7  A    between atoms: N_15  and  C_16
REMARK    8  A    between atoms: C_23  and  C_24
REMARK                            x       y       z     vdW  Elec       q    Type
REMARK                         _______ _______ _______ _____ _____    ______ ____
ROOT
ATOM      1  C   UNL     1       0.710   9.622  18.930  0.00  0.00    +0.000 C 
ATOM      2  C   UNL     1       1.409  10.939  18.601  0.00  0.00    +0.000 C 
ATOM      3  C   UNL     1       0.798  11.954  19.563  0.00  0.00    +0.000 C 
ATOM      4  N   UNL     1      -0.553  11.475  19.793  0.00  0.00    +0.000 N 
ATOM      5  C   UNL     1      -0.693  10.073  19.414  0.00  0.00    +0.000 C 
ENDROOT
BRANCH   4   6
ATOM      6  C   UNL     1      -1.641  12.231  20.185  0.00  0.00    +0.000 A 
ATOM      7  N   UNL     1      -2.836  11.938  19.606  0.00  0.00    +0.000 NA
ATOM      8  C   UNL     1      -3.947  12.638  19.933  0.00  0.00    +0.000 A 
ATOM      9  N   UNL     1      -5.135  12.406  19.281  0.00  0.00    +0.000 N 
ATOM     10  C   UNL     1      -6.393  12.713  19.949  0.00  0.00    +0.000 C 
ATOM     11  C   UNL     1      -7.233  11.461  19.719  0.00  0.00    +0.000 C 
ATOM     12  C   UNL     1      -6.780  10.986  18.348  0.00  0.00    +0.000 C 
ATOM     13  C   UNL     1      -5.278  11.329  18.308  0.00  0.00    +0.000 C 
ATOM     14  C   UNL     1      -4.871  11.808  16.919  0.00  0.00    +0.000 C 
ATOM     15  N   UNL     1      -3.940  13.606  20.859  0.00  0.00    +0.000 NA
ATOM     16  C   UNL     1      -2.761  13.885  21.434  0.00  0.00    +0.000 A 
ATOM     17  C   UNL     1      -1.576  13.251  21.132  0.00  0.00    +0.000 A 
ATOM     18 CL   UNL     1      -0.181  13.741  22.017  0.00  0.00    +0.000 Cl
ENDBRANCH   4   6
BRANCH   1  19
ATOM     19  O   UNL     1       1.478   8.918  19.929  0.00  0.00    +0.000 OA
BRANCH  19  23
ATOM     20  C   UNL     1       3.281   5.348  18.641  0.00  0.00    +0.000 A 
ATOM     21  C   UNL     1       2.564   5.411  19.842  0.00  0.00    +0.000 A 
ATOM     22  C   UNL     1       1.970   6.618  20.257  0.00  0.00    +0.000 A 
ATOM     23  C   UNL     1       2.098   7.775  19.482  0.00  0.00    +0.000 A 
ATOM     24  C   UNL     1       2.797   7.705  18.281  0.00  0.00    +0.000 A 
ATOM     25  C   UNL     1       3.381   6.510  17.866  0.00  0.00    +0.000 A 
BRANCH  20  26
ATOM     26  C   UNL     1       3.906   4.054  18.140  0.00  0.00    +0.000 C 
ATOM     27  C   UNL     1       3.502   2.868  19.027  0.00  0.00    +0.000 C 
BRANCH  26  31
ATOM     28  C   UNL     1       7.550   4.491  17.183  0.00  0.00    +0.000 C 
ATOM     29  C   UNL     1       6.063   4.416  16.954  0.00  0.00    +0.000 C 
ATOM     30  O   UNL     1       5.551   4.545  15.848  0.00  0.00    +0.000 OA
ATOM     31  N   UNL     1       5.354   4.205  18.110  0.00  0.00    +0.000 N 
ATOM     32  H   UNL     1       5.865   4.055  18.969  0.00  0.00    +0.000 HD
ENDBRANCH  26  31
ENDBRANCH  20  26
ENDBRANCH  19  23
ENDBRANCH   1  19
TORSDOF 5
ENDMDL
MODEL 2
REMARK VINA RESULT:      -8.0      1.917      2.909
REMARK  Name = 
REMARK  8 active torsions:
REMARK  status: ('A' for Active; 'I' for Inactive)
REMARK    1  A    between atoms: C_1  and  C_2
REMARK    2  A    between atoms: N_4  and  C_5
REMARK    3  A    between atoms: C_5  and  C_6
REMARK    4  A    between atoms: C_5  and  C_7
REMARK    5  A    between atoms: C_10  and  O_11
REMARK    6  A    between atoms: O_11  and  C_12
REMARK    7  A    between atoms: N_15  and  C_16
REMARK    8  A    between atoms: C_23  and  C_24
REMARK                            x       y       z     vdW  Elec       q    Type
REMARK                         _______ _______ _______ _____ _____    ______ ____
ROOT
ATOM      1  C   UNL     1      -0.650  10.220  19.660  0.00  0.00    +0.000 C 
ATOM      2  C   UNL     1      -1.581  10.401  18.464  0.00  0.00    +0.000 C 
ATOM      3  C   UNL     1      -1.975  11.874  18.497  0.00  0.00    +0.000 C 
ATOM      4  N   UNL     1      -1.940  12.232  19.905  0.00  0.00    +0.000 N 
ATOM      5  C   UNL     1      -1.172  11.265  20.681  0.00  0.00    +0.000 C 
ENDROOT
BRANCH   4   6
ATOM      6  C   UNL     1      -2.635  13.260  20.512  0.00  0.00    +0.000 A 
ATOM      7  N   UNL     1      -3.898  12.986  20.934  0.00  0.00    +0.000 NA
ATOM      8  C   UNL     1      -4.644  13.943  21.533  0.00  0.00    +0.000 A 
ATOM      9  N   UNL     1      -5.952  13.694  21.875  0.00  0.00    +0.000 N 
ATOM     10  C   UNL     1      -6.568  14.450  22.959  0.00  0.00    +0.000 C 
ATOM     11  C   UNL     1      -7.242  13.375  23.805  0.00  0.00    +0.000 C 
ATOM     12  C   UNL     1      -7.670  12.342  22.776  0.00  0.00    +0.000 C 
ATOM     13  C   UNL     1      -6.548  12.372  21.722  0.00  0.00    +0.000 C 
ATOM     14  C   UNL     1      -7.120  12.204  20.319  0.00  0.00    +0.000 C 
ATOM     15  N   UNL     1      -4.174  15.172  21.779  0.00  0.00    +0.000 NA
ATOM     16  C   UNL     1      -2.924  15.435  21.369  0.00  0.00    +0.000 A 
ATOM     17  C   UNL     1      -2.111  14.536  20.717  0.00  0.00    +0.000 A 
ATOM     18 CL   UNL     1      -0.524  15.070  20.309  0.00  0.00    +0.000 Cl
ENDBRANCH   4   6
BRANCH   1  19
ATOM     19  O   UNL     1       0.711  10.441  19.236  0.00  0.00    +0.000 OA
BRANCH  19  23
ATOM     20  C   UNL     1       2.860   6.879  18.652  0.00  0.00    +0.000 A 
ATOM     21  C   UNL     1       2.187   7.135  19.852  0.00  0.00    +0.000 A 
ATOM     22  C   UNL     1       1.475   8.337  20.028  0.00  0.00    +0.000 A 
ATOM     23  C   UNL     1       1.441   9.298  19.013  0.00  0.00    +0.000 A 
ATOM     24  C   UNL     1       2.098   9.033  17.815  0.00  0.00    +0.000 A 
ATOM     25  C   UNL     1       2.798   7.841  17.636  0.00  0.00    +0.000 A 
BRANCH  20  26
ATOM     26  C   UNL     1       3.610   5.577  18.409  0.00  0.00    +0.000 C 
ATOM     27  C   UNL     1       4.377   5.622  17.080  0.00  0.00    +0.000 C 
BRANCH  26  31
ATOM     28  C   UNL     1       1.803   2.271  18.844  0.00  0.00    +0.000 C 
ATOM     29  C   UNL     1       2.924   3.263  19.013  0.00  0.00    +0.000 C 
ATOM     30  O   UNL     1       3.951   3.009  19.631  0.00  0.00    +0.000 OA
ATOM     31  N   UNL     1       2.662   4.472  18.418  0.00  0.00    +0.000 N 
ATOM     32  H   UNL     1       1.811   4.571  17.882  0.00  0.00    +0.000 HD
ENDBRANCH  26  31
ENDBRANCH  20  26
ENDBRANCH  19  23
ENDBRANCH   1  19
TORSDOF 5
ENDMDL
MODEL 3
REMARK VINA RESULT:      -8.0      2.425      3.725
REMARK  Name = 
REMARK  8 active torsions:
REMARK  status: ('A' for Active; 'I' for Inactive)
REMARK    1  A    between atoms: C_1  and  C_2
REMARK    2  A    between atoms: N_4  and  C_5
REMARK    3  A    between atoms: C_5  and  C_6
REMARK    4  A    between atoms: C_5  and  C_7
REMARK    5  A    between atoms: C_10  and  O_11
REMARK    6  A    between atoms: O_11  and  C_12
REMARK    7  A    between atoms: N_15  and  C_16
REMARK    8  A    between atoms: C_23  and  C_24
REMARK                            x       y       z     vdW  Elec       q    Type
REMARK                         _______ _______ _______ _____ _____    ______ ____
ROOT
ATOM      1  C   UNL     1       0.046  11.026  18.594  0.00  0.00    +0.000 C 
ATOM      2  C   UNL     1       0.128  12.550  18.636  0.00  0.00    +0.000 C 
ATOM      3  C   UNL     1      -1.057  12.980  19.495  0.00  0.00    +0.000 C 
ATOM      4  N   UNL     1      -2.063  11.956  19.271  0.00  0.00    +0.000 N 
ATOM      5  C   UNL     1      -1.475  10.747  18.705  0.00  0.00    +0.000 C 
ENDROOT
BRANCH   4   6
ATOM      6  C   UNL     1      -3.430  12.095  19.421  0.00  0.00    +0.000 A 
ATOM      7  N   UNL     1      -3.868  12.664  20.576  0.00  0.00    +0.000 NA
ATOM      8  C   UNL     1      -5.192  12.828  20.800  0.00  0.00    +0.000 A 
ATOM      9  N   UNL     1      -5.640  13.318  22.004  0.00  0.00    +0.000 N 
ATOM     10  C   UNL     1      -6.928  13.998  22.070  0.00  0.00    +0.000 C 
ATOM     11  C   UNL     1      -6.621  15.263  22.864  0.00  0.00    +0.000 C 
ATOM     12  C   UNL     1      -5.543  14.811  23.835  0.00  0.00    +0.000 C 
ATOM     13  C   UNL     1      -4.718  13.787  23.033  0.00  0.00    +0.000 C 
ATOM     14  C   UNL     1      -4.279  12.631  23.923  0.00  0.00    +0.000 C 
ATOM     15  N   UNL     1      -6.121  12.489  19.898  0.00  0.00    +0.000 NA
ATOM     16  C   UNL     1      -5.684  11.936  18.757  0.00  0.00    +0.000 A 
ATOM     17  C   UNL     1      -4.360  11.696  18.464  0.00  0.00    +0.000 A 
ATOM     18 CL   UNL     1      -4.014  11.008  16.922  0.00  0.00    +0.000 Cl
ENDBRANCH   4   6
BRANCH   1  19
ATOM     19  O   UNL     1       0.825  10.482  19.680  0.00  0.00    +0.000 OA
BRANCH  19  23
ATOM     20  C   UNL     1       2.553   6.716  18.986  0.00  0.00    +0.000 A 
ATOM     21  C   UNL     1       2.031   7.059  20.239  0.00  0.00    +0.000 A 
ATOM     22  C   UNL     1       1.459   8.327  20.451  0.00  0.00    +0.000 A 
ATOM     23  C   UNL     1       1.416   9.269  19.418  0.00  0.00    +0.000 A 
ATOM     24  C   UNL     1       1.921   8.919  18.170  0.00  0.00    +0.000 A 
ATOM     25  C   UNL     1       2.482   7.662  17.956  0.00  0.00    +0.000 A 
BRANCH  20  26
ATOM     26  C   UNL     1       3.146   5.343  18.707  0.00  0.00    +0.000 C 
ATOM     27  C   UNL     1       4.032   5.369  17.453  0.00  0.00    +0.000 C 
BRANCH  26  31
ATOM     28  C   UNL     1       0.765   2.401  18.952  0.00  0.00    +0.000 C 
ATOM     29  C   UNL     1       1.937   3.263  19.342  0.00  0.00    +0.000 C 
ATOM     30  O   UNL     1       2.683   2.992  20.275  0.00  0.00    +0.000 OA
ATOM     31  N   UNL     1       2.066   4.379  18.553  0.00  0.00    +0.000 N 
ATOM     32  H   UNL     1       1.436   4.491  17.770  0.00  0.00    +0.000 HD
ENDBRANCH  26  31
ENDBRANCH  20  26
ENDBRANCH  19  23
ENDBRANCH   1  19
TORSDOF 5
ENDMDL
MODEL 4
REMARK VINA RESULT:      -8.0      2.270      3.695
REMARK  Name = 
REMARK  8 active torsions:
REMARK  status: ('A' for Active; 'I' for Inactive)
REMARK    1  A    between atoms: C_1  and  C_2
REMARK    2  A    between atoms: N_4  and  C_5
REMARK    3  A    between atoms: C_5  and  C_6
REMARK    4  A    between atoms: C_5  and  C_7
REMARK    5  A    between atoms: C_10  and  O_11
REMARK    6  A    between atoms: O_11  and  C_12
REMARK    7  A    between atoms: N_15  and  C_16
REMARK    8  A    between atoms: C_23  and  C_24
REMARK                            x       y       z     vdW  Elec       q    Type
REMARK                         _______ _______ _______ _____ _____    ______ ____
ROOT
ATOM      1  C   UNL     1      -0.272  10.927  18.570  0.00  0.00    +0.000 C 
ATOM      2  C   UNL     1      -0.096  12.443  18.603  0.00  0.00    +0.000 C 
ATOM      3  C   UNL     1      -1.241  12.948  19.477  0.00  0.00    +0.000 C 
ATOM      4  N   UNL     1      -2.311  11.987  19.273  0.00  0.00    +0.000 N 
ATOM      5  C   UNL     1      -1.806  10.741  18.705  0.00  0.00    +0.000 C 
ENDROOT
BRANCH   4   6
ATOM      6  C   UNL     1      -3.664  12.209  19.442  0.00  0.00    +0.000 A 
ATOM      7  N   UNL     1      -4.050  12.802  20.603  0.00  0.00    +0.000 NA
ATOM      8  C   UNL     1      -5.359  13.047  20.845  0.00  0.00    +0.000 A 
ATOM      9  N   UNL     1      -5.760  13.561  22.056  0.00  0.00    +0.000 N 
ATOM     10  C   UNL     1      -7.002  14.319  22.139  0.00  0.00    +0.000 C 
ATOM     11  C   UNL     1      -6.607  15.562  22.930  0.00  0.00    +0.000 C 
ATOM     12  C   UNL     1      -5.546  15.044  23.886  0.00  0.00    +0.000 C 
ATOM     13  C   UNL     1      -4.797  13.972  23.071  0.00  0.00    +0.000 C 
ATOM     14  C   UNL     1      -4.416  12.790  23.955  0.00  0.00    +0.000 C 
ATOM     15  N   UNL     1      -6.319  12.767  19.956  0.00  0.00    +0.000 NA
ATOM     16  C   UNL     1      -5.933  12.190  18.808  0.00  0.00    +0.000 A 
ATOM     17  C   UNL     1      -4.630  11.868  18.497  0.00  0.00    +0.000 A 
ATOM     18 CL   UNL     1      -4.348  11.162  16.951  0.00  0.00    +0.000 Cl
ENDBRANCH   4   6
BRANCH   1  19
ATOM     19  O   UNL     1       0.488  10.341  19.648  0.00  0.00    +0.000 OA
BRANCH  19  23
ATOM     20  C   UNL     1       2.905   7.115  18.464  0.00  0.00    +0.000 A 
ATOM     21  C   UNL     1       2.655   8.192  17.605  0.00  0.00    +0.000 A 
ATOM     22  C   UNL     1       1.840   9.262  18.020  0.00  0.00    +0.000 A 
ATOM     23  C   UNL     1       1.257   9.258  19.292  0.00  0.00    +0.000 A 
ATOM     24  C   UNL     1       1.521   8.194  20.148  0.00  0.00    +0.000 A 
ATOM     25  C   UNL     1       2.332   7.137  19.741  0.00  0.00    +0.000 A 
BRANCH  20  26
ATOM     26  C   UNL     1       3.810   5.958  18.065  0.00  0.00    +0.000 C 
ATOM     27  C   UNL     1       4.659   6.319  16.838  0.00  0.00    +0.000 C 
BRANCH  26  31
ATOM     28  C   UNL     1       2.355   2.469  17.754  0.00  0.00    +0.000 C 
ATOM     29  C   UNL     1       3.344   3.517  18.193  0.00  0.00    +0.000 C 
ATOM     30  O   UNL     1       4.347   3.255  18.845  0.00  0.00    +0.000 OA
ATOM     31  N   UNL     1       2.992   4.784  17.797  0.00  0.00    +0.000 N 
ATOM     32  H   UNL     1       2.174   4.896  17.213  0.00  0.00    +0.000 HD
ENDBRANCH  26  31
ENDBRANCH  20  26
ENDBRANCH  19  23
ENDBRANCH   1  19
TORSDOF 5
ENDMDL
MODEL 5
REMARK VINA RESULT:      -8.0      1.088      1.811
REMARK  Name = 
REMARK  8 active torsions:
REMARK  status: ('A' for Active; 'I' for Inactive)
REMARK    1  A    between atoms: C_1  and  C_2
REMARK    2  A    between atoms: N_4  and  C_5
REMARK    3  A    between atoms: C_5  and  C_6
REMARK    4  A    between atoms: C_5  and  C_7
REMARK    5  A    between atoms: C_10  and  O_11
REMARK    6  A    between atoms: O_11  and  C_12
REMARK    7  A    between atoms: N_15  and  C_16
REMARK    8  A    between atoms: C_23  and  C_24
REMARK                            x       y       z     vdW  Elec       q    Type
REMARK                         _______ _______ _______ _____ _____    ______ ____
ROOT
ATOM      1  C   UNL     1       0.513   9.880  18.863  0.00  0.00    +0.000 C 
ATOM      2  C   UNL     1       1.225  11.212  18.641  0.00  0.00    +0.000 C 
ATOM      3  C   UNL     1       0.588  12.166  19.647  0.00  0.00    +0.000 C 
ATOM      4  N   UNL     1      -0.771  11.679  19.806  0.00  0.00    +0.000 N 
ATOM      5  C   UNL     1      -0.902  10.305  19.333  0.00  0.00    +0.000 C 
ENDROOT
BRANCH   4   6
ATOM      6  C   UNL     1      -1.868  12.413  20.214  0.00  0.00    +0.000 A 
ATOM      7  N   UNL     1      -3.065  12.095  19.653  0.00  0.00    +0.000 NA
ATOM      8  C   UNL     1      -4.185  12.773  19.996  0.00  0.00    +0.000 A 
ATOM      9  N   UNL     1      -5.378  12.517  19.362  0.00  0.00    +0.000 N 
ATOM     10  C   UNL     1      -6.632  12.798  20.048  0.00  0.00    +0.000 C 
ATOM     11  C   UNL     1      -7.449  11.529  19.830  0.00  0.00    +0.000 C 
ATOM     12  C   UNL     1      -7.007  11.063  18.453  0.00  0.00    +0.000 C 
ATOM     13  C   UNL     1      -5.513  11.437  18.391  0.00  0.00    +0.000 C 
ATOM     14  C   UNL     1      -5.136  11.923  16.996  0.00  0.00    +0.000 C 
ATOM     15  N   UNL     1      -4.184  13.741  20.921  0.00  0.00    +0.000 NA
ATOM     16  C   UNL     1      -3.003  14.044  21.480  0.00  0.00    +0.000 A 
ATOM     17  C   UNL     1      -1.810  13.435  21.160  0.00  0.00    +0.000 A 
ATOM     18 CL   UNL     1      -0.412  13.953  22.024  0.00  0.00    +0.000 Cl
ENDBRANCH   4   6
BRANCH   1  19
ATOM     19  O   UNL     1       1.249   9.110  19.837  0.00  0.00    +0.000 OA
BRANCH  19  23
ATOM     20  C   UNL     1       3.702   6.143  18.153  0.00  0.00    +0.000 A 
ATOM     21  C   UNL     1       3.483   7.364  17.503  0.00  0.00    +0.000 A 
ATOM     22  C   UNL     1       2.656   8.343  18.083  0.00  0.00    +0.000 A 
ATOM     23  C   UNL     1       2.028   8.107  19.311  0.00  0.00    +0.000 A 
ATOM     24  C   UNL     1       2.261   6.899  19.961  0.00  0.00    +0.000 A 
ATOM     25  C   UNL     1       3.085   5.931  19.392  0.00  0.00    +0.000 A 
BRANCH  20  26
ATOM     26  C   UNL     1       4.619   5.074  17.576  0.00  0.00    +0.000 C 
ATOM     27  C   UNL     1       5.034   5.421  16.139  0.00  0.00    +0.000 C 
BRANCH  26  31
ATOM     28  C   UNL     1       3.373   1.586  18.390  0.00  0.00    +0.000 C 
ATOM     29  C   UNL     1       4.166   2.850  18.594  0.00  0.00    +0.000 C 
ATOM     30  O   UNL     1       4.923   3.016  19.544  0.00  0.00    +0.000 OA
ATOM     31  N   UNL     1       3.938   3.788  17.619  0.00  0.00    +0.000 N 
ATOM     32  H   UNL     1       3.339   3.541  16.843  0.00  0.00    +0.000 HD
ENDBRANCH  26  31
ENDBRANCH  20  26
ENDBRANCH  19  23
ENDBRANCH   1  19
TORSDOF 5
ENDMDL
MODEL 6
REMARK VINA RESULT:      -7.9      1.844      2.645
REMARK  Name = 
REMARK  8 active torsions:
REMARK  status: ('A' for Active; 'I' for Inactive)
REMARK    1  A    between atoms: C_1  and  C_2
REMARK    2  A    between atoms: N_4  and  C_5
REMARK    3  A    between atoms: C_5  and  C_6
REMARK    4  A    between atoms: C_5  and  C_7
REMARK    5  A    between atoms: C_10  and  O_11
REMARK    6  A    between atoms: O_11  and  C_12
REMARK    7  A    between atoms: N_15  and  C_16
REMARK    8  A    between atoms: C_23  and  C_24
REMARK                            x       y       z     vdW  Elec       q    Type
REMARK                         _______ _______ _______ _____ _____    ______ ____
ROOT
ATOM      1  C   UNL     1      -0.767  10.348  19.794  0.00  0.00    +0.000 C 
ATOM      2  C   UNL     1      -1.742  10.492  18.627  0.00  0.00    +0.000 C 
ATOM      3  C   UNL     1      -2.178  11.954  18.662  0.00  0.00    +0.000 C 
ATOM      4  N   UNL     1      -2.107  12.325  20.065  0.00  0.00    +0.000 N 
ATOM      5  C   UNL     1      -1.286  11.386  20.822  0.00  0.00    +0.000 C 
ENDROOT
BRANCH   4   6
ATOM      6  C   UNL     1      -2.811  13.338  20.687  0.00  0.00    +0.000 A 
ATOM      7  N   UNL     1      -4.065  13.041  21.121  0.00  0.00    +0.000 NA
ATOM      8  C   UNL     1      -4.819  13.982  21.734  0.00  0.00    +0.000 A 
ATOM      9  N   UNL     1      -6.120  13.711  22.089  0.00  0.00    +0.000 N 
ATOM     10  C   UNL     1      -6.735  14.449  23.184  0.00  0.00    +0.000 C 
ATOM     11  C   UNL     1      -7.383  13.358  24.029  0.00  0.00    +0.000 C 
ATOM     12  C   UNL     1      -7.807  12.326  22.998  0.00  0.00    +0.000 C 
ATOM     13  C   UNL     1      -6.696  12.380  21.931  0.00  0.00    +0.000 C 
ATOM     14  C   UNL     1      -7.281  12.214  20.533  0.00  0.00    +0.000 C 
ATOM     15  N   UNL     1      -4.365  15.216  21.984  0.00  0.00    +0.000 NA
ATOM     16  C   UNL     1      -3.124  15.502  21.563  0.00  0.00    +0.000 A 
ATOM     17  C   UNL     1      -2.304  14.620  20.896  0.00  0.00    +0.000 A 
ATOM     18 CL   UNL     1      -0.730  15.181  20.475  0.00  0.00    +0.000 Cl
ENDBRANCH   4   6
BRANCH   1  19
ATOM     19  O   UNL     1       0.572  10.605  19.323  0.00  0.00    +0.000 OA
BRANCH  19  23
ATOM     20  C   UNL     1       2.775   7.099  18.614  0.00  0.00    +0.000 A 
ATOM     21  C   UNL     1       2.147   7.329  19.843  0.00  0.00    +0.000 A 
ATOM     22  C   UNL     1       1.416   8.511  20.061  0.00  0.00    +0.000 A 
ATOM     23  C   UNL     1       1.317   9.481  19.058  0.00  0.00    +0.000 A 
ATOM     24  C   UNL     1       1.930   9.242  17.832  0.00  0.00    +0.000 A 
ATOM     25  C   UNL     1       2.649   8.069  17.612  0.00  0.00    +0.000 A 
BRANCH  20  26
ATOM     26  C   UNL     1       3.544   5.817  18.327  0.00  0.00    +0.000 C 
ATOM     27  C   UNL     1       4.333   5.359  19.562  0.00  0.00    +0.000 C 
BRANCH  26  31
ATOM     28  C   UNL     1       5.806   5.512  15.298  0.00  0.00    +0.000 C 
ATOM     29  C   UNL     1       4.847   5.035  16.358  0.00  0.00    +0.000 C 
ATOM     30  O   UNL     1       4.470   3.872  16.440  0.00  0.00    +0.000 OA
ATOM     31  N   UNL     1       4.437   6.038  17.199  0.00  0.00    +0.000 N 
ATOM     32  H   UNL     1       4.845   6.956  17.089  0.00  0.00    +0.000 HD
ENDBRANCH  26  31
ENDBRANCH  20  26
ENDBRANCH  19  23
ENDBRANCH   1  19
TORSDOF 5
ENDMDL
MODEL 7
REMARK VINA RESULT:      -7.9      1.974      3.098
REMARK  Name = 
REMARK  8 active torsions:
REMARK  status: ('A' for Active; 'I' for Inactive)
REMARK    1  A    between atoms: C_1  and  C_2
REMARK    2  A    between atoms: N_4  and  C_5
REMARK    3  A    between atoms: C_5  and  C_6
REMARK    4  A    between atoms: C_5  and  C_7
REMARK    5  A    between atoms: C_10  and  O_11
REMARK    6  A    between atoms: O_11  and  C_12
REMARK    7  A    between atoms: N_15  and  C_16
REMARK    8  A    between atoms: C_23  and  C_24
REMARK                            x       y       z     vdW  Elec       q    Type
REMARK                         _______ _______ _______ _____ _____    ______ ____
ROOT
ATOM      1  C   UNL     1       0.290  10.998  19.473  0.00  0.00    +0.000 C 
ATOM      2  C   UNL     1      -0.153  12.141  20.383  0.00  0.00    +0.000 C 
ATOM      3  C   UNL     1      -1.674  12.030  20.434  0.00  0.00    +0.000 C 
ATOM      4  N   UNL     1      -2.045  11.465  19.149  0.00  0.00    +0.000 N 
ATOM      5  C   UNL     1      -0.902  10.838  18.493  0.00  0.00    +0.000 C 
ENDROOT
BRANCH   4   6
ATOM      6  C   UNL     1      -3.266  11.590  18.514  0.00  0.00    +0.000 A 
ATOM      7  N   UNL     1      -4.259  12.212  19.203  0.00  0.00    +0.000 NA
ATOM      8  C   UNL     1      -5.484  12.367  18.651  0.00  0.00    +0.000 A 
ATOM      9  N   UNL     1      -6.515  12.911  19.381  0.00  0.00    +0.000 N 
ATOM     10  C   UNL     1      -7.614  13.574  18.690  0.00  0.00    +0.000 C 
ATOM     11  C   UNL     1      -7.776  14.883  19.455  0.00  0.00    +0.000 C 
ATOM     12  C   UNL     1      -7.420  14.498  20.881  0.00  0.00    +0.000 C 
ATOM     13  C   UNL     1      -6.306  13.447  20.721  0.00  0.00    +0.000 C 
ATOM     14  C   UNL     1      -6.449  12.345  21.765  0.00  0.00    +0.000 C 
ATOM     15  N   UNL     1      -5.767  11.967  17.405  0.00  0.00    +0.000 NA
ATOM     16  C   UNL     1      -4.781  11.363  16.725  0.00  0.00    +0.000 A 
ATOM     17  C   UNL     1      -3.520  11.127  17.223  0.00  0.00    +0.000 A 
ATOM     18 CL   UNL     1      -2.391  10.366  16.167  0.00  0.00    +0.000 Cl
ENDBRANCH   4   6
BRANCH   1  19
ATOM     19  O   UNL     1       0.550   9.829  20.278  0.00  0.00    +0.000 OA
BRANCH  19  23
ATOM     20  C   UNL     1       2.915   6.968  18.310  0.00  0.00    +0.000 A 
ATOM     21  C   UNL     1       2.521   8.151  17.673  0.00  0.00    +0.000 A 
ATOM     22  C   UNL     1       1.726   9.095  18.350  0.00  0.00    +0.000 A 
ATOM     23  C   UNL     1       1.306   8.860  19.663  0.00  0.00    +0.000 A 
ATOM     24  C   UNL     1       1.712   7.690  20.298  0.00  0.00    +0.000 A 
ATOM     25  C   UNL     1       2.505   6.757  19.632  0.00  0.00    +0.000 A 
BRANCH  20  26
ATOM     26  C   UNL     1       3.804   5.940  17.625  0.00  0.00    +0.000 C 
ATOM     27  C   UNL     1       3.243   4.522  17.800  0.00  0.00    +0.000 C 
BRANCH  26  31
ATOM     28  C   UNL     1       7.510   6.465  18.236  0.00  0.00    +0.000 C 
ATOM     29  C   UNL     1       6.218   6.516  17.462  0.00  0.00    +0.000 C 
ATOM     30  O   UNL     1       6.142   6.958  16.322  0.00  0.00    +0.000 OA
ATOM     31  N   UNL     1       5.149   6.032  18.174  0.00  0.00    +0.000 N 
ATOM     32  H   UNL     1       5.318   5.637  19.088  0.00  0.00    +0.000 HD
ENDBRANCH  26  31
ENDBRANCH  20  26
ENDBRANCH  19  23
ENDBRANCH   1  19
TORSDOF 5
ENDMDL
MODEL 8
REMARK VINA RESULT:      -7.9      1.981      3.007
REMARK  Name = 
REMARK  8 active torsions:
REMARK  status: ('A' for Active; 'I' for Inactive)
REMARK    1  A    between atoms: C_1  and  C_2
REMARK    2  A    between atoms: N_4  and  C_5
REMARK    3  A    between atoms: C_5  and  C_6
REMARK    4  A    between atoms: C_5  and  C_7
REMARK    5  A    between atoms: C_10  and  O_11
REMARK    6  A    between atoms: O_11  and  C_12
REMARK    7  A    between atoms: N_15  and  C_16
REMARK    8  A    between atoms: C_23  and  C_24
REMARK                            x       y       z     vdW  Elec       q    Type
REMARK                         _______ _______ _______ _____ _____    ______ ____
ROOT
ATOM      1  C   UNL     1      -0.468  10.109  19.672  0.00  0.00    +0.000 C 
ATOM      2  C   UNL     1      -1.222  10.832  18.558  0.00  0.00    +0.000 C 
ATOM      3  C   UNL     1      -1.430  12.248  19.086  0.00  0.00    +0.000 C 
ATOM      4  N   UNL     1      -1.516  12.094  20.528  0.00  0.00    +0.000 N 
ATOM      5  C   UNL     1      -0.972  10.812  20.960  0.00  0.00    +0.000 C 
ENDROOT
BRANCH   4   6
ATOM      6  C   UNL     1      -2.144  12.950  21.413  0.00  0.00    +0.000 A 
ATOM      7  N   UNL     1      -3.490  12.817  21.549  0.00  0.00    +0.000 NA
ATOM      8  C   UNL     1      -4.177  13.622  22.392  0.00  0.00    +0.000 A 
ATOM      9  N   UNL     1      -5.548  13.552  22.462  0.00  0.00    +0.000 N 
ATOM     10  C   UNL     1      -6.229  13.969  23.681  0.00  0.00    +0.000 C 
ATOM     11  C   UNL     1      -7.206  12.829  23.950  0.00  0.00    +0.000 C 
ATOM     12  C   UNL     1      -7.592  12.365  22.556  0.00  0.00    +0.000 C 
ATOM     13  C   UNL     1      -6.303  12.540  21.730  0.00  0.00    +0.000 C 
ATOM     14  C   UNL     1      -6.624  13.028  20.323  0.00  0.00    +0.000 C 
ATOM     15  N   UNL     1      -3.576  14.542  23.156  0.00  0.00    +0.000 NA
ATOM     16  C   UNL     1      -2.246  14.664  23.026  0.00  0.00    +0.000 A 
ATOM     17  C   UNL     1      -1.476  13.916  22.164  0.00  0.00    +0.000 A 
ATOM     18 CL   UNL     1       0.222  14.208  22.180  0.00  0.00    +0.000 Cl
ENDBRANCH   4   6
BRANCH   1  19
ATOM     19  O   UNL     1       0.951  10.244  19.445  0.00  0.00    +0.000 OA
BRANCH  19  23
ATOM     20  C   UNL     1       3.021   6.734  18.422  0.00  0.00    +0.000 A 
ATOM     21  C   UNL     1       2.918   7.806  17.528  0.00  0.00    +0.000 A 
ATOM     22  C   UNL     1       2.217   8.972  17.889  0.00  0.00    +0.000 A 
ATOM     23  C   UNL     1       1.602   9.072  19.142  0.00  0.00    +0.000 A 
ATOM     24  C   UNL     1       1.720   8.010  20.034  0.00  0.00    +0.000 A 
ATOM     25  C   UNL     1       2.418   6.858  19.680  0.00  0.00    +0.000 A 
BRANCH  20  26
ATOM     26  C   UNL     1       3.800   5.471  18.083  0.00  0.00    +0.000 C 
ATOM     27  C   UNL     1       4.631   5.663  16.806  0.00  0.00    +0.000 C 
BRANCH  26  31
ATOM     28  C   UNL     1       1.766   2.289  18.423  0.00  0.00    +0.000 C 
ATOM     29  C   UNL     1       2.768   3.335  18.833  0.00  0.00    +0.000 C 
ATOM     30  O   UNL     1       3.411   3.271  19.874  0.00  0.00    +0.000 OA
ATOM     31  N   UNL     1       2.869   4.363  17.928  0.00  0.00    +0.000 N 
ATOM     32  H   UNL     1       2.339   4.303  17.070  0.00  0.00    +0.000 HD
ENDBRANCH  26  31
ENDBRANCH  20  26
ENDBRANCH  19  23
ENDBRANCH   1  19
TORSDOF 5
ENDMDL
MODEL 9
REMARK VINA RESULT:      -7.9      2.103      3.176
REMARK  Name = 
REMARK  8 active torsions:
REMARK  status: ('A' for Active; 'I' for Inactive)
REMARK    1  A    between atoms: C_1  and  C_2
REMARK    2  A    between atoms: N_4  and  C_5
REMARK    3  A    between atoms: C_5  and  C_6
REMARK    4  A    between atoms: C_5  and  C_7
REMARK    5  A    between atoms: C_10  and  O_11
REMARK    6  A    between atoms: O_11  and  C_12
REMARK    7  A    between atoms: N_15  and  C_16
REMARK    8  A    between atoms: C_23  and  C_24
REMARK                            x       y       z     vdW  Elec       q    Type
REMARK                         _______ _______ _______ _____ _____    ______ ____
ROOT
ATOM      1  C   UNL     1       0.503  10.579  19.172  0.00  0.00    +0.000 C 
ATOM      2  C   UNL     1       0.199  11.728  20.131  0.00  0.00    +0.000 C 
ATOM      3  C   UNL     1      -1.320  11.723  20.274  0.00  0.00    +0.000 C 
ATOM      4  N   UNL     1      -1.808  11.216  19.003  0.00  0.00    +0.000 N 
ATOM      5  C   UNL     1      -0.754  10.528  18.265  0.00  0.00    +0.000 C 
ENDROOT
BRANCH   4   6
ATOM      6  C   UNL     1      -3.052  11.443  18.447  0.00  0.00    +0.000 A 
ATOM      7  N   UNL     1      -3.921  12.200  19.169  0.00  0.00    +0.000 NA
ATOM      8  C   UNL     1      -5.161  12.461  18.694  0.00  0.00    +0.000 A 
ATOM      9  N   UNL     1      -6.072  13.147  19.462  0.00  0.00    +0.000 N 
ATOM     10  C   UNL     1      -7.144  13.892  18.813  0.00  0.00    +0.000 C 
ATOM     11  C   UNL     1      -7.111  15.246  19.514  0.00  0.00    +0.000 C 
ATOM     12  C   UNL     1      -6.692  14.893  20.931  0.00  0.00    +0.000 C 
ATOM     13  C   UNL     1      -5.709  13.721  20.753  0.00  0.00    +0.000 C 
ATOM     14  C   UNL     1      -5.888  12.692  21.863  0.00  0.00    +0.000 C 
ATOM     15  N   UNL     1      -5.576  12.035  17.494  0.00  0.00    +0.000 NA
ATOM     16  C   UNL     1      -4.712  11.296  16.782  0.00  0.00    +0.000 A 
ATOM     17  C   UNL     1      -3.448  10.949  17.205  0.00  0.00    +0.000 A 
ATOM     18 CL   UNL     1      -2.487  10.021  16.117  0.00  0.00    +0.000 Cl
ENDBRANCH   4   6
BRANCH   1  19
ATOM     19  O   UNL     1       0.727   9.375  19.935  0.00  0.00    +0.000 OA
BRANCH  19  23
ATOM     20  C   UNL     1       3.424   6.589  18.320  0.00  0.00    +0.000 A 
ATOM     21  C   UNL     1       2.828   6.386  19.571  0.00  0.00    +0.000 A 
ATOM     22  C   UNL     1       1.930   7.333  20.095  0.00  0.00    +0.000 A 
ATOM     23  C   UNL     1       1.628   8.498  19.381  0.00  0.00    +0.000 A 
ATOM     24  C   UNL     1       2.210   8.688  18.132  0.00  0.00    +0.000 A 
ATOM     25  C   UNL     1       3.095   7.748  17.608  0.00  0.00    +0.000 A 
BRANCH  20  26
ATOM     26  C   UNL     1       4.373   5.570  17.703  0.00  0.00    +0.000 C 
ATOM     27  C   UNL     1       4.945   6.084  16.375  0.00  0.00    +0.000 C 
BRANCH  26  31
ATOM     28  C   UNL     1       3.048   2.020  17.850  0.00  0.00    +0.000 C 
ATOM     29  C   UNL     1       3.871   3.204  18.285  0.00  0.00    +0.000 C 
ATOM     30  O   UNL     1       4.634   3.170  19.243  0.00  0.00    +0.000 OA
ATOM     31  N   UNL     1       3.662   4.315  17.506  0.00  0.00    +0.000 N 
ATOM     32  H   UNL     1       3.055   4.233  16.703  0.00  0.00    +0.000 HD
ENDBRANCH  26  31
ENDBRANCH  20  26
ENDBRANCH  19  23
ENDBRANCH   1  19
TORSDOF 5
ENDMDL
