MODEL 1
REMARK VINA RESULT:      -8.0      0.000      0.000
REMARK  Name = 
REMARK  7 active torsions:
REMARK  status: ('A' for Active; 'I' for Inactive)
REMARK    1  A    between atoms: C_1  and  O_2
REMARK    2  A    between atoms: O_2  and  C_3
REMARK    3  A    between atoms: C_6  and  O_7
REMARK    4  A    between atoms: O_7  and  C_8
REMARK    5  A    between atoms: C_10  and  O_11
REMARK    6  A    between atoms: O_11  and  C_12
REMARK    7  A    between atoms: C_12  and  C_13
REMARK                            x       y       z     vdW  Elec       q    Type
REMARK                         _______ _______ _______ _____ _____    ______ ____
ROOT
ATOM      1  C   UNL     1       4.004   6.747  17.474  0.00  0.00    +0.000 A 
ATOM      2  N   UNL     1       3.488   5.495  17.416  0.00  0.00    +0.000 NA
ATOM      3  C   UNL     1       4.342   4.463  17.562  0.00  0.00    +0.000 A 
ATOM      4  C   UNL     1       5.674   4.739  17.737  0.00  0.00    +0.000 A 
ATOM      5  N   UNL     1       6.803   3.983  17.881  0.00  0.00    +0.000 N 
ATOM      6  C   UNL     1       7.861   4.846  17.968  0.00  0.00    +0.000 A 
ATOM      7  N   UNL     1       7.468   6.101  17.932  0.00  0.00    +0.000 NA
ATOM      8  C   UNL     1       6.108   6.043  17.797  0.00  0.00    +0.000 A 
ATOM      9  N   UNL     1       5.283   7.092  17.710  0.00  0.00    +0.000 NA
ATOM     10  H   UNL     1       6.846   2.974  17.894  0.00  0.00    +0.000 HD
ENDROOT
BRANCH   1  11
ATOM     11  O   UNL     1       3.091   7.778  17.236  0.00  0.00    +0.000 OA
BRANCH  11  15
ATOM     12  C   UNL     1       0.707   9.064  20.428  0.00  0.00    +0.000 A 
ATOM     13  C   UNL     1       1.504   7.930  20.575  0.00  0.00    +0.000 A 
ATOM     14  C   UNL     1       2.337   7.516  19.538  0.00  0.00    +0.000 A 
ATOM     15  C   UNL     1       2.329   8.189  18.316  0.00  0.00    +0.000 A 
ATOM     16  C   UNL     1       1.547   9.339  18.168  0.00  0.00    +0.000 A 
ATOM     17  C   UNL     1       0.734   9.775  19.226  0.00  0.00    +0.000 A 
BRANCH  12  19
ATOM     18  C   UNL     1      -0.057  10.683  21.961  0.00  0.00    +0.000 C 
ATOM     19  O   UNL     1      -0.091   9.339  21.503  0.00  0.00    +0.000 OA
ENDBRANCH  12  19
ENDBRANCH  11  15
ENDBRANCH   1  11
BRANCH   3  20
ATOM     20  O   UNL     1       3.913   3.159  17.605  0.00  0.00    +0.000 OA
BRANCH  20  21
ATOM     21  C   UNL     1       2.498   3.005  17.479  0.00  0.00    +0.000 C 
BRANCH  21  22
ATOM     22  C   UNL     1       2.010   2.127  18.654  0.00  0.00    +0.000 C 
ATOM     23  C   UNL     1       3.041   2.055  19.790  0.00  0.00    +0.000 C 
ATOM     24  C   UNL     1       3.137   3.356  20.581  0.00  0.00    +0.000 C 
ATOM     25  C   UNL     1       1.778   3.787  21.126  0.00  0.00    +0.000 C 
ATOM     26  C   UNL     1       0.705   3.844  20.042  0.00  0.00    +0.000 C 
ATOM     27  C   UNL     1       0.643   2.562  19.214  0.00  0.00    +0.000 C 
ENDBRANCH  21  22
ENDBRANCH  20  21
ENDBRANCH   3  20
TORSDOF 6
ENDMDL
MODEL 2
REMARK VINA RESULT:      -7.9      0.791      1.027
REMARK  Name = 
REMARK  7 active torsions:
REMARK  status: ('A' for Active; 'I' for Inactive)
REMARK    1  A    between atoms: C_1  and  O_2
REMARK    2  A    between atoms: O_2  and  C_3
REMARK    3  A    between atoms: C_6  and  O_7
REMARK    4  A    between atoms: O_7  and  C_8
REMARK    5  A    between atoms: C_10  and  O_11
REMARK    6  A    between atoms: O_11  and  C_12
REMARK    7  A    between atoms: C_12  and  C_13
REMARK                            x       y       z     vdW  Elec       q    Type
REMARK                         _______ _______ _______ _____ _____    ______ ____
ROOT
ATOM      1  C   UNL     1       3.903   6.933  17.393  0.00  0.00    +0.000 A 
ATOM      2  N   UNL     1       3.360   5.719  17.655  0.00  0.00    +0.000 NA
ATOM      3  C   UNL     1       4.174   4.646  17.588  0.00  0.00    +0.000 A 
ATOM      4  C   UNL     1       5.486   4.843  17.239  0.00  0.00    +0.000 A 
ATOM      5  N   UNL     1       6.562   4.026  17.041  0.00  0.00    +0.000 N 
ATOM      6  C   UNL     1       7.607   4.819  16.650  0.00  0.00    +0.000 A 
ATOM      7  N   UNL     1       7.270   6.090  16.629  0.00  0.00    +0.000 NA
ATOM      8  C   UNL     1       5.955   6.115  17.003  0.00  0.00    +0.000 A 
ATOM      9  N   UNL     1       5.190   7.207  17.112  0.00  0.00    +0.000 NA
ATOM     10  H   UNL     1       6.573   3.021  17.142  0.00  0.00    +0.000 HD
ENDROOT
BRANCH   1  11
ATOM     11  O   UNL     1       3.002   8.001  17.396  0.00  0.00    +0.000 OA
BRANCH  11  15
ATOM     12  C   UNL     1       0.704   8.613  20.841  0.00  0.00    +0.000 A 
ATOM     13  C   UNL     1       1.548   7.507  20.762  0.00  0.00    +0.000 A 
ATOM     14  C   UNL     1       2.352   7.314  19.642  0.00  0.00    +0.000 A 
ATOM     15  C   UNL     1       2.270   8.186  18.556  0.00  0.00    +0.000 A 
ATOM     16  C   UNL     1       1.440   9.309  18.636  0.00  0.00    +0.000 A 
ATOM     17  C   UNL     1       0.656   9.521  19.780  0.00  0.00    +0.000 A 
BRANCH  12  19
ATOM     18  C   UNL     1       0.272   9.700  22.888  0.00  0.00    +0.000 C 
ATOM     19  O   UNL     1      -0.060   8.665  21.973  0.00  0.00    +0.000 OA
ENDBRANCH  12  19
ENDBRANCH  11  15
ENDBRANCH   1  11
BRANCH   3  20
ATOM     20  O   UNL     1       3.748   3.383  17.918  0.00  0.00    +0.000 OA
BRANCH  20  21
ATOM     21  C   UNL     1       4.199   2.930  19.196  0.00  0.00    +0.000 C 
BRANCH  21  22
ATOM     22  C   UNL     1       3.056   2.108  19.837  0.00  0.00    +0.000 C 
ATOM     23  C   UNL     1       2.735   2.576  21.264  0.00  0.00    +0.000 C 
ATOM     24  C   UNL     1       2.012   3.920  21.293  0.00  0.00    +0.000 C 
ATOM     25  C   UNL     1       0.743   3.897  20.446  0.00  0.00    +0.000 C 
ATOM     26  C   UNL     1       1.000   3.406  19.023  0.00  0.00    +0.000 C 
ATOM     27  C   UNL     1       1.770   2.088  18.990  0.00  0.00    +0.000 C 
ENDBRANCH  21  22
ENDBRANCH  20  21
ENDBRANCH   3  20
TORSDOF 6
ENDMDL
MODEL 3
REMARK VINA RESULT:      -7.8      0.439      1.039
REMARK  Name = 
REMARK  7 active torsions:
REMARK  status: ('A' for Active; 'I' for Inactive)
REMARK    1  A    between atoms: C_1  and  O_2
REMARK    2  A    between atoms: O_2  and  C_3
REMARK    3  A    between atoms: C_6  and  O_7
REMARK    4  A    between atoms: O_7  and  C_8
REMARK    5  A    between atoms: C_10  and  O_11
REMARK    6  A    between atoms: O_11  and  C_12
REMARK    7  A    between atoms: C_12  and  C_13
REMARK                            x       y       z     vdW  Elec       q    Type
REMARK                         _______ _______ _______ _____ _____    ______ ____
ROOT
ATOM      1  C   UNL     1       3.983   6.977  17.500  0.00  0.00    +0.000 A 
ATOM      2  N   UNL     1       3.384   5.774  17.322  0.00  0.00    +0.000 NA
ATOM      3  C   UNL     1       4.169   4.679  17.346  0.00  0.00    +0.000 A 
ATOM      4  C   UNL     1       5.519   4.848  17.524  0.00  0.00    +0.000 A 
ATOM      5  N   UNL     1       6.596   4.009  17.569  0.00  0.00    +0.000 N 
ATOM      6  C   UNL     1       7.710   4.788  17.727  0.00  0.00    +0.000 A 
ATOM      7  N   UNL     1       7.401   6.062  17.828  0.00  0.00    +0.000 NA
ATOM      8  C   UNL     1       6.039   6.108  17.712  0.00  0.00    +0.000 A 
ATOM      9  N   UNL     1       5.284   7.211  17.748  0.00  0.00    +0.000 NA
ATOM     10  H   UNL     1       6.572   3.003  17.477  0.00  0.00    +0.000 HD
ENDROOT
BRANCH   1  11
ATOM     11  O   UNL     1       3.138   8.085  17.387  0.00  0.00    +0.000 OA
BRANCH  11  15
ATOM     12  C   UNL     1       0.620   8.737  20.667  0.00  0.00    +0.000 A 
ATOM     13  C   UNL     1       0.570   9.603  19.576  0.00  0.00    +0.000 A 
ATOM     14  C   UNL     1       1.369   9.373  18.458  0.00  0.00    +0.000 A 
ATOM     15  C   UNL     1       2.279   8.316  18.447  0.00  0.00    +0.000 A 
ATOM     16  C   UNL     1       2.321   7.432  19.530  0.00  0.00    +0.000 A 
ATOM     17  C   UNL     1       1.491   7.644  20.641  0.00  0.00    +0.000 A 
BRANCH  12  19
ATOM     18  C   UNL     1       0.494   9.425  22.918  0.00  0.00    +0.000 C 
ATOM     19  O   UNL     1      -0.182   9.096  21.713  0.00  0.00    +0.000 OA
ENDBRANCH  12  19
ENDBRANCH  11  15
ENDBRANCH   1  11
BRANCH   3  20
ATOM     20  O   UNL     1       3.655   3.408  17.261  0.00  0.00    +0.000 OA
BRANCH  20  21
ATOM     21  C   UNL     1       2.235   3.342  17.411  0.00  0.00    +0.000 C 
BRANCH  21  22
ATOM     22  C   UNL     1       1.924   2.300  18.511  0.00  0.00    +0.000 C 
ATOM     23  C   UNL     1       3.091   2.128  19.492  0.00  0.00    +0.000 C 
ATOM     24  C   UNL     1       3.251   3.320  20.431  0.00  0.00    +0.000 C 
ATOM     25  C   UNL     1       1.961   3.619  21.190  0.00  0.00    +0.000 C 
ATOM     26  C   UNL     1       0.758   3.767  20.262  0.00  0.00    +0.000 C 
ATOM     27  C   UNL     1       0.627   2.599  19.286  0.00  0.00    +0.000 C 
ENDBRANCH  21  22
ENDBRANCH  20  21
ENDBRANCH   3  20
TORSDOF 6
ENDMDL
MODEL 4
REMARK VINA RESULT:      -7.7      2.478      6.887
REMARK  Name = 
REMARK  7 active torsions:
REMARK  status: ('A' for Active; 'I' for Inactive)
REMARK    1  A    between atoms: C_1  and  O_2
REMARK    2  A    between atoms: O_2  and  C_3
REMARK    3  A    between atoms: C_6  and  O_7
REMARK    4  A    between atoms: O_7  and  C_8
REMARK    5  A    between atoms: C_10  and  O_11
REMARK    6  A    between atoms: O_11  and  C_12
REMARK    7  A    between atoms: C_12  and  C_13
REMARK                            x       y       z     vdW  Elec       q    Type
REMARK                         _______ _______ _______ _____ _____    ______ ____
ROOT
ATOM      1  C   UNL     1       4.224   5.122  19.378  0.00  0.00    +0.000 A 
ATOM      2  N   UNL     1       3.415   6.048  19.949  0.00  0.00    +0.000 NA
ATOM      3  C   UNL     1       2.165   5.664  20.279  0.00  0.00    +0.000 A 
ATOM      4  C   UNL     1       1.783   4.377  19.997  0.00  0.00    +0.000 A 
ATOM      5  N   UNL     1       0.630   3.661  20.148  0.00  0.00    +0.000 N 
ATOM      6  C   UNL     1       0.854   2.417  19.624  0.00  0.00    +0.000 A 
ATOM      7  N   UNL     1       2.088   2.287  19.191  0.00  0.00    +0.000 NA
ATOM      8  C   UNL     1       2.677   3.499  19.428  0.00  0.00    +0.000 A 
ATOM      9  N   UNL     1       3.940   3.830  19.137  0.00  0.00    +0.000 NA
ATOM     10  H   UNL     1      -0.233   4.000  20.549  0.00  0.00    +0.000 HD
ENDROOT
BRANCH   1  11
ATOM     11  O   UNL     1       5.478   5.592  18.982  0.00  0.00    +0.000 OA
BRANCH  11  15
ATOM     12  C   UNL     1       6.598   4.831  15.020  0.00  0.00    +0.000 A 
ATOM     13  C   UNL     1       5.405   5.501  15.283  0.00  0.00    +0.000 A 
ATOM     14  C   UNL     1       5.040   5.801  16.594  0.00  0.00    +0.000 A 
ATOM     15  C   UNL     1       5.830   5.373  17.661  0.00  0.00    +0.000 A 
ATOM     16  C   UNL     1       7.039   4.718  17.404  0.00  0.00    +0.000 A 
ATOM     17  C   UNL     1       7.422   4.447  16.081  0.00  0.00    +0.000 A 
BRANCH  12  19
ATOM     18  C   UNL     1       5.900   3.664  13.095  0.00  0.00    +0.000 C 
ATOM     19  O   UNL     1       6.819   4.563  13.698  0.00  0.00    +0.000 OA
ENDBRANCH  12  19
ENDBRANCH  11  15
ENDBRANCH   1  11
BRANCH   3  20
ATOM     20  O   UNL     1       1.295   6.496  20.938  0.00  0.00    +0.000 OA
BRANCH  20  21
ATOM     21  C   UNL     1       1.539   7.888  20.721  0.00  0.00    +0.000 C 
BRANCH  21  22
ATOM     22  C   UNL     1       0.172   8.582  20.519  0.00  0.00    +0.000 C 
ATOM     23  C   UNL     1      -0.703   8.516  21.778  0.00  0.00    +0.000 C 
ATOM     24  C   UNL     1      -0.208   9.440  22.887  0.00  0.00    +0.000 C 
ATOM     25  C   UNL     1      -0.081  10.883  22.406  0.00  0.00    +0.000 C 
ATOM     26  C   UNL     1       0.755  11.003  21.133  0.00  0.00    +0.000 C 
ATOM     27  C   UNL     1       0.294  10.041  20.040  0.00  0.00    +0.000 C 
ENDBRANCH  21  22
ENDBRANCH  20  21
ENDBRANCH   3  20
TORSDOF 6
ENDMDL
MODEL 5
REMARK VINA RESULT:      -7.6      2.162      4.704
REMARK  Name = 
REMARK  7 active torsions:
REMARK  status: ('A' for Active; 'I' for Inactive)
REMARK    1  A    between atoms: C_1  and  O_2
REMARK    2  A    between atoms: O_2  and  C_3
REMARK    3  A    between atoms: C_6  and  O_7
REMARK    4  A    between atoms: O_7  and  C_8
REMARK    5  A    between atoms: C_10  and  O_11
REMARK    6  A    between atoms: O_11  and  C_12
REMARK    7  A    between atoms: C_12  and  C_13
REMARK                            x       y       z     vdW  Elec       q    Type
REMARK                         _______ _______ _______ _____ _____    ______ ____
ROOT
ATOM      1  C   UNL     1       2.141   6.447  19.960  0.00  0.00    +0.000 A 
ATOM      2  N   UNL     1       2.807   6.232  18.799  0.00  0.00    +0.000 NA
ATOM      3  C   UNL     1       2.789   4.982  18.294  0.00  0.00    +0.000 A 
ATOM      4  C   UNL     1       2.122   4.007  18.991  0.00  0.00    +0.000 A 
ATOM      5  N   UNL     1       1.921   2.667  18.818  0.00  0.00    +0.000 N 
ATOM      6  C   UNL     1       1.202   2.222  19.895  0.00  0.00    +0.000 A 
ATOM      7  N   UNL     1       0.900   3.204  20.715  0.00  0.00    +0.000 NA
ATOM      8  C   UNL     1       1.460   4.320  20.156  0.00  0.00    +0.000 A 
ATOM      9  N   UNL     1       1.412   5.559  20.658  0.00  0.00    +0.000 NA
ATOM     10  H   UNL     1       2.263   2.108  18.049  0.00  0.00    +0.000 HD
ENDROOT
BRANCH   1  11
ATOM     11  O   UNL     1       2.258   7.738  20.482  0.00  0.00    +0.000 OA
BRANCH  11  15
ATOM     12  C   UNL     1      -0.677  10.533  19.431  0.00  0.00    +0.000 A 
ATOM     13  C   UNL     1       0.263  10.131  18.484  0.00  0.00    +0.000 A 
ATOM     14  C   UNL     1       1.218   9.168  18.805  0.00  0.00    +0.000 A 
ATOM     15  C   UNL     1       1.289   8.649  20.097  0.00  0.00    +0.000 A 
ATOM     16  C   UNL     1       0.336   9.032  21.047  0.00  0.00    +0.000 A 
ATOM     17  C   UNL     1      -0.647   9.976  20.712  0.00  0.00    +0.000 A 
BRANCH  12  19
ATOM     18  C   UNL     1      -1.922  11.425  17.640  0.00  0.00    +0.000 C 
ATOM     19  O   UNL     1      -1.531  11.510  19.003  0.00  0.00    +0.000 OA
ENDBRANCH  12  19
ENDBRANCH  11  15
ENDBRANCH   1  11
BRANCH   3  20
ATOM     20  O   UNL     1       3.357   4.674  17.082  0.00  0.00    +0.000 OA
BRANCH  20  21
ATOM     21  C   UNL     1       4.617   4.007  17.182  0.00  0.00    +0.000 C 
BRANCH  21  22
ATOM     22  C   UNL     1       5.567   4.630  16.133  0.00  0.00    +0.000 C 
ATOM     23  C   UNL     1       5.296   6.126  15.922  0.00  0.00    +0.000 C 
ATOM     24  C   UNL     1       5.762   6.980  17.098  0.00  0.00    +0.000 C 
ATOM     25  C   UNL     1       7.237   6.749  17.414  0.00  0.00    +0.000 C 
ATOM     26  C   UNL     1       7.570   5.270  17.601  0.00  0.00    +0.000 C 
ATOM     27  C   UNL     1       7.058   4.407  16.450  0.00  0.00    +0.000 C 
ENDBRANCH  21  22
ENDBRANCH  20  21
ENDBRANCH   3  20
TORSDOF 6
ENDMDL
MODEL 6
REMARK VINA RESULT:      -7.5      2.060      4.712
REMARK  Name = 
REMARK  7 active torsions:
REMARK  status: ('A' for Active; 'I' for Inactive)
REMARK    1  A    between atoms: C_1  and  O_2
REMARK    2  A    between atoms: O_2  and  C_3
REMARK    3  A    between atoms: C_6  and  O_7
REMARK    4  A    between atoms: O_7  and  C_8
REMARK    5  A    between atoms: C_10  and  O_11
REMARK    6  A    between atoms: O_11  and  C_12
REMARK    7  A    between atoms: C_12  and  C_13
REMARK                            x       y       z     vdW  Elec       q    Type
REMARK                         _______ _______ _______ _____ _____    ______ ____
ROOT
ATOM      1  C   UNL     1       2.581   5.904  19.825  0.00  0.00    +0.000 A 
ATOM      2  N   UNL     1       3.712   5.653  19.119  0.00  0.00    +0.000 NA
ATOM      3  C   UNL     1       3.817   4.451  18.520  0.00  0.00    +0.000 A 
ATOM      4  C   UNL     1       2.793   3.551  18.678  0.00  0.00    +0.000 A 
ATOM      5  N   UNL     1       2.566   2.269  18.266  0.00  0.00    +0.000 N 
ATOM      6  C   UNL     1       1.364   1.881  18.792  0.00  0.00    +0.000 A 
ATOM      7  N   UNL     1       0.797   2.851  19.476  0.00  0.00    +0.000 NA
ATOM      8  C   UNL     1       1.675   3.897  19.402  0.00  0.00    +0.000 A 
ATOM      9  N   UNL     1       1.513   5.099  19.965  0.00  0.00    +0.000 NA
ATOM     10  H   UNL     1       3.185   1.708  17.699  0.00  0.00    +0.000 HD
ENDROOT
BRANCH   1  11
ATOM     11  O   UNL     1       2.557   7.131  20.492  0.00  0.00    +0.000 OA
BRANCH  11  15
ATOM     12  C   UNL     1       0.232  10.090  18.657  0.00  0.00    +0.000 A 
ATOM     13  C   UNL     1       0.064   9.823  20.015  0.00  0.00    +0.000 A 
ATOM     14  C   UNL     1       0.861   8.874  20.650  0.00  0.00    +0.000 A 
ATOM     15  C   UNL     1       1.787   8.129  19.919  0.00  0.00    +0.000 A 
ATOM     16  C   UNL     1       1.975   8.405  18.561  0.00  0.00    +0.000 A 
ATOM     17  C   UNL     1       1.195   9.386  17.930  0.00  0.00    +0.000 A 
BRANCH  12  19
ATOM     18  C   UNL     1      -1.880  10.496  17.692  0.00  0.00    +0.000 C 
ATOM     19  O   UNL     1      -0.638  11.013  18.148  0.00  0.00    +0.000 OA
ENDBRANCH  12  19
ENDBRANCH  11  15
ENDBRANCH   1  11
BRANCH   3  20
ATOM     20  O   UNL     1       4.879   4.126  17.712  0.00  0.00    +0.000 OA
BRANCH  20  21
ATOM     21  C   UNL     1       5.236   5.149  16.780  0.00  0.00    +0.000 C 
BRANCH  21  22
ATOM     22  C   UNL     1       6.774   5.126  16.620  0.00  0.00    +0.000 C 
ATOM     23  C   UNL     1       7.337   6.500  16.229  0.00  0.00    +0.000 C 
ATOM     24  C   UNL     1       7.302   7.499  17.382  0.00  0.00    +0.000 C 
ATOM     25  C   UNL     1       8.024   6.964  18.615  0.00  0.00    +0.000 C 
ATOM     26  C   UNL     1       7.526   5.581  19.029  0.00  0.00    +0.000 C 
ATOM     27  C   UNL     1       7.510   4.593  17.864  0.00  0.00    +0.000 C 
ENDBRANCH  21  22
ENDBRANCH  20  21
ENDBRANCH   3  20
TORSDOF 6
ENDMDL
MODEL 7
REMARK VINA RESULT:      -7.5      2.152      4.501
REMARK  Name = 
REMARK  7 active torsions:
REMARK  status: ('A' for Active; 'I' for Inactive)
REMARK    1  A    between atoms: C_1  and  O_2
REMARK    2  A    between atoms: O_2  and  C_3
REMARK    3  A    between atoms: C_6  and  O_7
REMARK    4  A    between atoms: O_7  and  C_8
REMARK    5  A    between atoms: C_10  and  O_11
REMARK    6  A    between atoms: O_11  and  C_12
REMARK    7  A    between atoms: C_12  and  C_13
REMARK                            x       y       z     vdW  Elec       q    Type
REMARK                         _______ _______ _______ _____ _____    ______ ____
ROOT
ATOM      1  C   UNL     1       2.505   5.492  20.078  0.00  0.00    +0.000 A 
ATOM      2  N   UNL     1       3.851   5.396  19.946  0.00  0.00    +0.000 NA
ATOM      3  C   UNL     1       4.332   4.373  19.212  0.00  0.00    +0.000 A 
ATOM      4  C   UNL     1       3.440   3.484  18.667  0.00  0.00    +0.000 A 
ATOM      5  N   UNL     1       3.550   2.347  17.920  0.00  0.00    +0.000 N 
ATOM      6  C   UNL     1       2.283   1.868  17.721  0.00  0.00    +0.000 A 
ATOM      7  N   UNL     1       1.377   2.656  18.258  0.00  0.00    +0.000 NA
ATOM      8  C   UNL     1       2.087   3.669  18.841  0.00  0.00    +0.000 A 
ATOM      9  N   UNL     1       1.572   4.702  19.517  0.00  0.00    +0.000 NA
ATOM     10  H   UNL     1       4.410   1.926  17.598  0.00  0.00    +0.000 HD
ENDROOT
BRANCH   1  11
ATOM     11  O   UNL     1       2.061   6.521  20.913  0.00  0.00    +0.000 OA
BRANCH  11  15
ATOM     12  C   UNL     1       0.992  10.054  18.936  0.00  0.00    +0.000 A 
ATOM     13  C   UNL     1       0.550   9.831  20.239  0.00  0.00    +0.000 A 
ATOM     14  C   UNL     1       0.934   8.681  20.926  0.00  0.00    +0.000 A 
ATOM     15  C   UNL     1       1.707   7.708  20.294  0.00  0.00    +0.000 A 
ATOM     16  C   UNL     1       2.171   7.933  18.994  0.00  0.00    +0.000 A 
ATOM     17  C   UNL     1       1.811   9.108  18.315  0.00  0.00    +0.000 A 
BRANCH  12  19
ATOM     18  C   UNL     1       0.524  12.350  19.192  0.00  0.00    +0.000 C 
ATOM     19  O   UNL     1       0.512  11.197  18.362  0.00  0.00    +0.000 OA
ENDBRANCH  12  19
ENDBRANCH  11  15
ENDBRANCH   1  11
BRANCH   3  20
ATOM     20  O   UNL     1       5.672   4.231  18.945  0.00  0.00    +0.000 OA
BRANCH  20  21
ATOM     21  C   UNL     1       6.465   5.359  19.321  0.00  0.00    +0.000 C 
BRANCH  21  22
ATOM     22  C   UNL     1       7.313   5.771  18.096  0.00  0.00    +0.000 C 
ATOM     23  C   UNL     1       7.496   4.615  17.103  0.00  0.00    +0.000 C 
ATOM     24  C   UNL     1       6.221   4.300  16.326  0.00  0.00    +0.000 C 
ATOM     25  C   UNL     1       5.677   5.533  15.609  0.00  0.00    +0.000 C 
ATOM     26  C   UNL     1       5.507   6.726  16.546  0.00  0.00    +0.000 C 
ATOM     27  C   UNL     1       6.765   7.011  17.363  0.00  0.00    +0.000 C 
ENDBRANCH  21  22
ENDBRANCH  20  21
ENDBRANCH   3  20
TORSDOF 6
ENDMDL
MODEL 8
REMARK VINA RESULT:      -7.5      0.931      1.450
REMARK  Name = 
REMARK  7 active torsions:
REMARK  status: ('A' for Active; 'I' for Inactive)
REMARK    1  A    between atoms: C_1  and  O_2
REMARK    2  A    between atoms: O_2  and  C_3
REMARK    3  A    between atoms: C_6  and  O_7
REMARK    4  A    between atoms: O_7  and  C_8
REMARK    5  A    between atoms: C_10  and  O_11
REMARK    6  A    between atoms: O_11  and  C_12
REMARK    7  A    between atoms: C_12  and  C_13
REMARK                            x       y       z     vdW  Elec       q    Type
REMARK                         _______ _______ _______ _____ _____    ______ ____
ROOT
ATOM      1  C   UNL     1       3.997   6.729  17.627  0.00  0.00    +0.000 A 
ATOM      2  N   UNL     1       3.620   5.770  18.508  0.00  0.00    +0.000 NA
ATOM      3  C   UNL     1       4.535   4.839  18.844  0.00  0.00    +0.000 A 
ATOM      4  C   UNL     1       5.775   4.903  18.261  0.00  0.00    +0.000 A 
ATOM      5  N   UNL     1       6.909   4.145  18.325  0.00  0.00    +0.000 N 
ATOM      6  C   UNL     1       7.815   4.697  17.461  0.00  0.00    +0.000 A 
ATOM      7  N   UNL     1       7.341   5.781  16.887  0.00  0.00    +0.000 NA
ATOM      8  C   UNL     1       6.076   5.922  17.386  0.00  0.00    +0.000 A 
ATOM      9  N   UNL     1       5.211   6.893  17.071  0.00  0.00    +0.000 NA
ATOM     10  H   UNL     1       7.040   3.317  18.889  0.00  0.00    +0.000 HD
ENDROOT
BRANCH   1  11
ATOM     11  O   UNL     1       2.989   7.621  17.251  0.00  0.00    +0.000 OA
BRANCH  11  15
ATOM     12  C   UNL     1       0.940   9.402  20.437  0.00  0.00    +0.000 A 
ATOM     13  C   UNL     1       1.024  10.065  19.214  0.00  0.00    +0.000 A 
ATOM     14  C   UNL     1       1.664   9.467  18.131  0.00  0.00    +0.000 A 
ATOM     15  C   UNL     1       2.288   8.228  18.278  0.00  0.00    +0.000 A 
ATOM     16  C   UNL     1       2.190   7.547  19.496  0.00  0.00    +0.000 A 
ATOM     17  C   UNL     1       1.516   8.137  20.577  0.00  0.00    +0.000 A 
BRANCH  12  19
ATOM     18  C   UNL     1      -0.060   9.365  22.571  0.00  0.00    +0.000 C 
ATOM     19  O   UNL     1       0.323  10.114  21.427  0.00  0.00    +0.000 OA
ENDBRANCH  12  19
ENDBRANCH  11  15
ENDBRANCH   1  11
BRANCH   3  20
ATOM     20  O   UNL     1       4.285   3.876  19.791  0.00  0.00    +0.000 OA
BRANCH  20  21
ATOM     21  C   UNL     1       4.017   2.581  19.249  0.00  0.00    +0.000 C 
BRANCH  21  22
ATOM     22  C   UNL     1       2.773   2.014  19.972  0.00  0.00    +0.000 C 
ATOM     23  C   UNL     1       2.551   2.668  21.343  0.00  0.00    +0.000 C 
ATOM     24  C   UNL     1       2.043   4.103  21.235  0.00  0.00    +0.000 C 
ATOM     25  C   UNL     1       0.772   4.191  20.395  0.00  0.00    +0.000 C 
ATOM     26  C   UNL     1       0.926   3.524  19.030  0.00  0.00    +0.000 C 
ATOM     27  C   UNL     1       1.484   2.106  19.132  0.00  0.00    +0.000 C 
ENDBRANCH  21  22
ENDBRANCH  20  21
ENDBRANCH   3  20
TORSDOF 6
ENDMDL
MODEL 9
REMARK VINA RESULT:      -7.4      2.704      6.172
REMARK  Name = 
REMARK  7 active torsions:
REMARK  status: ('A' for Active; 'I' for Inactive)
REMARK    1  A    between atoms: C_1  and  O_2
REMARK    2  A    between atoms: O_2  and  C_3
REMARK    3  A    between atoms: C_6  and  O_7
REMARK    4  A    between atoms: O_7  and  C_8
REMARK    5  A    between atoms: C_10  and  O_11
REMARK    6  A    between atoms: O_11  and  C_12
REMARK    7  A    between atoms: C_12  and  C_13
REMARK                            x       y       z     vdW  Elec       q    Type
REMARK                         _______ _______ _______ _____ _____    ______ ____
ROOT
ATOM      1  C   UNL     1       4.976   5.947  17.991  0.00  0.00    +0.000 A 
ATOM      2  N   UNL     1       4.409   5.321  19.052  0.00  0.00    +0.000 NA
ATOM      3  C   UNL     1       3.265   5.839  19.542  0.00  0.00    +0.000 A 
ATOM      4  C   UNL     1       2.760   6.972  18.958  0.00  0.00    +0.000 A 
ATOM      5  N   UNL     1       1.680   7.776  19.191  0.00  0.00    +0.000 N 
ATOM      6  C   UNL     1       1.736   8.803  18.287  0.00  0.00    +0.000 A 
ATOM      7  N   UNL     1       2.758   8.675  17.470  0.00  0.00    +0.000 NA
ATOM      8  C   UNL     1       3.395   7.534  17.874  0.00  0.00    +0.000 A 
ATOM      9  N   UNL     1       4.501   7.017  17.328  0.00  0.00    +0.000 NA
ATOM     10  H   UNL     1       0.987   7.647  19.914  0.00  0.00    +0.000 HD
ENDROOT
BRANCH   1  11
ATOM     11  O   UNL     1       6.200   5.419  17.574  0.00  0.00    +0.000 OA
BRANCH  11  15
ATOM     12  C   UNL     1       6.245   3.957  13.651  0.00  0.00    +0.000 A 
ATOM     13  C   UNL     1       7.214   4.874  14.057  0.00  0.00    +0.000 A 
ATOM     14  C   UNL     1       7.240   5.335  15.371  0.00  0.00    +0.000 A 
ATOM     15  C   UNL     1       6.254   4.940  16.276  0.00  0.00    +0.000 A 
ATOM     16  C   UNL     1       5.291   4.005  15.882  0.00  0.00    +0.000 A 
ATOM     17  C   UNL     1       5.287   3.515  14.567  0.00  0.00    +0.000 A 
BRANCH  12  19
ATOM     18  C   UNL     1       5.134   3.017  11.797  0.00  0.00    +0.000 C 
ATOM     19  O   UNL     1       6.307   3.616  12.329  0.00  0.00    +0.000 OA
ENDBRANCH  12  19
ENDBRANCH  11  15
ENDBRANCH   1  11
BRANCH   3  20
ATOM     20  O   UNL     1       2.564   5.235  20.557  0.00  0.00    +0.000 OA
BRANCH  20  21
ATOM     21  C   UNL     1       1.239   4.839  20.197  0.00  0.00    +0.000 C 
BRANCH  21  22
ATOM     22  C   UNL     1       1.105   3.325  20.479  0.00  0.00    +0.000 C 
ATOM     23  C   UNL     1       0.768   2.527  19.211  0.00  0.00    +0.000 C 
ATOM     24  C   UNL     1       1.952   2.415  18.255  0.00  0.00    +0.000 C 
ATOM     25  C   UNL     1       3.179   1.823  18.942  0.00  0.00    +0.000 C 
ATOM     26  C   UNL     1       3.540   2.560  20.230  0.00  0.00    +0.000 C 
ATOM     27  C   UNL     1       2.343   2.720  21.166  0.00  0.00    +0.000 C 
ENDBRANCH  21  22
ENDBRANCH  20  21
ENDBRANCH   3  20
TORSDOF 6
ENDMDL
