MODEL 1
REMARK VINA RESULT:      -7.2      0.000      0.000
REMARK  Name = 
REMARK  4 active torsions:
REMARK  status: ('A' for Active; 'I' for Inactive)
REMARK    1  A    between atoms: C_4  and  C_5
REMARK    2  A    between atoms: C_5  and  N_6
REMARK    3  A    between atoms: C_7  and  C_8
REMARK    4  A    between atoms: C_18  and  C_19
REMARK                            x       y       z     vdW  Elec       q    Type
REMARK                         _______ _______ _______ _____ _____    ______ ____
ROOT
ATOM      1  N   UNL     1      -2.809  11.729  19.361  0.00  0.00    +0.000 NA
ATOM      2  C   UNL     1      -4.083  11.952  20.078  0.00  0.00    +0.000 C 
ATOM      3  C   UNL     1      -5.277  12.052  19.180  0.00  0.00    +0.000 C 
ATOM      4  C   UNL     1      -5.254  12.013  17.852  0.00  0.00    +0.000 C 
ATOM      5  N   UNL     1      -6.517  12.168  17.335  0.00  0.00    +0.000 N 
ATOM      6  O   UNL     1      -7.484  12.133  18.366  0.00  0.00    +0.000 OA
ATOM      7  C   UNL     1      -6.708  12.225  19.615  0.00  0.00    +0.000 C 
ATOM      8  C   UNL     1      -4.008  11.872  17.057  0.00  0.00    +0.000 C 
ATOM      9  C   UNL     1      -4.216  10.990  15.817  0.00  0.00    +0.000 C 
ATOM     10  C   UNL     1      -2.882  10.546  15.247  0.00  0.00    +0.000 C 
ATOM     11  C   UNL     1      -2.237   9.560  16.208  0.00  0.00    +0.000 C 
ATOM     12  C   UNL     1      -2.326   9.988  17.681  0.00  0.00    +0.000 C 
ATOM     13  C   UNL     1      -2.765  11.455  17.914  0.00  0.00    +0.000 C 
ATOM     14  H   UNL     1      -6.745  11.584  16.533  0.00  0.00    +0.000 HD
ENDROOT
BRANCH   2  15
ATOM     15  C   UNL     1      -4.062  13.133  21.049  0.00  0.00    +0.000 A 
ATOM     16  C   UNL     1      -3.829  14.446  20.605  0.00  0.00    +0.000 A 
ATOM     17  C   UNL     1      -3.841  15.512  21.507  0.00  0.00    +0.000 A 
ATOM     18  C   UNL     1      -4.087  15.283  22.861  0.00  0.00    +0.000 A 
ATOM     19  C   UNL     1      -4.322  13.989  23.318  0.00  0.00    +0.000 A 
ATOM     20  C   UNL     1      -4.314  12.923  22.419  0.00  0.00    +0.000 A 
ENDBRANCH   2  15
BRANCH   7  21
ATOM     21  C   UNL     1      -7.079  13.533  20.230  0.00  0.00    +0.000 A 
ATOM     22  C   UNL     1      -7.611  13.884  21.458  0.00  0.00    +0.000 A 
ATOM     23  C   UNL     1      -7.913  15.263  21.386  0.00  0.00    +0.000 A 
ATOM     24  C   UNL     1      -7.496  15.680  20.144  0.00  0.00    +0.000 A 
ATOM     25  O   UNL     1      -6.970  14.645  19.442  0.00  0.00    +0.000 OA
ENDBRANCH   7  21
BRANCH   1  26
ATOM     26  C   UNL     1      -1.535  12.126  19.968  0.00  0.00    +0.000 C 
BRANCH  26  30
ATOM     27  C   UNL     1       0.051   9.230  22.755  0.00  0.00    +0.000 A 
ATOM     28  C   UNL     1       0.302   9.096  21.391  0.00  0.00    +0.000 A 
ATOM     29  C   UNL     1      -0.193  10.039  20.486  0.00  0.00    +0.000 A 
ATOM     30  C   UNL     1      -0.938  11.134  20.942  0.00  0.00    +0.000 A 
ATOM     31  C   UNL     1      -1.125  11.289  22.323  0.00  0.00    +0.000 A 
ATOM     32  C   UNL     1      -0.662  10.330  23.225  0.00  0.00    +0.000 A 
ENDBRANCH  26  30
ENDBRANCH   1  26
TORSDOF 4
ENDMDL
MODEL 2
REMARK VINA RESULT:      -7.1      0.104      1.229
REMARK  Name = 
REMARK  4 active torsions:
REMARK  status: ('A' for Active; 'I' for Inactive)
REMARK    1  A    between atoms: C_4  and  C_5
REMARK    2  A    between atoms: C_5  and  N_6
REMARK    3  A    between atoms: C_7  and  C_8
REMARK    4  A    between atoms: C_18  and  C_19
REMARK                            x       y       z     vdW  Elec       q    Type
REMARK                         _______ _______ _______ _____ _____    ______ ____
ROOT
ATOM      1  N   UNL     1      -2.811  11.722  19.370  0.00  0.00    +0.000 NA
ATOM      2  C   UNL     1      -4.089  11.953  20.077  0.00  0.00    +0.000 C 
ATOM      3  C   UNL     1      -5.279  12.041  19.173  0.00  0.00    +0.000 C 
ATOM      4  C   UNL     1      -5.248  11.985  17.846  0.00  0.00    +0.000 C 
ATOM      5  N   UNL     1      -6.509  12.132  17.320  0.00  0.00    +0.000 N 
ATOM      6  O   UNL     1      -7.481  12.109  18.347  0.00  0.00    +0.000 OA
ATOM      7  C   UNL     1      -6.712  12.217  19.598  0.00  0.00    +0.000 C 
ATOM      8  C   UNL     1      -3.999  11.835  17.058  0.00  0.00    +0.000 C 
ATOM      9  C   UNL     1      -4.200  10.937  15.828  0.00  0.00    +0.000 C 
ATOM     10  C   UNL     1      -2.862  10.487  15.271  0.00  0.00    +0.000 C 
ATOM     11  C   UNL     1      -2.222   9.514  16.247  0.00  0.00    +0.000 C 
ATOM     12  C   UNL     1      -2.318   9.960  17.714  0.00  0.00    +0.000 C 
ATOM     13  C   UNL     1      -2.760  11.430  17.926  0.00  0.00    +0.000 C 
ATOM     14  H   UNL     1      -6.733  11.538  16.524  0.00  0.00    +0.000 HD
ENDROOT
BRANCH   2  15
ATOM     15  C   UNL     1      -4.074  13.147  21.034  0.00  0.00    +0.000 A 
ATOM     16  C   UNL     1      -4.264  12.984  22.416  0.00  0.00    +0.000 A 
ATOM     17  C   UNL     1      -4.219  14.085  23.273  0.00  0.00    +0.000 A 
ATOM     18  C   UNL     1      -3.983  15.362  22.762  0.00  0.00    +0.000 A 
ATOM     19  C   UNL     1      -3.790  15.542  21.395  0.00  0.00    +0.000 A 
ATOM     20  C   UNL     1      -3.830  14.443  20.538  0.00  0.00    +0.000 A 
ENDBRANCH   2  15
BRANCH   7  21
ATOM     21  C   UNL     1      -7.088  13.533  20.194  0.00  0.00    +0.000 A 
ATOM     22  C   UNL     1      -7.575  13.905  21.435  0.00  0.00    +0.000 A 
ATOM     23  C   UNL     1      -7.912  15.275  21.341  0.00  0.00    +0.000 A 
ATOM     24  C   UNL     1      -7.557  15.668  20.072  0.00  0.00    +0.000 A 
ATOM     25  O   UNL     1      -7.037  14.626  19.374  0.00  0.00    +0.000 OA
ENDBRANCH   7  21
BRANCH   1  26
ATOM     26  C   UNL     1      -1.541  12.128  19.978  0.00  0.00    +0.000 C 
BRANCH  26  30
ATOM     27  C   UNL     1       0.324   9.357  22.718  0.00  0.00    +0.000 A 
ATOM     28  C   UNL     1      -0.554  10.328  23.197  0.00  0.00    +0.000 A 
ATOM     29  C   UNL     1      -1.174  11.216  22.314  0.00  0.00    +0.000 A 
ATOM     30  C   UNL     1      -0.927  11.132  20.938  0.00  0.00    +0.000 A 
ATOM     31  C   UNL     1      -0.094  10.107  20.467  0.00  0.00    +0.000 A 
ATOM     32  C   UNL     1       0.553   9.243  21.350  0.00  0.00    +0.000 A 
ENDBRANCH  26  30
ENDBRANCH   1  26
TORSDOF 4
ENDMDL
MODEL 3
REMARK VINA RESULT:      -7.0      0.559      1.118
REMARK  Name = 
REMARK  4 active torsions:
REMARK  status: ('A' for Active; 'I' for Inactive)
REMARK    1  A    between atoms: C_4  and  C_5
REMARK    2  A    between atoms: C_5  and  N_6
REMARK    3  A    between atoms: C_7  and  C_8
REMARK    4  A    between atoms: C_18  and  C_19
REMARK                            x       y       z     vdW  Elec       q    Type
REMARK                         _______ _______ _______ _____ _____    ______ ____
ROOT
ATOM      1  N   UNL     1      -2.909  11.793  19.447  0.00  0.00    +0.000 NA
ATOM      2  C   UNL     1      -4.208  11.972  20.131  0.00  0.00    +0.000 C 
ATOM      3  C   UNL     1      -5.382  12.016  19.204  0.00  0.00    +0.000 C 
ATOM      4  C   UNL     1      -5.326  11.964  17.878  0.00  0.00    +0.000 C 
ATOM      5  N   UNL     1      -6.581  12.064  17.329  0.00  0.00    +0.000 N 
ATOM      6  O   UNL     1      -7.570  12.001  18.338  0.00  0.00    +0.000 OA
ATOM      7  C   UNL     1      -6.829  12.136  19.603  0.00  0.00    +0.000 C 
ATOM      8  C   UNL     1      -4.057  11.865  17.114  0.00  0.00    +0.000 C 
ATOM      9  C   UNL     1      -4.201  10.962  15.879  0.00  0.00    +0.000 C 
ATOM     10  C   UNL     1      -2.836  10.566  15.345  0.00  0.00    +0.000 C 
ATOM     11  C   UNL     1      -2.176   9.617  16.332  0.00  0.00    +0.000 C 
ATOM     12  C   UNL     1      -2.317  10.055  17.798  0.00  0.00    +0.000 C 
ATOM     13  C   UNL     1      -2.819  11.506  18.004  0.00  0.00    +0.000 C 
ATOM     14  H   UNL     1      -6.767  11.463  16.529  0.00  0.00    +0.000 HD
ENDROOT
BRANCH   2  15
ATOM     15  C   UNL     1      -4.256  13.163  21.089  0.00  0.00    +0.000 A 
ATOM     16  C   UNL     1      -4.013  14.474  20.646  0.00  0.00    +0.000 A 
ATOM     17  C   UNL     1      -4.090  15.549  21.534  0.00  0.00    +0.000 A 
ATOM     18  C   UNL     1      -4.410  15.330  22.874  0.00  0.00    +0.000 A 
ATOM     19  C   UNL     1      -4.656  14.038  23.330  0.00  0.00    +0.000 A 
ATOM     20  C   UNL     1      -4.585  12.963  22.445  0.00  0.00    +0.000 A 
ENDBRANCH   2  15
BRANCH   7  21
ATOM     21  C   UNL     1      -7.266  13.435  20.195  0.00  0.00    +0.000 A 
ATOM     22  C   UNL     1      -7.245  14.739  19.734  0.00  0.00    +0.000 A 
ATOM     23  C   UNL     1      -7.628  15.557  20.822  0.00  0.00    +0.000 A 
ATOM     24  C   UNL     1      -7.914  14.700  21.859  0.00  0.00    +0.000 A 
ATOM     25  O   UNL     1      -7.719  13.410  21.485  0.00  0.00    +0.000 OA
ENDBRANCH   7  21
BRANCH   1  26
ATOM     26  C   UNL     1      -1.666  12.246  20.079  0.00  0.00    +0.000 C 
BRANCH  26  30
ATOM     27  C   UNL     1       0.322   9.494  22.751  0.00  0.00    +0.000 A 
ATOM     28  C   UNL     1      -0.655  10.358  23.240  0.00  0.00    +0.000 A 
ATOM     29  C   UNL     1      -1.315  11.238  22.378  0.00  0.00    +0.000 A 
ATOM     30  C   UNL     1      -1.007  11.253  21.012  0.00  0.00    +0.000 A 
ATOM     31  C   UNL     1      -0.069  10.332  20.525  0.00  0.00    +0.000 A 
ATOM     32  C   UNL     1       0.616   9.477  21.390  0.00  0.00    +0.000 A 
ENDBRANCH  26  30
ENDBRANCH   1  26
TORSDOF 4
ENDMDL
MODEL 4
REMARK VINA RESULT:      -6.6      1.778      2.527
REMARK  Name = 
REMARK  4 active torsions:
REMARK  status: ('A' for Active; 'I' for Inactive)
REMARK    1  A    between atoms: C_4  and  C_5
REMARK    2  A    between atoms: C_5  and  N_6
REMARK    3  A    between atoms: C_7  and  C_8
REMARK    4  A    between atoms: C_18  and  C_19
REMARK                            x       y       z     vdW  Elec       q    Type
REMARK                         _______ _______ _______ _____ _____    ______ ____
ROOT
ATOM      1  N   UNL     1      -1.527  11.450  18.938  0.00  0.00    +0.000 NA
ATOM      2  C   UNL     1      -2.327  11.861  20.112  0.00  0.00    +0.000 C 
ATOM      3  C   UNL     1      -3.742  12.227  19.785  0.00  0.00    +0.000 C 
ATOM      4  C   UNL     1      -4.273  12.258  18.568  0.00  0.00    +0.000 C 
ATOM      5  N   UNL     1      -5.583  12.669  18.615  0.00  0.00    +0.000 N 
ATOM      6  O   UNL     1      -6.030  12.752  19.955  0.00  0.00    +0.000 OA
ATOM      7  C   UNL     1      -4.808  12.632  20.768  0.00  0.00    +0.000 C 
ATOM      8  C   UNL     1      -3.515  11.937  17.333  0.00  0.00    +0.000 C 
ATOM      9  C   UNL     1      -4.376  11.178  16.312  0.00  0.00    +0.000 C 
ATOM     10  C   UNL     1      -3.503  10.531  15.253  0.00  0.00    +0.000 C 
ATOM     11  C   UNL     1      -2.719   9.393  15.886  0.00  0.00    +0.000 C 
ATOM     12  C   UNL     1      -2.113   9.747  17.253  0.00  0.00    +0.000 C 
ATOM     13  C   UNL     1      -2.133  11.254  17.609  0.00  0.00    +0.000 C 
ATOM     14  H   UNL     1      -6.227  12.181  17.994  0.00  0.00    +0.000 HD
ENDROOT
BRANCH   2  15
ATOM     15  C   UNL     1      -1.687  12.963  20.957  0.00  0.00    +0.000 A 
ATOM     16  C   UNL     1      -1.432  14.240  20.430  0.00  0.00    +0.000 A 
ATOM     17  C   UNL     1      -0.872  15.239  21.229  0.00  0.00    +0.000 A 
ATOM     18  C   UNL     1      -0.560  14.977  22.563  0.00  0.00    +0.000 A 
ATOM     19  C   UNL     1      -0.808  13.718  23.103  0.00  0.00    +0.000 A 
ATOM     20  C   UNL     1      -1.371  12.720  22.309  0.00  0.00    +0.000 A 
ENDBRANCH   2  15
BRANCH   7  21
ATOM     21  C   UNL     1      -4.640  13.950  21.449  0.00  0.00    +0.000 A 
ATOM     22  C   UNL     1      -4.520  14.321  22.776  0.00  0.00    +0.000 A 
ATOM     23  C   UNL     1      -4.574  15.733  22.806  0.00  0.00    +0.000 A 
ATOM     24  C   UNL     1      -4.665  16.138  21.496  0.00  0.00    +0.000 A 
ATOM     25  O   UNL     1      -4.685  15.067  20.662  0.00  0.00    +0.000 OA
ENDBRANCH   7  21
BRANCH   1  26
ATOM     26  C   UNL     1      -0.066  11.575  18.954  0.00  0.00    +0.000 C 
BRANCH  26  30
ATOM     27  C   UNL     1       1.998   7.836  19.608  0.00  0.00    +0.000 A 
ATOM     28  C   UNL     1       2.075   8.468  18.368  0.00  0.00    +0.000 A 
ATOM     29  C   UNL     1       1.425   9.686  18.156  0.00  0.00    +0.000 A 
ATOM     30  C   UNL     1       0.697  10.289  19.190  0.00  0.00    +0.000 A 
ATOM     31  C   UNL     1       0.685   9.673  20.449  0.00  0.00    +0.000 A 
ATOM     32  C   UNL     1       1.304   8.439  20.653  0.00  0.00    +0.000 A 
ENDBRANCH  26  30
ENDBRANCH   1  26
TORSDOF 4
ENDMDL
MODEL 5
REMARK VINA RESULT:      -6.5      1.779      2.785
REMARK  Name = 
REMARK  4 active torsions:
REMARK  status: ('A' for Active; 'I' for Inactive)
REMARK    1  A    between atoms: C_4  and  C_5
REMARK    2  A    between atoms: C_5  and  N_6
REMARK    3  A    between atoms: C_7  and  C_8
REMARK    4  A    between atoms: C_18  and  C_19
REMARK                            x       y       z     vdW  Elec       q    Type
REMARK                         _______ _______ _______ _____ _____    ______ ____
ROOT
ATOM      1  N   UNL     1      -1.578  11.380  18.939  0.00  0.00    +0.000 NA
ATOM      2  C   UNL     1      -2.389  11.799  20.102  0.00  0.00    +0.000 C 
ATOM      3  C   UNL     1      -3.788  12.203  19.754  0.00  0.00    +0.000 C 
ATOM      4  C   UNL     1      -4.296  12.259  18.528  0.00  0.00    +0.000 C 
ATOM      5  N   UNL     1      -5.596  12.702  18.555  0.00  0.00    +0.000 N 
ATOM      6  O   UNL     1      -6.065  12.782  19.887  0.00  0.00    +0.000 OA
ATOM      7  C   UNL     1      -4.862  12.624  20.721  0.00  0.00    +0.000 C 
ATOM      8  C   UNL     1      -3.523  11.933  17.303  0.00  0.00    +0.000 C 
ATOM      9  C   UNL     1      -4.383  11.205  16.259  0.00  0.00    +0.000 C 
ATOM     10  C   UNL     1      -3.506  10.548  15.208  0.00  0.00    +0.000 C 
ATOM     11  C   UNL     1      -2.763   9.385  15.843  0.00  0.00    +0.000 C 
ATOM     12  C   UNL     1      -2.174   9.709  17.225  0.00  0.00    +0.000 C 
ATOM     13  C   UNL     1      -2.163  11.213  17.597  0.00  0.00    +0.000 C 
ATOM     14  H   UNL     1      -6.240  12.237  17.918  0.00  0.00    +0.000 HD
ENDROOT
BRANCH   2  15
ATOM     15  C   UNL     1      -1.738  12.876  20.971  0.00  0.00    +0.000 A 
ATOM     16  C   UNL     1      -1.417  12.639  22.318  0.00  0.00    +0.000 A 
ATOM     17  C   UNL     1      -0.798  13.628  23.084  0.00  0.00    +0.000 A 
ATOM     18  C   UNL     1      -0.491  14.865  22.517  0.00  0.00    +0.000 A 
ATOM     19  C   UNL     1      -0.800  15.117  21.183  0.00  0.00    +0.000 A 
ATOM     20  C   UNL     1      -1.414  14.129  20.414  0.00  0.00    +0.000 A 
ENDBRANCH   2  15
BRANCH   7  21
ATOM     21  C   UNL     1      -4.675  13.930  21.419  0.00  0.00    +0.000 A 
ATOM     22  C   UNL     1      -4.586  14.286  22.753  0.00  0.00    +0.000 A 
ATOM     23  C   UNL     1      -4.596  15.699  22.795  0.00  0.00    +0.000 A 
ATOM     24  C   UNL     1      -4.631  16.118  21.485  0.00  0.00    +0.000 A 
ATOM     25  O   UNL     1      -4.658  15.054  20.642  0.00  0.00    +0.000 OA
ENDBRANCH   7  21
BRANCH   1  26
ATOM     26  C   UNL     1      -0.115  11.469  18.983  0.00  0.00    +0.000 C 
BRANCH  26  30
ATOM     27  C   UNL     1       2.078   7.797  19.599  0.00  0.00    +0.000 A 
ATOM     28  C   UNL     1       1.314   8.336  20.633  0.00  0.00    +0.000 A 
ATOM     29  C   UNL     1       0.589   9.513  20.435  0.00  0.00    +0.000 A 
ATOM     30  C   UNL     1       0.613  10.158  19.192  0.00  0.00    +0.000 A 
ATOM     31  C   UNL     1       1.333   9.567  18.143  0.00  0.00    +0.000 A 
ATOM     32  C   UNL     1       2.086   8.410  18.350  0.00  0.00    +0.000 A 
ENDBRANCH  26  30
ENDBRANCH   1  26
TORSDOF 4
ENDMDL
MODEL 6
REMARK VINA RESULT:      -6.5      1.895      2.834
REMARK  Name = 
REMARK  4 active torsions:
REMARK  status: ('A' for Active; 'I' for Inactive)
REMARK    1  A    between atoms: C_4  and  C_5
REMARK    2  A    between atoms: C_5  and  N_6
REMARK    3  A    between atoms: C_7  and  C_8
REMARK    4  A    between atoms: C_18  and  C_19
REMARK                            x       y       z     vdW  Elec       q    Type
REMARK                         _______ _______ _______ _____ _____    ______ ____
ROOT
ATOM      1  N   UNL     1      -1.515  11.432  18.953  0.00  0.00    +0.000 NA
ATOM      2  C   UNL     1      -2.314  11.839  20.129  0.00  0.00    +0.000 C 
ATOM      3  C   UNL     1      -3.728  12.209  19.805  0.00  0.00    +0.000 C 
ATOM      4  C   UNL     1      -4.259  12.247  18.587  0.00  0.00    +0.000 C 
ATOM      5  N   UNL     1      -5.569  12.660  18.637  0.00  0.00    +0.000 N 
ATOM      6  O   UNL     1      -6.014  12.738  19.977  0.00  0.00    +0.000 OA
ATOM      7  C   UNL     1      -4.792  12.612  20.789  0.00  0.00    +0.000 C 
ATOM      8  C   UNL     1      -3.502  11.931  17.350  0.00  0.00    +0.000 C 
ATOM      9  C   UNL     1      -4.365  11.178  16.326  0.00  0.00    +0.000 C 
ATOM     10  C   UNL     1      -3.493  10.534  15.264  0.00  0.00    +0.000 C 
ATOM     11  C   UNL     1      -2.711   9.392  15.891  0.00  0.00    +0.000 C 
ATOM     12  C   UNL     1      -2.105   9.738  17.259  0.00  0.00    +0.000 C 
ATOM     13  C   UNL     1      -2.121  11.243  17.623  0.00  0.00    +0.000 C 
ATOM     14  H   UNL     1      -6.213  12.177  18.014  0.00  0.00    +0.000 HD
ENDROOT
BRANCH   2  15
ATOM     15  C   UNL     1      -1.671  12.936  20.979  0.00  0.00    +0.000 A 
ATOM     16  C   UNL     1      -1.372  12.733  22.337  0.00  0.00    +0.000 A 
ATOM     17  C   UNL     1      -0.761  13.739  23.087  0.00  0.00    +0.000 A 
ATOM     18  C   UNL     1      -0.439  14.960  22.492  0.00  0.00    +0.000 A 
ATOM     19  C   UNL     1      -0.726  15.178  21.148  0.00  0.00    +0.000 A 
ATOM     20  C   UNL     1      -1.333  14.173  20.395  0.00  0.00    +0.000 A 
ENDBRANCH   2  15
BRANCH   7  21
ATOM     21  C   UNL     1      -4.622  13.926  21.476  0.00  0.00    +0.000 A 
ATOM     22  C   UNL     1      -4.523  15.227  21.018  0.00  0.00    +0.000 A 
ATOM     23  C   UNL     1      -4.189  16.024  22.137  0.00  0.00    +0.000 A 
ATOM     24  C   UNL     1      -4.163  15.173  23.216  0.00  0.00    +0.000 A 
ATOM     25  O   UNL     1      -4.444  13.901  22.831  0.00  0.00    +0.000 OA
ENDBRANCH   7  21
BRANCH   1  26
ATOM     26  C   UNL     1      -0.053  11.554  18.969  0.00  0.00    +0.000 C 
BRANCH  26  30
ATOM     27  C   UNL     1       2.004   7.807  19.597  0.00  0.00    +0.000 A 
ATOM     28  C   UNL     1       2.088   8.451  18.364  0.00  0.00    +0.000 A 
ATOM     29  C   UNL     1       1.440   9.672  18.160  0.00  0.00    +0.000 A 
ATOM     30  C   UNL     1       0.707  10.265  19.196  0.00  0.00    +0.000 A 
ATOM     31  C   UNL     1       0.688   9.637  20.449  0.00  0.00    +0.000 A 
ATOM     32  C   UNL     1       1.305   8.400  20.644  0.00  0.00    +0.000 A 
ENDBRANCH  26  30
ENDBRANCH   1  26
TORSDOF 4
ENDMDL
MODEL 7
REMARK VINA RESULT:      -6.5      1.902      2.841
REMARK  Name = 
REMARK  4 active torsions:
REMARK  status: ('A' for Active; 'I' for Inactive)
REMARK    1  A    between atoms: C_4  and  C_5
REMARK    2  A    between atoms: C_5  and  N_6
REMARK    3  A    between atoms: C_7  and  C_8
REMARK    4  A    between atoms: C_18  and  C_19
REMARK                            x       y       z     vdW  Elec       q    Type
REMARK                         _______ _______ _______ _____ _____    ______ ____
ROOT
ATOM      1  N   UNL     1      -1.528  11.364  18.915  0.00  0.00    +0.000 NA
ATOM      2  C   UNL     1      -2.321  11.784  20.091  0.00  0.00    +0.000 C 
ATOM      3  C   UNL     1      -3.723  12.196  19.763  0.00  0.00    +0.000 C 
ATOM      4  C   UNL     1      -4.247  12.257  18.544  0.00  0.00    +0.000 C 
ATOM      5  N   UNL     1      -5.545  12.706  18.590  0.00  0.00    +0.000 N 
ATOM      6  O   UNL     1      -5.995  12.787  19.929  0.00  0.00    +0.000 OA
ATOM      7  C   UNL     1      -4.781  12.620  20.746  0.00  0.00    +0.000 C 
ATOM      8  C   UNL     1      -3.493  11.930  17.308  0.00  0.00    +0.000 C 
ATOM      9  C   UNL     1      -4.372  11.209  16.274  0.00  0.00    +0.000 C 
ATOM     10  C   UNL     1      -3.513  10.549  15.210  0.00  0.00    +0.000 C 
ATOM     11  C   UNL     1      -2.766   9.381  15.833  0.00  0.00    +0.000 C 
ATOM     12  C   UNL     1      -2.157   9.700  17.206  0.00  0.00    +0.000 C 
ATOM     13  C   UNL     1      -2.133  11.202  17.582  0.00  0.00    +0.000 C 
ATOM     14  H   UNL     1      -6.199  12.246  17.961  0.00  0.00    +0.000 HD
ENDROOT
BRANCH   2  15
ATOM     15  C   UNL     1      -1.653  12.856  20.953  0.00  0.00    +0.000 A 
ATOM     16  C   UNL     1      -1.268  14.096  20.416  0.00  0.00    +0.000 A 
ATOM     17  C   UNL     1      -0.683  15.070  21.229  0.00  0.00    +0.000 A 
ATOM     18  C   UNL     1      -0.477  14.820  22.585  0.00  0.00    +0.000 A 
ATOM     19  C   UNL     1      -0.855  13.597  23.134  0.00  0.00    +0.000 A 
ATOM     20  C   UNL     1      -1.442  12.625  22.326  0.00  0.00    +0.000 A 
ENDBRANCH   2  15
BRANCH   7  21
ATOM     21  C   UNL     1      -4.578  13.924  21.444  0.00  0.00    +0.000 A 
ATOM     22  C   UNL     1      -4.401  15.221  20.994  0.00  0.00    +0.000 A 
ATOM     23  C   UNL     1      -4.075  15.999  22.128  0.00  0.00    +0.000 A 
ATOM     24  C   UNL     1      -4.130  15.146  23.204  0.00  0.00    +0.000 A 
ATOM     25  O   UNL     1      -4.454  13.889  22.805  0.00  0.00    +0.000 OA
ENDBRANCH   7  21
BRANCH   1  26
ATOM     26  C   UNL     1      -0.064  11.445  18.939  0.00  0.00    +0.000 C 
BRANCH  26  30
ATOM     27  C   UNL     1       2.117   7.766  19.552  0.00  0.00    +0.000 A 
ATOM     28  C   UNL     1       1.363   8.312  20.590  0.00  0.00    +0.000 A 
ATOM     29  C   UNL     1       0.641   9.492  20.392  0.00  0.00    +0.000 A 
ATOM     30  C   UNL     1       0.660  10.132  19.147  0.00  0.00    +0.000 A 
ATOM     31  C   UNL     1       1.370   9.535  18.096  0.00  0.00    +0.000 A 
ATOM     32  C   UNL     1       2.120   8.376  18.301  0.00  0.00    +0.000 A 
ENDBRANCH  26  30
ENDBRANCH   1  26
TORSDOF 4
ENDMDL
MODEL 8
REMARK VINA RESULT:      -6.4      1.607      2.267
REMARK  Name = 
REMARK  4 active torsions:
REMARK  status: ('A' for Active; 'I' for Inactive)
REMARK    1  A    between atoms: C_4  and  C_5
REMARK    2  A    between atoms: C_5  and  N_6
REMARK    3  A    between atoms: C_7  and  C_8
REMARK    4  A    between atoms: C_18  and  C_19
REMARK                            x       y       z     vdW  Elec       q    Type
REMARK                         _______ _______ _______ _____ _____    ______ ____
ROOT
ATOM      1  N   UNL     1      -2.040  11.702  19.606  0.00  0.00    +0.000 NA
ATOM      2  C   UNL     1      -2.876  12.087  20.764  0.00  0.00    +0.000 C 
ATOM      3  C   UNL     1      -4.289  12.428  20.407  0.00  0.00    +0.000 C 
ATOM      4  C   UNL     1      -4.792  12.460  19.178  0.00  0.00    +0.000 C 
ATOM      5  N   UNL     1      -6.111  12.845  19.198  0.00  0.00    +0.000 N 
ATOM      6  O   UNL     1      -6.589  12.908  20.527  0.00  0.00    +0.000 OA
ATOM      7  C   UNL     1      -5.385  12.804  21.368  0.00  0.00    +0.000 C 
ATOM      8  C   UNL     1      -3.999  12.165  17.958  0.00  0.00    +0.000 C 
ATOM      9  C   UNL     1      -4.821  11.399  16.911  0.00  0.00    +0.000 C 
ATOM     10  C   UNL     1      -3.911  10.778  15.867  0.00  0.00    +0.000 C 
ATOM     11  C   UNL     1      -3.120   9.650  16.508  0.00  0.00    +0.000 C 
ATOM     12  C   UNL     1      -2.554  10.003  17.892  0.00  0.00    +0.000 C 
ATOM     13  C   UNL     1      -2.611  11.506  18.261  0.00  0.00    +0.000 C 
ATOM     14  H   UNL     1      -6.729  12.351  18.558  0.00  0.00    +0.000 HD
ENDROOT
BRANCH   2  15
ATOM     15  C   UNL     1      -2.277  13.193  21.634  0.00  0.00    +0.000 A 
ATOM     16  C   UNL     1      -1.893  12.956  22.964  0.00  0.00    +0.000 A 
ATOM     17  C   UNL     1      -1.323  13.974  23.730  0.00  0.00    +0.000 A 
ATOM     18  C   UNL     1      -1.128  15.241  23.180  0.00  0.00    +0.000 A 
ATOM     19  C   UNL     1      -1.501  15.494  21.863  0.00  0.00    +0.000 A 
ATOM     20  C   UNL     1      -2.066  14.477  21.093  0.00  0.00    +0.000 A 
ENDBRANCH   2  15
BRANCH   7  21
ATOM     21  C   UNL     1      -5.259  14.119  22.064  0.00  0.00    +0.000 A 
ATOM     22  C   UNL     1      -5.142  14.477  23.395  0.00  0.00    +0.000 A 
ATOM     23  C   UNL     1      -5.245  15.886  23.443  0.00  0.00    +0.000 A 
ATOM     24  C   UNL     1      -5.361  16.304  22.138  0.00  0.00    +0.000 A 
ATOM     25  O   UNL     1      -5.349  15.243  21.291  0.00  0.00    +0.000 OA
ENDBRANCH   7  21
BRANCH   1  26
ATOM     26  C   UNL     1      -0.582  11.854  19.657  0.00  0.00    +0.000 C 
BRANCH  26  30
ATOM     27  C   UNL     1       1.505   8.266  20.856  0.00  0.00    +0.000 A 
ATOM     28  C   UNL     1       1.555   8.693  19.530  0.00  0.00    +0.000 A 
ATOM     29  C   UNL     1       0.897   9.862  19.140  0.00  0.00    +0.000 A 
ATOM     30  C   UNL     1       0.189  10.622  20.079  0.00  0.00    +0.000 A 
ATOM     31  C   UNL     1       0.204  10.214  21.420  0.00  0.00    +0.000 A 
ATOM     32  C   UNL     1       0.831   9.029  21.805  0.00  0.00    +0.000 A 
ENDBRANCH  26  30
ENDBRANCH   1  26
TORSDOF 4
ENDMDL
MODEL 9
REMARK VINA RESULT:      -6.4      1.422      1.623
REMARK  Name = 
REMARK  4 active torsions:
REMARK  status: ('A' for Active; 'I' for Inactive)
REMARK    1  A    between atoms: C_4  and  C_5
REMARK    2  A    between atoms: C_5  and  N_6
REMARK    3  A    between atoms: C_7  and  C_8
REMARK    4  A    between atoms: C_18  and  C_19
REMARK                            x       y       z     vdW  Elec       q    Type
REMARK                         _______ _______ _______ _____ _____    ______ ____
ROOT
ATOM      1  N   UNL     1      -2.446  11.881  19.927  0.00  0.00    +0.000 NA
ATOM      2  C   UNL     1      -3.411  12.232  20.992  0.00  0.00    +0.000 C 
ATOM      3  C   UNL     1      -4.794  12.510  20.492  0.00  0.00    +0.000 C 
ATOM      4  C   UNL     1      -5.170  12.517  19.218  0.00  0.00    +0.000 C 
ATOM      5  N   UNL     1      -6.500  12.844  19.101  0.00  0.00    +0.000 N 
ATOM      6  O   UNL     1      -7.113  12.889  20.374  0.00  0.00    +0.000 OA
ATOM      7  C   UNL     1      -5.997  12.839  21.334  0.00  0.00    +0.000 C 
ATOM      8  C   UNL     1      -4.245  12.254  18.087  0.00  0.00    +0.000 C 
ATOM      9  C   UNL     1      -4.923  11.450  16.967  0.00  0.00    +0.000 C 
ATOM     10  C   UNL     1      -3.885  10.868  16.025  0.00  0.00    +0.000 C 
ATOM     11  C   UNL     1      -3.115   9.776  16.750  0.00  0.00    +0.000 C 
ATOM     12  C   UNL     1      -2.708  10.157  18.182  0.00  0.00    +0.000 C 
ATOM     13  C   UNL     1      -2.868  11.657  18.534  0.00  0.00    +0.000 C 
ATOM     14  H   UNL     1      -7.028  12.322  18.405  0.00  0.00    +0.000 HD
ENDROOT
BRANCH   2  15
ATOM     15  C   UNL     1      -2.952  13.365  21.911  0.00  0.00    +0.000 A 
ATOM     16  C   UNL     1      -2.719  14.660  21.420  0.00  0.00    +0.000 A 
ATOM     17  C   UNL     1      -2.327  15.686  22.283  0.00  0.00    +0.000 A 
ATOM     18  C   UNL     1      -2.163  15.433  23.645  0.00  0.00    +0.000 A 
ATOM     19  C   UNL     1      -2.392  14.155  24.149  0.00  0.00    +0.000 A 
ATOM     20  C   UNL     1      -2.788  13.130  23.291  0.00  0.00    +0.000 A 
ENDBRANCH   2  15
BRANCH   7  21
ATOM     21  C   UNL     1      -6.000  14.160  22.030  0.00  0.00    +0.000 A 
ATOM     22  C   UNL     1      -6.058  14.527  23.363  0.00  0.00    +0.000 A 
ATOM     23  C   UNL     1      -6.212  15.932  23.387  0.00  0.00    +0.000 A 
ATOM     24  C   UNL     1      -6.181  16.341  22.075  0.00  0.00    +0.000 A 
ATOM     25  O   UNL     1      -6.032  15.278  21.244  0.00  0.00    +0.000 OA
ENDBRANCH   7  21
BRANCH   1  26
ATOM     26  C   UNL     1      -1.009  12.097  20.125  0.00  0.00    +0.000 C 
BRANCH  26  30
ATOM     27  C   UNL     1       1.051   8.692  21.808  0.00  0.00    +0.000 A 
ATOM     28  C   UNL     1       1.136   8.954  20.442  0.00  0.00    +0.000 A 
ATOM     29  C   UNL     1       0.487  10.064  19.895  0.00  0.00    +0.000 A 
ATOM     30  C   UNL     1      -0.247  10.929  20.715  0.00  0.00    +0.000 A 
ATOM     31  C   UNL     1      -0.268  10.689  22.096  0.00  0.00    +0.000 A 
ATOM     32  C   UNL     1       0.350   9.562  22.640  0.00  0.00    +0.000 A 
ENDBRANCH  26  30
ENDBRANCH   1  26
TORSDOF 4
ENDMDL
