MODEL 1
REMARK VINA RESULT:      -5.7      0.000      0.000
REMARK  Name = 
REMARK  6 active torsions:
REMARK  status: ('A' for Active; 'I' for Inactive)
REMARK    1  A    between atoms: C_1  and  N_2
REMARK    2  A    between atoms: C_6  and  N_7
REMARK    3  A    between atoms: C_9  and  C_10
REMARK    4  A    between atoms: C_13  and  O_14
REMARK    5  A    between atoms: C_17  and  C_18
REMARK    6  A    between atoms: C_17  and  C_19
REMARK                            x       y       z     vdW  Elec       q    Type
REMARK                         _______ _______ _______ _____ _____    ______ ____
ROOT
ATOM      1  N   UNL     1       2.468   6.541  19.307  0.00  0.00    +0.000 N 
ATOM      2  O   UNL     1       1.811   6.411  18.215  0.00  0.00    +0.000 OA
ATOM      3  C   UNL     1       2.303   7.595  20.079  0.00  0.00    +0.000 C 
ENDROOT
BRANCH   1   9
ATOM      4  C   UNL     1       5.083   3.790  16.561  0.00  0.00    +0.000 C 
ATOM      5  N   UNL     1       4.359   4.054  17.809  0.00  0.00    +0.000 N 
ATOM      6  C   UNL     1       3.733   3.057  18.548  0.00  0.00    +0.000 C 
ATOM      7  S   UNL     1       3.688   1.420  18.240  0.00  0.00    +0.000 S 
ATOM      8  S   UNL     1       2.906   3.747  19.930  0.00  0.00    +0.000 S 
ATOM      9  C   UNL     1       3.442   5.449  19.604  0.00  0.00    +0.000 C 
ATOM     10  C   UNL     1       4.536   5.362  18.502  0.00  0.00    +0.000 C 
ATOM     11  C   UNL     1       5.913   5.373  19.214  0.00  0.00    +0.000 C 
ATOM     12  C   UNL     1       4.543   6.530  17.492  0.00  0.00    +0.000 C 
ENDBRANCH   1   9
BRANCH   3  13
ATOM     13  C   UNL     1       1.363   8.692  19.795  0.00  0.00    +0.000 A 
ATOM     14  C   UNL     1       1.357   9.393  18.583  0.00  0.00    +0.000 A 
ATOM     15  C   UNL     1       0.472  10.455  18.387  0.00  0.00    +0.000 A 
ATOM     16  C   UNL     1      -0.419  10.797  19.398  0.00  0.00    +0.000 A 
ATOM     17  C   UNL     1      -0.455  10.079  20.589  0.00  0.00    +0.000 A 
ATOM     18  C   UNL     1       0.437   9.020  20.788  0.00  0.00    +0.000 A 
BRANCH  16  19
ATOM     19  O   UNL     1      -1.279  11.845  19.256  0.00  0.00    +0.000 OA
ATOM     20  H   UNL     1      -1.130  12.252  18.386  0.00  0.00    +0.000 HD
ENDBRANCH  16  19
ENDBRANCH   3  13
TORSDOF 3
ENDMDL
MODEL 2
REMARK VINA RESULT:      -5.7      9.272     11.128
REMARK  Name = 
REMARK  6 active torsions:
REMARK  status: ('A' for Active; 'I' for Inactive)
REMARK    1  A    between atoms: C_1  and  N_2
REMARK    2  A    between atoms: C_6  and  N_7
REMARK    3  A    between atoms: C_9  and  C_10
REMARK    4  A    between atoms: C_13  and  O_14
REMARK    5  A    between atoms: C_17  and  C_18
REMARK    6  A    between atoms: C_17  and  C_19
REMARK                            x       y       z     vdW  Elec       q    Type
REMARK                         _______ _______ _______ _____ _____    ______ ____
ROOT
ATOM      1  N   UNL     1       7.858  13.162  22.051  0.00  0.00    +0.000 N 
ATOM      2  O   UNL     1       7.693  13.992  21.090  0.00  0.00    +0.000 OA
ATOM      3  C   UNL     1       8.781  12.225  21.988  0.00  0.00    +0.000 C 
ENDROOT
BRANCH   1   9
ATOM      4  C   UNL     1       8.529  13.878  26.632  0.00  0.00    +0.000 C 
ATOM      5  N   UNL     1       7.739  13.364  25.507  0.00  0.00    +0.000 N 
ATOM      6  C   UNL     1       6.933  12.236  25.600  0.00  0.00    +0.000 C 
ATOM      7  S   UNL     1       6.652  11.276  26.933  0.00  0.00    +0.000 S 
ATOM      8  S   UNL     1       6.203  11.875  24.048  0.00  0.00    +0.000 S 
ATOM      9  C   UNL     1       6.916  13.311  23.199  0.00  0.00    +0.000 C 
ATOM     10  C   UNL     1       7.524  14.220  24.306  0.00  0.00    +0.000 C 
ATOM     11  C   UNL     1       6.471  15.307  24.643  0.00  0.00    +0.000 C 
ATOM     12  C   UNL     1       8.821  14.957  23.909  0.00  0.00    +0.000 C 
ENDBRANCH   1   9
BRANCH   3  13
ATOM     13  C   UNL     1       9.707  12.047  20.857  0.00  0.00    +0.000 A 
ATOM     14  C   UNL     1      10.895  12.778  20.726  0.00  0.00    +0.000 A 
ATOM     15  C   UNL     1      11.713  12.599  19.609  0.00  0.00    +0.000 A 
ATOM     16  C   UNL     1      11.349  11.674  18.637  0.00  0.00    +0.000 A 
ATOM     17  C   UNL     1      10.197  10.908  18.778  0.00  0.00    +0.000 A 
ATOM     18  C   UNL     1       9.373  11.093  19.894  0.00  0.00    +0.000 A 
BRANCH  16  19
ATOM     19  O   UNL     1      12.106  11.492  17.518  0.00  0.00    +0.000 OA
ATOM     20  H   UNL     1      11.528  11.188  16.799  0.00  0.00    +0.000 HD
ENDBRANCH  16  19
ENDBRANCH   3  13
TORSDOF 3
ENDMDL
MODEL 3
REMARK VINA RESULT:      -5.7      0.172      1.120
REMARK  Name = 
REMARK  6 active torsions:
REMARK  status: ('A' for Active; 'I' for Inactive)
REMARK    1  A    between atoms: C_1  and  N_2
REMARK    2  A    between atoms: C_6  and  N_7
REMARK    3  A    between atoms: C_9  and  C_10
REMARK    4  A    between atoms: C_13  and  O_14
REMARK    5  A    between atoms: C_17  and  C_18
REMARK    6  A    between atoms: C_17  and  C_19
REMARK                            x       y       z     vdW  Elec       q    Type
REMARK                         _______ _______ _______ _____ _____    ______ ____
ROOT
ATOM      1  N   UNL     1       2.455   6.477  19.337  0.00  0.00    +0.000 N 
ATOM      2  O   UNL     1       1.731   6.309  18.294  0.00  0.00    +0.000 OA
ATOM      3  C   UNL     1       2.348   7.566  20.069  0.00  0.00    +0.000 C 
ENDROOT
BRANCH   1   9
ATOM      4  C   UNL     1       5.098   3.782  16.563  0.00  0.00    +0.000 C 
ATOM      5  N   UNL     1       4.366   4.023  17.812  0.00  0.00    +0.000 N 
ATOM      6  C   UNL     1       3.743   3.012  18.533  0.00  0.00    +0.000 C 
ATOM      7  S   UNL     1       3.709   1.380  18.202  0.00  0.00    +0.000 S 
ATOM      8  S   UNL     1       2.906   3.677  19.922  0.00  0.00    +0.000 S 
ATOM      9  C   UNL     1       3.433   5.387  19.623  0.00  0.00    +0.000 C 
ATOM     10  C   UNL     1       4.533   5.322  18.524  0.00  0.00    +0.000 C 
ATOM     11  C   UNL     1       5.907   5.330  19.243  0.00  0.00    +0.000 C 
ATOM     12  C   UNL     1       4.538   6.504  17.532  0.00  0.00    +0.000 C 
ENDBRANCH   1   9
BRANCH   3  13
ATOM     13  C   UNL     1       1.404   8.662  19.795  0.00  0.00    +0.000 A 
ATOM     14  C   UNL     1       0.482   9.125  20.740  0.00  0.00    +0.000 A 
ATOM     15  C   UNL     1      -0.420  10.138  20.409  0.00  0.00    +0.000 A 
ATOM     16  C   UNL     1      -0.381  10.698  19.137  0.00  0.00    +0.000 A 
ATOM     17  C   UNL     1       0.561  10.279  18.203  0.00  0.00    +0.000 A 
ATOM     18  C   UNL     1       1.460   9.259  18.533  0.00  0.00    +0.000 A 
BRANCH  16  19
ATOM     19  O   UNL     1      -1.263  11.668  18.766  0.00  0.00    +0.000 OA
ATOM     20  H   UNL     1      -1.057  11.943  17.858  0.00  0.00    +0.000 HD
ENDBRANCH  16  19
ENDBRANCH   3  13
TORSDOF 3
ENDMDL
MODEL 4
REMARK VINA RESULT:      -5.6      9.292     11.139
REMARK  Name = 
REMARK  6 active torsions:
REMARK  status: ('A' for Active; 'I' for Inactive)
REMARK    1  A    between atoms: C_1  and  N_2
REMARK    2  A    between atoms: C_6  and  N_7
REMARK    3  A    between atoms: C_9  and  C_10
REMARK    4  A    between atoms: C_13  and  O_14
REMARK    5  A    between atoms: C_17  and  C_18
REMARK    6  A    between atoms: C_17  and  C_19
REMARK                            x       y       z     vdW  Elec       q    Type
REMARK                         _______ _______ _______ _____ _____    ______ ____
ROOT
ATOM      1  N   UNL     1       7.817  13.153  22.059  0.00  0.00    +0.000 N 
ATOM      2  O   UNL     1       7.646  13.991  21.106  0.00  0.00    +0.000 OA
ATOM      3  C   UNL     1       8.710  12.190  21.965  0.00  0.00    +0.000 C 
ENDROOT
BRANCH   1   9
ATOM      4  C   UNL     1       8.649  13.898  26.609  0.00  0.00    +0.000 C 
ATOM      5  N   UNL     1       7.816  13.386  25.516  0.00  0.00    +0.000 N 
ATOM      6  C   UNL     1       6.997  12.270  25.645  0.00  0.00    +0.000 C 
ATOM      7  S   UNL     1       6.748  11.325  26.995  0.00  0.00    +0.000 S 
ATOM      8  S   UNL     1       6.212  11.906  24.121  0.00  0.00    +0.000 S 
ATOM      9  C   UNL     1       6.915  13.325  23.237  0.00  0.00    +0.000 C 
ATOM     10  C   UNL     1       7.572  14.234  24.315  0.00  0.00    +0.000 C 
ATOM     11  C   UNL     1       6.546  15.338  24.677  0.00  0.00    +0.000 C 
ATOM     12  C   UNL     1       8.865  14.950  23.868  0.00  0.00    +0.000 C 
ENDBRANCH   1   9
BRANCH   3  13
ATOM     13  C   UNL     1       9.596  11.991  20.806  0.00  0.00    +0.000 A 
ATOM     14  C   UNL     1       9.282  11.128  19.749  0.00  0.00    +0.000 A 
ATOM     15  C   UNL     1      10.181  10.944  18.697  0.00  0.00    +0.000 A 
ATOM     16  C   UNL     1      11.384  11.641  18.697  0.00  0.00    +0.000 A 
ATOM     17  C   UNL     1      11.687  12.537  19.717  0.00  0.00    +0.000 A 
ATOM     18  C   UNL     1      10.790  12.715  20.775  0.00  0.00    +0.000 A 
BRANCH  16  19
ATOM     19  O   UNL     1      12.300  11.468  17.703  0.00  0.00    +0.000 OA
ATOM     20  H   UNL     1      13.008  10.890  18.032  0.00  0.00    +0.000 HD
ENDBRANCH  16  19
ENDBRANCH   3  13
TORSDOF 3
ENDMDL
MODEL 5
REMARK VINA RESULT:      -5.6      4.074      7.333
REMARK  Name = 
REMARK  6 active torsions:
REMARK  status: ('A' for Active; 'I' for Inactive)
REMARK    1  A    between atoms: C_1  and  N_2
REMARK    2  A    between atoms: C_6  and  N_7
REMARK    3  A    between atoms: C_9  and  C_10
REMARK    4  A    between atoms: C_13  and  O_14
REMARK    5  A    between atoms: C_17  and  C_18
REMARK    6  A    between atoms: C_17  and  C_19
REMARK                            x       y       z     vdW  Elec       q    Type
REMARK                         _______ _______ _______ _____ _____    ______ ____
ROOT
ATOM      1  N   UNL     1       5.019   4.577  17.033  0.00  0.00    +0.000 N 
ATOM      2  O   UNL     1       4.359   5.505  16.446  0.00  0.00    +0.000 OA
ATOM      3  C   UNL     1       5.908   3.859  16.380  0.00  0.00    +0.000 C 
ENDROOT
BRANCH   1   9
ATOM      4  C   UNL     1       1.137   3.047  19.162  0.00  0.00    +0.000 C 
ATOM      5  N   UNL     1       2.379   3.827  19.147  0.00  0.00    +0.000 N 
ATOM      6  C   UNL     1       2.539   5.012  19.856  0.00  0.00    +0.000 C 
ATOM      7  S   UNL     1       1.447   5.767  20.863  0.00  0.00    +0.000 S 
ATOM      8  S   UNL     1       4.118   5.705  19.543  0.00  0.00    +0.000 S 
ATOM      9  C   UNL     1       4.675   4.354  18.468  0.00  0.00    +0.000 C 
ATOM     10  C   UNL     1       3.630   3.211  18.621  0.00  0.00    +0.000 C 
ATOM     11  C   UNL     1       4.183   2.215  19.672  0.00  0.00    +0.000 C 
ATOM     12  C   UNL     1       3.353   2.402  17.335  0.00  0.00    +0.000 C 
ENDBRANCH   1   9
BRANCH   3  13
ATOM     13  C   UNL     1       6.249   4.049  14.961  0.00  0.00    +0.000 A 
ATOM     14  C   UNL     1       5.573   3.396  13.923  0.00  0.00    +0.000 A 
ATOM     15  C   UNL     1       5.969   3.581  12.597  0.00  0.00    +0.000 A 
ATOM     16  C   UNL     1       7.028   4.434  12.313  0.00  0.00    +0.000 A 
ATOM     17  C   UNL     1       7.678   5.125  13.331  0.00  0.00    +0.000 A 
ATOM     18  C   UNL     1       7.286   4.934  14.660  0.00  0.00    +0.000 A 
BRANCH  16  19
ATOM     19  O   UNL     1       7.463   4.619  11.035  0.00  0.00    +0.000 OA
ATOM     20  H   UNL     1       7.285   5.538  10.777  0.00  0.00    +0.000 HD
ENDBRANCH  16  19
ENDBRANCH   3  13
TORSDOF 3
ENDMDL
MODEL 6
REMARK VINA RESULT:      -5.6      2.183      2.983
REMARK  Name = 
REMARK  6 active torsions:
REMARK  status: ('A' for Active; 'I' for Inactive)
REMARK    1  A    between atoms: C_1  and  N_2
REMARK    2  A    between atoms: C_6  and  N_7
REMARK    3  A    between atoms: C_9  and  C_10
REMARK    4  A    between atoms: C_13  and  O_14
REMARK    5  A    between atoms: C_17  and  C_18
REMARK    6  A    between atoms: C_17  and  C_19
REMARK                            x       y       z     vdW  Elec       q    Type
REMARK                         _______ _______ _______ _____ _____    ______ ____
ROOT
ATOM      1  N   UNL     1       2.089   7.451  19.444  0.00  0.00    +0.000 N 
ATOM      2  O   UNL     1       2.583   7.211  20.600  0.00  0.00    +0.000 OA
ATOM      3  C   UNL     1       1.192   8.401  19.272  0.00  0.00    +0.000 C 
ENDROOT
BRANCH   1   9
ATOM      4  C   UNL     1       4.058   3.201  19.429  0.00  0.00    +0.000 C 
ATOM      5  N   UNL     1       3.832   4.521  18.831  0.00  0.00    +0.000 N 
ATOM      6  C   UNL     1       4.790   5.185  18.075  0.00  0.00    +0.000 C 
ATOM      7  S   UNL     1       6.317   4.663  17.657  0.00  0.00    +0.000 S 
ATOM      8  S   UNL     1       4.203   6.762  17.589  0.00  0.00    +0.000 S 
ATOM      9  C   UNL     1       2.565   6.562  18.343  0.00  0.00    +0.000 C 
ATOM     10  C   UNL     1       2.446   5.064  18.745  0.00  0.00    +0.000 C 
ATOM     11  C   UNL     1       1.689   4.337  17.604  0.00  0.00    +0.000 C 
ATOM     12  C   UNL     1       1.662   4.796  20.048  0.00  0.00    +0.000 C 
ENDBRANCH   1   9
BRANCH   3  13
ATOM     13  C   UNL     1       0.694   9.276  20.346  0.00  0.00    +0.000 A 
ATOM     14  C   UNL     1       0.082   8.783  21.505  0.00  0.00    +0.000 A 
ATOM     15  C   UNL     1      -0.412   9.663  22.470  0.00  0.00    +0.000 A 
ATOM     16  C   UNL     1      -0.273  11.033  22.280  0.00  0.00    +0.000 A 
ATOM     17  C   UNL     1       0.375  11.534  21.156  0.00  0.00    +0.000 A 
ATOM     18  C   UNL     1       0.863  10.653  20.185  0.00  0.00    +0.000 A 
BRANCH  16  19
ATOM     19  O   UNL     1      -0.767  11.924  23.186  0.00  0.00    +0.000 OA
ATOM     20  H   UNL     1      -1.464  12.447  22.757  0.00  0.00    +0.000 HD
ENDBRANCH  16  19
ENDBRANCH   3  13
TORSDOF 3
ENDMDL
MODEL 7
REMARK VINA RESULT:      -5.6      1.680      2.230
REMARK  Name = 
REMARK  6 active torsions:
REMARK  status: ('A' for Active; 'I' for Inactive)
REMARK    1  A    between atoms: C_1  and  N_2
REMARK    2  A    between atoms: C_6  and  N_7
REMARK    3  A    between atoms: C_9  and  C_10
REMARK    4  A    between atoms: C_13  and  O_14
REMARK    5  A    between atoms: C_17  and  C_18
REMARK    6  A    between atoms: C_17  and  C_19
REMARK                            x       y       z     vdW  Elec       q    Type
REMARK                         _______ _______ _______ _____ _____    ______ ____
ROOT
ATOM      1  N   UNL     1       3.238   6.558  18.485  0.00  0.00    +0.000 N 
ATOM      2  O   UNL     1       3.449   7.505  17.649  0.00  0.00    +0.000 OA
ATOM      3  C   UNL     1       2.482   6.745  19.547  0.00  0.00    +0.000 C 
ENDROOT
BRANCH   1   9
ATOM      4  C   UNL     1       1.978   2.075  18.995  0.00  0.00    +0.000 C 
ATOM      5  N   UNL     1       2.995   3.130  18.918  0.00  0.00    +0.000 N 
ATOM      6  C   UNL     1       4.195   3.078  19.617  0.00  0.00    +0.000 C 
ATOM      7  S   UNL     1       4.755   1.868  20.617  0.00  0.00    +0.000 S 
ATOM      8  S   UNL     1       5.125   4.538  19.347  0.00  0.00    +0.000 S 
ATOM      9  C   UNL     1       3.937   5.272  18.190  0.00  0.00    +0.000 C 
ATOM     10  C   UNL     1       2.917   4.152  17.836  0.00  0.00    +0.000 C 
ATOM     11  C   UNL     1       3.378   3.510  16.502  0.00  0.00    +0.000 C 
ATOM     12  C   UNL     1       1.464   4.631  17.627  0.00  0.00    +0.000 C 
ENDBRANCH   1   9
BRANCH   3  13
ATOM     13  C   UNL     1       1.800   8.009  19.867  0.00  0.00    +0.000 A 
ATOM     14  C   UNL     1       1.519   8.987  18.905  0.00  0.00    +0.000 A 
ATOM     15  C   UNL     1       0.910  10.187  19.276  0.00  0.00    +0.000 A 
ATOM     16  C   UNL     1       0.566  10.396  20.606  0.00  0.00    +0.000 A 
ATOM     17  C   UNL     1       0.796   9.414  21.564  0.00  0.00    +0.000 A 
ATOM     18  C   UNL     1       1.414   8.215  21.194  0.00  0.00    +0.000 A 
BRANCH  16  19
ATOM     19  O   UNL     1      -0.004  11.566  21.012  0.00  0.00    +0.000 OA
ATOM     20  H   UNL     1      -0.250  12.080  20.225  0.00  0.00    +0.000 HD
ENDBRANCH  16  19
ENDBRANCH   3  13
TORSDOF 3
ENDMDL
MODEL 8
REMARK VINA RESULT:      -5.5      2.157      2.783
REMARK  Name = 
REMARK  6 active torsions:
REMARK  status: ('A' for Active; 'I' for Inactive)
REMARK    1  A    between atoms: C_1  and  N_2
REMARK    2  A    between atoms: C_6  and  N_7
REMARK    3  A    between atoms: C_9  and  C_10
REMARK    4  A    between atoms: C_13  and  O_14
REMARK    5  A    between atoms: C_17  and  C_18
REMARK    6  A    between atoms: C_17  and  C_19
REMARK                            x       y       z     vdW  Elec       q    Type
REMARK                         _______ _______ _______ _____ _____    ______ ____
ROOT
ATOM      1  N   UNL     1       2.184   7.361  19.326  0.00  0.00    +0.000 N 
ATOM      2  O   UNL     1       2.596   7.105  20.512  0.00  0.00    +0.000 OA
ATOM      3  C   UNL     1       1.332   8.339  19.099  0.00  0.00    +0.000 C 
ENDROOT
BRANCH   1   9
ATOM      4  C   UNL     1       4.252   3.160  19.452  0.00  0.00    +0.000 C 
ATOM      5  N   UNL     1       4.007   4.459  18.818  0.00  0.00    +0.000 N 
ATOM      6  C   UNL     1       4.964   5.127  18.063  0.00  0.00    +0.000 C 
ATOM      7  S   UNL     1       6.509   4.632  17.685  0.00  0.00    +0.000 S 
ATOM      8  S   UNL     1       4.348   6.678  17.527  0.00  0.00    +0.000 S 
ATOM      9  C   UNL     1       2.702   6.457  18.257  0.00  0.00    +0.000 C 
ATOM     10  C   UNL     1       2.611   4.967  18.693  0.00  0.00    +0.000 C 
ATOM     11  C   UNL     1       1.893   4.195  17.557  0.00  0.00    +0.000 C 
ATOM     12  C   UNL     1       1.809   4.711  19.988  0.00  0.00    +0.000 C 
ENDBRANCH   1   9
BRANCH   3  13
ATOM     13  C   UNL     1       0.794   9.229  20.141  0.00  0.00    +0.000 A 
ATOM     14  C   UNL     1       0.877  10.624  20.066  0.00  0.00    +0.000 A 
ATOM     15  C   UNL     1       0.389  11.417  21.106  0.00  0.00    +0.000 A 
ATOM     16  C   UNL     1      -0.200  10.811  22.209  0.00  0.00    +0.000 A 
ATOM     17  C   UNL     1      -0.331   9.427  22.275  0.00  0.00    +0.000 A 
ATOM     18  C   UNL     1       0.165   8.632  21.237  0.00  0.00    +0.000 A 
BRANCH  16  19
ATOM     19  O   UNL     1      -0.663  11.549  23.257  0.00  0.00    +0.000 OA
ATOM     20  H   UNL     1       0.043  11.622  23.921  0.00  0.00    +0.000 HD
ENDBRANCH  16  19
ENDBRANCH   3  13
TORSDOF 3
ENDMDL
MODEL 9
REMARK VINA RESULT:      -5.5      4.092      7.317
REMARK  Name = 
REMARK  6 active torsions:
REMARK  status: ('A' for Active; 'I' for Inactive)
REMARK    1  A    between atoms: C_1  and  N_2
REMARK    2  A    between atoms: C_6  and  N_7
REMARK    3  A    between atoms: C_9  and  C_10
REMARK    4  A    between atoms: C_13  and  O_14
REMARK    5  A    between atoms: C_17  and  C_18
REMARK    6  A    between atoms: C_17  and  C_19
REMARK                            x       y       z     vdW  Elec       q    Type
REMARK                         _______ _______ _______ _____ _____    ______ ____
ROOT
ATOM      1  N   UNL     1       5.111   4.589  17.046  0.00  0.00    +0.000 N 
ATOM      2  O   UNL     1       4.450   5.506  16.444  0.00  0.00    +0.000 OA
ATOM      3  C   UNL     1       6.051   3.908  16.423  0.00  0.00    +0.000 C 
ENDROOT
BRANCH   1   9
ATOM      4  C   UNL     1       1.125   3.074  18.986  0.00  0.00    +0.000 C 
ATOM      5  N   UNL     1       2.381   3.830  19.040  0.00  0.00    +0.000 N 
ATOM      6  C   UNL     1       2.537   4.989  19.789  0.00  0.00    +0.000 C 
ATOM      7  S   UNL     1       1.423   5.736  20.777  0.00  0.00    +0.000 S 
ATOM      8  S   UNL     1       4.139   5.660  19.555  0.00  0.00    +0.000 S 
ATOM      9  C   UNL     1       4.710   4.330  18.461  0.00  0.00    +0.000 C 
ATOM     10  C   UNL     1       3.639   3.205  18.541  0.00  0.00    +0.000 C 
ATOM     11  C   UNL     1       4.134   2.167  19.581  0.00  0.00    +0.000 C 
ATOM     12  C   UNL     1       3.394   2.439  17.222  0.00  0.00    +0.000 C 
ENDBRANCH   1   9
BRANCH   3  13
ATOM     13  C   UNL     1       6.448   4.133  15.024  0.00  0.00    +0.000 A 
ATOM     14  C   UNL     1       7.455   5.033  14.655  0.00  0.00    +0.000 A 
ATOM     15  C   UNL     1       7.759   5.238  13.308  0.00  0.00    +0.000 A 
ATOM     16  C   UNL     1       7.067   4.526  12.335  0.00  0.00    +0.000 A 
ATOM     17  C   UNL     1       6.097   3.594  12.690  0.00  0.00    +0.000 A 
ATOM     18  C   UNL     1       5.787   3.394  14.040  0.00  0.00    +0.000 A 
BRANCH  16  19
ATOM     19  O   UNL     1       7.315   4.719  11.009  0.00  0.00    +0.000 OA
ATOM     20  H   UNL     1       7.697   3.904  10.643  0.00  0.00    +0.000 HD
ENDBRANCH  16  19
ENDBRANCH   3  13
TORSDOF 3
ENDMDL
