MODEL 1
REMARK VINA RESULT:      -7.9      0.000      0.000
REMARK  Name = 
REMARK  7 active torsions:
REMARK  status: ('A' for Active; 'I' for Inactive)
REMARK    1  A    between atoms: C_1  and  S_2
REMARK    2  A    between atoms: S_2  and  C_5
REMARK    3  A    between atoms: C_8  and  C_9
REMARK    4  A    between atoms: C_9  and  O_11
REMARK    5  A    between atoms: O_11  and  C_12
REMARK    6  A    between atoms: C_12  and  C_13
REMARK    7  A    between atoms: C_25  and  N_26
REMARK                            x       y       z     vdW  Elec       q    Type
REMARK                         _______ _______ _______ _____ _____    ______ ____
ROOT
ATOM      1  C   UNL     1       8.191   8.222  18.143  0.00  0.00    +0.000 C 
ATOM      2  O   UNL     1       8.545   7.342  18.916  0.00  0.00    +0.000 OA
ENDROOT
BRANCH   1   6
ATOM      3  C   UNL     1       9.067  12.418  18.694  0.00  0.00    +0.000 A 
ATOM      4  C   UNL     1       8.282  11.974  17.621  0.00  0.00    +0.000 A 
ATOM      5  C   UNL     1       8.052  10.604  17.453  0.00  0.00    +0.000 A 
ATOM      6  C   UNL     1       8.590   9.653  18.345  0.00  0.00    +0.000 A 
ATOM      7  C   UNL     1       9.377  10.100  19.418  0.00  0.00    +0.000 A 
ATOM      8  C   UNL     1       9.614  11.479  19.577  0.00  0.00    +0.000 A 
BRANCH   3  10
ATOM      9  C   UNL     1       8.017  14.889  17.806  0.00  0.00    +0.000 C 
ATOM     10  S   UNL     1       9.173  14.178  18.948  0.00  0.00    +0.000 S 
ATOM     11  O   UNL     1      10.513  14.596  18.596  0.00  0.00    +0.000 OA
ATOM     12  O   UNL     1       8.669  14.432  20.286  0.00  0.00    +0.000 OA
ENDBRANCH   3  10
BRANCH   8  13
ATOM     13  N   UNL     1      10.520  11.892  20.648  0.00  0.00    +0.000 N 
ATOM     14  O   UNL     1      11.723  11.947  20.355  0.00  0.00    +0.000 OA
ATOM     15  O   UNL     1      10.019  12.053  21.761  0.00  0.00    +0.000 OA
ENDBRANCH   8  13
ENDBRANCH   1   6
BRANCH   1  16
ATOM     16  O   UNL     1       7.468   8.005  17.016  0.00  0.00    +0.000 OA
BRANCH  16  17
ATOM     17  C   UNL     1       6.128   7.499  17.274  0.00  0.00    +0.000 C 
BRANCH  17  18
ATOM     18  C   UNL     1       6.056   6.087  16.690  0.00  0.00    +0.000 C 
ATOM     19  O   UNL     1       6.483   5.890  15.540  0.00  0.00    +0.000 OA
ATOM     20  N   UNL     1       5.431   5.078  17.361  0.00  0.00    +0.000 N 
ATOM     21  C   UNL     1       4.963   3.966  16.558  0.00  0.00    +0.000 C 
ATOM     22  C   UNL     1       3.948   3.365  17.463  0.00  0.00    +0.000 A 
ATOM     23  C   UNL     1       2.599   3.158  17.273  0.00  0.00    +0.000 A 
ATOM     24  C   UNL     1       1.840   2.731  18.364  0.00  0.00    +0.000 A 
ATOM     25  C   UNL     1       2.467   2.420  19.578  0.00  0.00    +0.000 A 
ATOM     26  C   UNL     1       3.790   2.808  19.794  0.00  0.00    +0.000 A 
ATOM     27  C   UNL     1       4.417   3.487  18.766  0.00  0.00    +0.000 A 
ATOM     28  C   UNL     1       5.073   4.874  18.783  0.00  0.00    +0.000 C 
ENDBRANCH  17  18
ENDBRANCH  16  17
ENDBRANCH   1  16
TORSDOF 6
ENDMDL
MODEL 2
REMARK VINA RESULT:      -7.8      5.821     10.359
REMARK  Name = 
REMARK  7 active torsions:
REMARK  status: ('A' for Active; 'I' for Inactive)
REMARK    1  A    between atoms: C_1  and  S_2
REMARK    2  A    between atoms: S_2  and  C_5
REMARK    3  A    between atoms: C_8  and  C_9
REMARK    4  A    between atoms: C_9  and  O_11
REMARK    5  A    between atoms: O_11  and  C_12
REMARK    6  A    between atoms: C_12  and  C_13
REMARK    7  A    between atoms: C_25  and  N_26
REMARK                            x       y       z     vdW  Elec       q    Type
REMARK                         _______ _______ _______ _____ _____    ______ ____
ROOT
ATOM      1  C   UNL     1       1.958   8.716  18.443  0.00  0.00    +0.000 C 
ATOM      2  O   UNL     1       2.310   9.332  17.447  0.00  0.00    +0.000 OA
ENDROOT
BRANCH   1   6
ATOM      3  C   UNL     1       3.264   4.712  19.410  0.00  0.00    +0.000 A 
ATOM      4  C   UNL     1       2.398   5.418  20.255  0.00  0.00    +0.000 A 
ATOM      5  C   UNL     1       2.028   6.727  19.928  0.00  0.00    +0.000 A 
ATOM      6  C   UNL     1       2.503   7.355  18.760  0.00  0.00    +0.000 A 
ATOM      7  C   UNL     1       3.373   6.647  17.915  0.00  0.00    +0.000 A 
ATOM      8  C   UNL     1       3.751   5.333  18.254  0.00  0.00    +0.000 A 
BRANCH   3  10
ATOM      9  C   UNL     1       2.706   2.707  21.324  0.00  0.00    +0.000 C 
ATOM     10  S   UNL     1       3.553   2.997  19.793  0.00  0.00    +0.000 S 
ATOM     11  O   UNL     1       4.976   2.821  19.993  0.00  0.00    +0.000 OA
ATOM     12  O   UNL     1       2.871   2.224  18.770  0.00  0.00    +0.000 OA
ENDBRANCH   3  10
BRANCH   8  13
ATOM     13  N   UNL     1       4.735   4.670  17.399  0.00  0.00    +0.000 N 
ATOM     14  O   UNL     1       4.279   3.959  16.491  0.00  0.00    +0.000 OA
ATOM     15  O   UNL     1       5.916   4.800  17.717  0.00  0.00    +0.000 OA
ENDBRANCH   8  13
ENDBRANCH   1   6
BRANCH   1  16
ATOM     16  O   UNL     1       1.104   9.199  19.380  0.00  0.00    +0.000 OA
BRANCH  16  17
ATOM     17  C   UNL     1       0.580  10.519  19.062  0.00  0.00    +0.000 C 
BRANCH  17  18
ATOM     18  C   UNL     1       1.245  11.513  20.014  0.00  0.00    +0.000 C 
ATOM     19  O   UNL     1       1.090  11.369  21.239  0.00  0.00    +0.000 OA
ATOM     20  N   UNL     1       1.903  12.610  19.542  0.00  0.00    +0.000 N 
ATOM     21  C   UNL     1       2.040  13.723  20.461  0.00  0.00    +0.000 C 
ATOM     22  C   UNL     1       2.306  14.842  19.519  0.00  0.00    +0.000 A 
ATOM     23  C   UNL     1       1.610  16.012  19.309  0.00  0.00    +0.000 A 
ATOM     24  C   UNL     1       1.985  16.816  18.231  0.00  0.00    +0.000 A 
ATOM     25  C   UNL     1       3.109  16.482  17.463  0.00  0.00    +0.000 A 
ATOM     26  C   UNL     1       3.678  15.214  17.582  0.00  0.00    +0.000 A 
ATOM     27  C   UNL     1       3.085  14.345  18.480  0.00  0.00    +0.000 A 
ATOM     28  C   UNL     1       2.500  12.949  18.230  0.00  0.00    +0.000 C 
ENDBRANCH  17  18
ENDBRANCH  16  17
ENDBRANCH   1  16
TORSDOF 6
ENDMDL
MODEL 3
REMARK VINA RESULT:      -7.8      7.557     10.406
REMARK  Name = 
REMARK  7 active torsions:
REMARK  status: ('A' for Active; 'I' for Inactive)
REMARK    1  A    between atoms: C_1  and  S_2
REMARK    2  A    between atoms: S_2  and  C_5
REMARK    3  A    between atoms: C_8  and  C_9
REMARK    4  A    between atoms: C_9  and  O_11
REMARK    5  A    between atoms: O_11  and  C_12
REMARK    6  A    between atoms: C_12  and  C_13
REMARK    7  A    between atoms: C_25  and  N_26
REMARK                            x       y       z     vdW  Elec       q    Type
REMARK                         _______ _______ _______ _____ _____    ______ ____
ROOT
ATOM      1  C   UNL     1       2.012   8.562  18.474  0.00  0.00    +0.000 C 
ATOM      2  O   UNL     1       1.902   8.950  17.319  0.00  0.00    +0.000 OA
ENDROOT
BRANCH   1   6
ATOM      3  C   UNL     1       3.250   4.542  19.464  0.00  0.00    +0.000 A 
ATOM      4  C   UNL     1       2.408   5.273  20.312  0.00  0.00    +0.000 A 
ATOM      5  C   UNL     1       2.060   6.586  19.977  0.00  0.00    +0.000 A 
ATOM      6  C   UNL     1       2.534   7.194  18.797  0.00  0.00    +0.000 A 
ATOM      7  C   UNL     1       3.379   6.460  17.949  0.00  0.00    +0.000 A 
ATOM      8  C   UNL     1       3.735   5.143  18.296  0.00  0.00    +0.000 A 
BRANCH   3  10
ATOM      9  C   UNL     1       2.668   2.564  21.400  0.00  0.00    +0.000 C 
ATOM     10  S   UNL     1       3.510   2.825  19.861  0.00  0.00    +0.000 S 
ATOM     11  O   UNL     1       4.930   2.625  20.052  0.00  0.00    +0.000 OA
ATOM     12  O   UNL     1       2.806   2.057  18.849  0.00  0.00    +0.000 OA
ENDBRANCH   3  10
BRANCH   8  13
ATOM     13  N   UNL     1       4.695   4.452  17.436  0.00  0.00    +0.000 N 
ATOM     14  O   UNL     1       5.892   4.620  17.709  0.00  0.00    +0.000 OA
ATOM     15  O   UNL     1       4.232   3.849  16.469  0.00  0.00    +0.000 OA
ENDBRANCH   8  13
ENDBRANCH   1   6
BRANCH   1  16
ATOM     16  O   UNL     1       1.738   9.320  19.565  0.00  0.00    +0.000 OA
BRANCH  16  17
ATOM     17  C   UNL     1       0.336   9.695  19.674  0.00  0.00    +0.000 C 
BRANCH  17  18
ATOM     18  C   UNL     1      -0.031   9.651  21.158  0.00  0.00    +0.000 C 
ATOM     19  O   UNL     1      -0.109   8.549  21.726  0.00  0.00    +0.000 OA
ATOM     20  N   UNL     1      -0.384  10.783  21.831  0.00  0.00    +0.000 N 
ATOM     21  C   UNL     1      -1.187  10.599  23.023  0.00  0.00    +0.000 C 
ATOM     22  C   UNL     1      -1.784  11.951  23.181  0.00  0.00    +0.000 A 
ATOM     23  C   UNL     1      -3.104  12.344  23.203  0.00  0.00    +0.000 A 
ATOM     24  C   UNL     1      -3.384  13.711  23.188  0.00  0.00    +0.000 A 
ATOM     25  C   UNL     1      -2.340  14.643  23.262  0.00  0.00    +0.000 A 
ATOM     26  C   UNL     1      -1.024  14.227  23.056  0.00  0.00    +0.000 A 
ATOM     27  C   UNL     1      -0.828  12.884  22.794  0.00  0.00    +0.000 A 
ATOM     28  C   UNL     1      -0.154  12.225  21.583  0.00  0.00    +0.000 C 
ENDBRANCH  17  18
ENDBRANCH  16  17
ENDBRANCH   1  16
TORSDOF 6
ENDMDL
MODEL 4
REMARK VINA RESULT:      -7.8      1.191      1.865
REMARK  Name = 
REMARK  7 active torsions:
REMARK  status: ('A' for Active; 'I' for Inactive)
REMARK    1  A    between atoms: C_1  and  S_2
REMARK    2  A    between atoms: S_2  and  C_5
REMARK    3  A    between atoms: C_8  and  C_9
REMARK    4  A    between atoms: C_9  and  O_11
REMARK    5  A    between atoms: O_11  and  C_12
REMARK    6  A    between atoms: C_12  and  C_13
REMARK    7  A    between atoms: C_25  and  N_26
REMARK                            x       y       z     vdW  Elec       q    Type
REMARK                         _______ _______ _______ _____ _____    ______ ____
ROOT
ATOM      1  C   UNL     1       7.850   8.658  17.824  0.00  0.00    +0.000 C 
ATOM      2  O   UNL     1       6.974   8.529  16.980  0.00  0.00    +0.000 OA
ENDROOT
BRANCH   1   6
ATOM      3  C   UNL     1       9.261  12.634  18.757  0.00  0.00    +0.000 A 
ATOM      4  C   UNL     1       8.458  12.392  17.635  0.00  0.00    +0.000 A 
ATOM      5  C   UNL     1       8.053  11.085  17.343  0.00  0.00    +0.000 A 
ATOM      6  C   UNL     1       8.429   9.999  18.159  0.00  0.00    +0.000 A 
ATOM      7  C   UNL     1       9.235  10.244  19.282  0.00  0.00    +0.000 A 
ATOM      8  C   UNL     1       9.649  11.559  19.566  0.00  0.00    +0.000 A 
BRANCH   3  10
ATOM      9  C   UNL     1       8.779  15.289  17.912  0.00  0.00    +0.000 C 
ATOM     10  S   UNL     1       9.593  14.335  19.166  0.00  0.00    +0.000 S 
ATOM     11  O   UNL     1      11.023  14.542  19.073  0.00  0.00    +0.000 OA
ATOM     12  O   UNL     1       8.910  14.599  20.420  0.00  0.00    +0.000 OA
ENDBRANCH   3  10
BRANCH   8  13
ATOM     13  N   UNL     1      10.568  11.753  20.687  0.00  0.00    +0.000 N 
ATOM     14  O   UNL     1      11.774  11.618  20.434  0.00  0.00    +0.000 OA
ATOM     15  O   UNL     1      10.057  11.937  21.791  0.00  0.00    +0.000 OA
ENDBRANCH   8  13
ENDBRANCH   1   6
BRANCH   1  16
ATOM     16  O   UNL     1       8.344   7.641  18.575  0.00  0.00    +0.000 OA
BRANCH  16  17
ATOM     17  C   UNL     1       7.947   6.323  18.101  0.00  0.00    +0.000 C 
BRANCH  17  18
ATOM     18  C   UNL     1       7.092   5.686  19.197  0.00  0.00    +0.000 C 
ATOM     19  O   UNL     1       7.646   5.274  20.230  0.00  0.00    +0.000 OA
ATOM     20  N   UNL     1       5.760   5.461  19.010  0.00  0.00    +0.000 N 
ATOM     21  C   UNL     1       5.161   4.430  19.833  0.00  0.00    +0.000 C 
ATOM     22  C   UNL     1       3.937   4.112  19.052  0.00  0.00    +0.000 A 
ATOM     23  C   UNL     1       3.522   2.924  18.493  0.00  0.00    +0.000 A 
ATOM     24  C   UNL     1       2.406   2.946  17.654  0.00  0.00    +0.000 A 
ATOM     25  C   UNL     1       1.676   4.131  17.485  0.00  0.00    +0.000 A 
ATOM     26  C   UNL     1       2.218   5.344  17.911  0.00  0.00    +0.000 A 
ATOM     27  C   UNL     1       3.470   5.299  18.495  0.00  0.00    +0.000 A 
ATOM     28  C   UNL     1       4.754   6.031  18.085  0.00  0.00    +0.000 C 
ENDBRANCH  17  18
ENDBRANCH  16  17
ENDBRANCH   1  16
TORSDOF 6
ENDMDL
MODEL 5
REMARK VINA RESULT:      -7.8      5.655      6.785
REMARK  Name = 
REMARK  7 active torsions:
REMARK  status: ('A' for Active; 'I' for Inactive)
REMARK    1  A    between atoms: C_1  and  S_2
REMARK    2  A    between atoms: S_2  and  C_5
REMARK    3  A    between atoms: C_8  and  C_9
REMARK    4  A    between atoms: C_9  and  O_11
REMARK    5  A    between atoms: O_11  and  C_12
REMARK    6  A    between atoms: C_12  and  C_13
REMARK    7  A    between atoms: C_25  and  N_26
REMARK                            x       y       z     vdW  Elec       q    Type
REMARK                         _______ _______ _______ _____ _____    ______ ____
ROOT
ATOM      1  C   UNL     1       4.415   6.865  17.264  0.00  0.00    +0.000 C 
ATOM      2  O   UNL     1       4.422   6.995  16.047  0.00  0.00    +0.000 OA
ENDROOT
BRANCH   1   6
ATOM      3  C   UNL     1       1.317   8.306  19.909  0.00  0.00    +0.000 A 
ATOM      4  C   UNL     1       2.030   7.135  20.195  0.00  0.00    +0.000 A 
ATOM      5  C   UNL     1       3.000   6.678  19.296  0.00  0.00    +0.000 A 
ATOM      6  C   UNL     1       3.282   7.374  18.103  0.00  0.00    +0.000 A 
ATOM      7  C   UNL     1       2.564   8.546  17.816  0.00  0.00    +0.000 A 
ATOM      8  C   UNL     1       1.583   8.997  18.720  0.00  0.00    +0.000 A 
BRANCH   3  10
ATOM      9  C   UNL     1       1.285   9.397  22.518  0.00  0.00    +0.000 C 
ATOM     10  S   UNL     1       0.227   8.923  21.175  0.00  0.00    +0.000 S 
ATOM     11  O   UNL     1      -0.624   7.831  21.598  0.00  0.00    +0.000 OA
ATOM     12  O   UNL     1      -0.372  10.137  20.648  0.00  0.00    +0.000 OA
ENDBRANCH   3  10
BRANCH   8  13
ATOM     13  N   UNL     1       0.791  10.165  18.334  0.00  0.00    +0.000 N 
ATOM     14  O   UNL     1      -0.270   9.933  17.737  0.00  0.00    +0.000 OA
ATOM     15  O   UNL     1       1.295  11.266  18.552  0.00  0.00    +0.000 OA
ENDBRANCH   8  13
ENDBRANCH   1   6
BRANCH   1  16
ATOM     16  O   UNL     1       5.374   6.213  17.969  0.00  0.00    +0.000 OA
BRANCH  16  17
ATOM     17  C   UNL     1       6.102   5.226  17.185  0.00  0.00    +0.000 C 
BRANCH  17  18
ATOM     18  C   UNL     1       5.163   4.040  16.964  0.00  0.00    +0.000 C 
ATOM     19  O   UNL     1       4.999   3.610  15.809  0.00  0.00    +0.000 OA
ATOM     20  N   UNL     1       4.421   3.527  17.986  0.00  0.00    +0.000 N 
ATOM     21  C   UNL     1       3.228   2.796  17.611  0.00  0.00    +0.000 C 
ATOM     22  C   UNL     1       2.451   2.842  18.878  0.00  0.00    +0.000 A 
ATOM     23  C   UNL     1       1.201   3.362  19.136  0.00  0.00    +0.000 A 
ATOM     24  C   UNL     1       0.779   3.429  20.465  0.00  0.00    +0.000 A 
ATOM     25  C   UNL     1       1.570   2.878  21.483  0.00  0.00    +0.000 A 
ATOM     26  C   UNL     1       2.895   2.529  21.218  0.00  0.00    +0.000 A 
ATOM     27  C   UNL     1       3.353   2.746  19.932  0.00  0.00    +0.000 A 
ATOM     28  C   UNL     1       4.546   3.588  19.460  0.00  0.00    +0.000 C 
ENDBRANCH  17  18
ENDBRANCH  16  17
ENDBRANCH   1  16
TORSDOF 6
ENDMDL
MODEL 6
REMARK VINA RESULT:      -7.8      7.391      9.824
REMARK  Name = 
REMARK  7 active torsions:
REMARK  status: ('A' for Active; 'I' for Inactive)
REMARK    1  A    between atoms: C_1  and  S_2
REMARK    2  A    between atoms: S_2  and  C_5
REMARK    3  A    between atoms: C_8  and  C_9
REMARK    4  A    between atoms: C_9  and  O_11
REMARK    5  A    between atoms: O_11  and  C_12
REMARK    6  A    between atoms: C_12  and  C_13
REMARK    7  A    between atoms: C_25  and  N_26
REMARK                            x       y       z     vdW  Elec       q    Type
REMARK                         _______ _______ _______ _____ _____    ______ ____
ROOT
ATOM      1  C   UNL     1       1.796   9.340  18.004  0.00  0.00    +0.000 C 
ATOM      2  O   UNL     1       2.208  10.402  17.558  0.00  0.00    +0.000 OA
ENDROOT
BRANCH   1   6
ATOM      3  C   UNL     1       4.100   5.696  18.295  0.00  0.00    +0.000 A 
ATOM      4  C   UNL     1       3.079   5.985  19.209  0.00  0.00    +0.000 A 
ATOM      5  C   UNL     1       2.380   7.193  19.106  0.00  0.00    +0.000 A 
ATOM      6  C   UNL     1       2.677   8.130  18.096  0.00  0.00    +0.000 A 
ATOM      7  C   UNL     1       3.702   7.839  17.182  0.00  0.00    +0.000 A 
ATOM      8  C   UNL     1       4.409   6.627  17.295  0.00  0.00    +0.000 A 
BRANCH   3  10
ATOM      9  C   UNL     1       3.936   3.220  19.652  0.00  0.00    +0.000 C 
ATOM     10  S   UNL     1       4.826   4.071  18.375  0.00  0.00    +0.000 S 
ATOM     11  O   UNL     1       6.209   4.224  18.775  0.00  0.00    +0.000 OA
ATOM     12  O   UNL     1       4.510   3.415  17.118  0.00  0.00    +0.000 OA
ENDBRANCH   3  10
BRANCH   8  13
ATOM     13  N   UNL     1       5.533   6.410  16.385  0.00  0.00    +0.000 N 
ATOM     14  O   UNL     1       6.635   6.824  16.770  0.00  0.00    +0.000 OA
ATOM     15  O   UNL     1       5.264   5.926  15.286  0.00  0.00    +0.000 OA
ENDBRANCH   8  13
ENDBRANCH   1   6
BRANCH   1  16
ATOM     16  O   UNL     1       0.549   9.154  18.506  0.00  0.00    +0.000 OA
BRANCH  16  17
ATOM     17  C   UNL     1      -0.010  10.344  19.128  0.00  0.00    +0.000 C 
BRANCH  17  18
ATOM     18  C   UNL     1      -0.099  10.072  20.630  0.00  0.00    +0.000 C 
ATOM     19  O   UNL     1       0.033   8.905  21.039  0.00  0.00    +0.000 OA
ATOM     20  N   UNL     1      -0.433  11.060  21.508  0.00  0.00    +0.000 N 
ATOM     21  C   UNL     1      -0.988  10.633  22.777  0.00  0.00    +0.000 C 
ATOM     22  C   UNL     1      -1.674  11.873  23.223  0.00  0.00    +0.000 A 
ATOM     23  C   UNL     1      -3.001  12.099  23.519  0.00  0.00    +0.000 A 
ATOM     24  C   UNL     1      -3.409  13.414  23.748  0.00  0.00    +0.000 A 
ATOM     25  C   UNL     1      -2.463  14.448  23.782  0.00  0.00    +0.000 A 
ATOM     26  C   UNL     1      -1.172  14.221  23.305  0.00  0.00    +0.000 A 
ATOM     27  C   UNL     1      -0.897  12.955  22.823  0.00  0.00    +0.000 A 
ATOM     28  C   UNL     1      -0.391  12.538  21.436  0.00  0.00    +0.000 C 
ENDBRANCH  17  18
ENDBRANCH  16  17
ENDBRANCH   1  16
TORSDOF 6
ENDMDL
MODEL 7
REMARK VINA RESULT:      -7.7      5.824      7.189
REMARK  Name = 
REMARK  7 active torsions:
REMARK  status: ('A' for Active; 'I' for Inactive)
REMARK    1  A    between atoms: C_1  and  S_2
REMARK    2  A    between atoms: S_2  and  C_5
REMARK    3  A    between atoms: C_8  and  C_9
REMARK    4  A    between atoms: C_9  and  O_11
REMARK    5  A    between atoms: O_11  and  C_12
REMARK    6  A    between atoms: C_12  and  C_13
REMARK    7  A    between atoms: C_25  and  N_26
REMARK                            x       y       z     vdW  Elec       q    Type
REMARK                         _______ _______ _______ _____ _____    ______ ____
ROOT
ATOM      1  C   UNL     1       2.645   6.603  18.369  0.00  0.00    +0.000 C 
ATOM      2  O   UNL     1       1.918   5.751  17.877  0.00  0.00    +0.000 OA
ENDROOT
BRANCH   1   6
ATOM      3  C   UNL     1       0.871  10.234  19.898  0.00  0.00    +0.000 A 
ATOM      4  C   UNL     1       1.317  10.145  18.573  0.00  0.00    +0.000 A 
ATOM      5  C   UNL     1       1.921   8.966  18.125  0.00  0.00    +0.000 A 
ATOM      6  C   UNL     1       2.090   7.856  18.977  0.00  0.00    +0.000 A 
ATOM      7  C   UNL     1       1.644   7.948  20.305  0.00  0.00    +0.000 A 
ATOM      8  C   UNL     1       1.045   9.140  20.755  0.00  0.00    +0.000 A 
BRANCH   3  10
ATOM      9  C   UNL     1       0.126  12.801  18.976  0.00  0.00    +0.000 C 
ATOM     10  S   UNL     1      -0.044  11.694  20.351  0.00  0.00    +0.000 S 
ATOM     11  O   UNL     1       0.594  12.273  21.514  0.00  0.00    +0.000 OA
ATOM     12  O   UNL     1      -1.440  11.301  20.419  0.00  0.00    +0.000 OA
ENDBRANCH   3  10
BRANCH   8  13
ATOM     13  N   UNL     1       0.687   9.227  22.170  0.00  0.00    +0.000 N 
ATOM     14  O   UNL     1      -0.498   8.992  22.449  0.00  0.00    +0.000 OA
ATOM     15  O   UNL     1       1.567   9.617  22.937  0.00  0.00    +0.000 OA
ENDBRANCH   8  13
ENDBRANCH   1   6
BRANCH   1  16
ATOM     16  O   UNL     1       3.994   6.491  18.472  0.00  0.00    +0.000 OA
BRANCH  16  17
ATOM     17  C   UNL     1       4.422   5.505  19.453  0.00  0.00    +0.000 C 
BRANCH  17  18
ATOM     18  C   UNL     1       5.791   4.989  19.010  0.00  0.00    +0.000 C 
ATOM     19  O   UNL     1       6.757   5.108  19.783  0.00  0.00    +0.000 OA
ATOM     20  N   UNL     1       5.991   4.512  17.749  0.00  0.00    +0.000 N 
ATOM     21  C   UNL     1       7.355   4.537  17.260  0.00  0.00    +0.000 C 
ATOM     22  C   UNL     1       7.137   4.455  15.792  0.00  0.00    +0.000 A 
ATOM     23  C   UNL     1       7.505   5.324  14.788  0.00  0.00    +0.000 A 
ATOM     24  C   UNL     1       7.016   5.088  13.502  0.00  0.00    +0.000 A 
ATOM     25  C   UNL     1       6.266   3.934  13.236  0.00  0.00    +0.000 A 
ATOM     26  C   UNL     1       5.761   3.177  14.294  0.00  0.00    +0.000 A 
ATOM     27  C   UNL     1       6.047   3.621  15.572  0.00  0.00    +0.000 A 
ATOM     28  C   UNL     1       5.080   3.988  16.706  0.00  0.00    +0.000 C 
ENDBRANCH  17  18
ENDBRANCH  16  17
ENDBRANCH   1  16
TORSDOF 6
ENDMDL
MODEL 8
REMARK VINA RESULT:      -7.7      8.303     10.920
REMARK  Name = 
REMARK  7 active torsions:
REMARK  status: ('A' for Active; 'I' for Inactive)
REMARK    1  A    between atoms: C_1  and  S_2
REMARK    2  A    between atoms: S_2  and  C_5
REMARK    3  A    between atoms: C_8  and  C_9
REMARK    4  A    between atoms: C_9  and  O_11
REMARK    5  A    between atoms: O_11  and  C_12
REMARK    6  A    between atoms: C_12  and  C_13
REMARK    7  A    between atoms: C_25  and  N_26
REMARK                            x       y       z     vdW  Elec       q    Type
REMARK                         _______ _______ _______ _____ _____    ______ ____
ROOT
ATOM      1  C   UNL     1       1.503   8.385  20.190  0.00  0.00    +0.000 C 
ATOM      2  O   UNL     1       1.471   9.305  19.384  0.00  0.00    +0.000 OA
ENDROOT
BRANCH   1   6
ATOM      3  C   UNL     1       3.027   4.519  19.004  0.00  0.00    +0.000 A 
ATOM      4  C   UNL     1       3.269   5.663  18.233  0.00  0.00    +0.000 A 
ATOM      5  C   UNL     1       2.726   6.891  18.628  0.00  0.00    +0.000 A 
ATOM      6  C   UNL     1       1.942   7.007  19.794  0.00  0.00    +0.000 A 
ATOM      7  C   UNL     1       1.700   5.859  20.564  0.00  0.00    +0.000 A 
ATOM      8  C   UNL     1       2.240   4.624  20.157  0.00  0.00    +0.000 A 
BRANCH   3  10
ATOM      9  C   UNL     1       4.843   3.465  17.109  0.00  0.00    +0.000 C 
ATOM     10  S   UNL     1       3.890   3.031  18.541  0.00  0.00    +0.000 S 
ATOM     11  O   UNL     1       2.899   2.041  18.174  0.00  0.00    +0.000 OA
ATOM     12  O   UNL     1       4.827   2.746  19.613  0.00  0.00    +0.000 OA
ENDBRANCH   3  10
BRANCH   8  13
ATOM     13  N   UNL     1       1.880   3.438  20.933  0.00  0.00    +0.000 N 
ATOM     14  O   UNL     1       0.921   2.777  20.509  0.00  0.00    +0.000 OA
ATOM     15  O   UNL     1       2.497   3.260  21.983  0.00  0.00    +0.000 OA
ENDBRANCH   8  13
ENDBRANCH   1   6
BRANCH   1  16
ATOM     16  O   UNL     1       1.211   8.512  21.509  0.00  0.00    +0.000 OA
BRANCH  16  17
ATOM     17  C   UNL     1      -0.207   8.704  21.774  0.00  0.00    +0.000 C 
BRANCH  17  18
ATOM     18  C   UNL     1      -0.337   9.923  22.688  0.00  0.00    +0.000 C 
ATOM     19  O   UNL     1       0.102   9.854  23.848  0.00  0.00    +0.000 OA
ATOM     20  N   UNL     1      -1.023  11.033  22.291  0.00  0.00    +0.000 N 
ATOM     21  C   UNL     1      -1.529  11.887  23.346  0.00  0.00    +0.000 C 
ATOM     22  C   UNL     1      -2.589  12.639  22.624  0.00  0.00    +0.000 A 
ATOM     23  C   UNL     1      -3.943  12.723  22.867  0.00  0.00    +0.000 A 
ATOM     24  C   UNL     1      -4.742  13.365  21.920  0.00  0.00    +0.000 A 
ATOM     25  C   UNL     1      -4.154  13.997  20.816  0.00  0.00    +0.000 A 
ATOM     26  C   UNL     1      -2.819  13.743  20.502  0.00  0.00    +0.000 A 
ATOM     27  C   UNL     1      -2.140  12.866  21.328  0.00  0.00    +0.000 A 
ATOM     28  C   UNL     1      -1.418  11.561  20.965  0.00  0.00    +0.000 C 
ENDBRANCH  17  18
ENDBRANCH  16  17
ENDBRANCH   1  16
TORSDOF 6
ENDMDL
MODEL 9
REMARK VINA RESULT:      -7.7      6.180     10.780
REMARK  Name = 
REMARK  7 active torsions:
REMARK  status: ('A' for Active; 'I' for Inactive)
REMARK    1  A    between atoms: C_1  and  S_2
REMARK    2  A    between atoms: S_2  and  C_5
REMARK    3  A    between atoms: C_8  and  C_9
REMARK    4  A    between atoms: C_9  and  O_11
REMARK    5  A    between atoms: O_11  and  C_12
REMARK    6  A    between atoms: C_12  and  C_13
REMARK    7  A    between atoms: C_25  and  N_26
REMARK                            x       y       z     vdW  Elec       q    Type
REMARK                         _______ _______ _______ _____ _____    ______ ____
ROOT
ATOM      1  C   UNL     1       1.872   8.585  18.490  0.00  0.00    +0.000 C 
ATOM      2  O   UNL     1       2.326   9.071  17.463  0.00  0.00    +0.000 OA
ENDROOT
BRANCH   1   6
ATOM      3  C   UNL     1       2.525   4.526  19.819  0.00  0.00    +0.000 A 
ATOM      4  C   UNL     1       2.211   5.546  20.727  0.00  0.00    +0.000 A 
ATOM      5  C   UNL     1       2.045   6.856  20.264  0.00  0.00    +0.000 A 
ATOM      6  C   UNL     1       2.181   7.176  18.898  0.00  0.00    +0.000 A 
ATOM      7  C   UNL     1       2.497   6.152  17.991  0.00  0.00    +0.000 A 
ATOM      8  C   UNL     1       2.673   4.837  18.463  0.00  0.00    +0.000 A 
BRANCH   3  10
ATOM      9  C   UNL     1       4.216   2.296  20.226  0.00  0.00    +0.000 C 
ATOM     10  S   UNL     1       2.549   2.859  20.448  0.00  0.00    +0.000 S 
ATOM     11  O   UNL     1       1.661   2.064  19.628  0.00  0.00    +0.000 OA
ATOM     12  O   UNL     1       2.313   2.954  21.878  0.00  0.00    +0.000 OA
ENDBRANCH   3  10
BRANCH   8  13
ATOM     13  N   UNL     1       3.099   3.823  17.499  0.00  0.00    +0.000 N 
ATOM     14  O   UNL     1       4.320   3.733  17.304  0.00  0.00    +0.000 OA
ATOM     15  O   UNL     1       2.206   3.222  16.903  0.00  0.00    +0.000 OA
ENDBRANCH   8  13
ENDBRANCH   1   6
BRANCH   1  16
ATOM     16  O   UNL     1       1.107   9.262  19.383  0.00  0.00    +0.000 OA
BRANCH  16  17
ATOM     17  C   UNL     1       0.713  10.586  18.924  0.00  0.00    +0.000 C 
BRANCH  17  18
ATOM     18  C   UNL     1       1.320  11.601  19.893  0.00  0.00    +0.000 C 
ATOM     19  O   UNL     1       1.145  11.447  21.114  0.00  0.00    +0.000 OA
ATOM     20  N   UNL     1       1.945  12.724  19.437  0.00  0.00    +0.000 N 
ATOM     21  C   UNL     1       2.021  13.838  20.361  0.00  0.00    +0.000 C 
ATOM     22  C   UNL     1       2.263  14.970  19.428  0.00  0.00    +0.000 A 
ATOM     23  C   UNL     1       1.528  16.113  19.207  0.00  0.00    +0.000 A 
ATOM     24  C   UNL     1       1.894  16.934  18.139  0.00  0.00    +0.000 A 
ATOM     25  C   UNL     1       3.046  16.646  17.394  0.00  0.00    +0.000 A 
ATOM     26  C   UNL     1       3.659  15.400  17.520  0.00  0.00    +0.000 A 
ATOM     27  C   UNL     1       3.081  14.506  18.404  0.00  0.00    +0.000 A 
ATOM     28  C   UNL     1       2.555  13.089  18.138  0.00  0.00    +0.000 C 
ENDBRANCH  17  18
ENDBRANCH  16  17
ENDBRANCH   1  16
TORSDOF 6
ENDMDL
