MODEL 1
REMARK VINA RESULT:      -9.4      0.000      0.000
REMARK  Name = 
REMARK  5 active torsions:
REMARK  status: ('A' for Active; 'I' for Inactive)
REMARK    1  A    between atoms: C_2  and  O_3
REMARK    2  A    between atoms: C_2  and  C_4
REMARK    3  A    between atoms: C_7  and  N_8
REMARK    4  A    between atoms: C_9  and  C_10
REMARK    5  A    between atoms: C_11  and  C_12
REMARK                            x       y       z     vdW  Elec       q    Type
REMARK                         _______ _______ _______ _____ _____    ______ ____
ROOT
ATOM      1  N   UNL     1       4.358   3.839  17.702  0.00  0.00    +0.000 N 
ATOM      2  C   UNL     1       4.523   4.513  18.906  0.00  0.00    +0.000 A 
ATOM      3  N   UNL     1       4.476   3.876  20.035  0.00  0.00    +0.000 NA
ATOM      4  C   UNL     1       3.283   3.132  20.128  0.00  0.00    +0.000 A 
ATOM      5  C   UNL     1       2.668   3.020  21.366  0.00  0.00    +0.000 A 
ATOM      6  C   UNL     1       1.291   2.796  21.428  0.00  0.00    +0.000 A 
ATOM      7  C   UNL     1       0.547   2.668  20.252  0.00  0.00    +0.000 A 
ATOM      8  C   UNL     1       1.184   2.637  19.012  0.00  0.00    +0.000 A 
ATOM      9  C   UNL     1       2.565   2.834  18.962  0.00  0.00    +0.000 A 
ATOM     10  C   UNL     1       3.307   2.929  17.685  0.00  0.00    +0.000 A 
ATOM     11  O   UNL     1       2.930   2.237  16.739  0.00  0.00    +0.000 OA
ENDROOT
BRANCH   1  15
ATOM     12  C   UNL     1       6.947   4.756  14.441  0.00  0.00    +0.000 A 
ATOM     13  C   UNL     1       7.434   4.790  15.745  0.00  0.00    +0.000 A 
ATOM     14  C   UNL     1       6.596   4.461  16.818  0.00  0.00    +0.000 A 
ATOM     15  C   UNL     1       5.267   4.059  16.615  0.00  0.00    +0.000 A 
ATOM     16  C   UNL     1       4.832   3.921  15.282  0.00  0.00    +0.000 A 
ATOM     17  C   UNL     1       5.654   4.278  14.205  0.00  0.00    +0.000 A 
BRANCH  12  19
ATOM     18  O   UNL     1       8.694   5.974  13.371  0.00  0.00    +0.000 OA
ATOM     19  C   UNL     1       7.756   5.207  13.272  0.00  0.00    +0.000 C 
BRANCH  19  20
ATOM     20  O   UNL     1       7.386   4.636  12.103  0.00  0.00    +0.000 OA
ATOM     21  H   UNL     1       8.114   4.413  11.495  0.00  0.00    +0.000 HD
ENDBRANCH  19  20
ENDBRANCH  12  19
ENDBRANCH   1  15
BRANCH   2  22
ATOM     22  C   UNL     1       4.001   5.920  18.794  0.00  0.00    +0.000 C 
ATOM     23  C   UNL     1       2.919   6.303  19.485  0.00  0.00    +0.000 C 
BRANCH  23  24
ATOM     24  C   UNL     1       2.319   7.623  19.282  0.00  0.00    +0.000 A 
ATOM     25  C   UNL     1       1.566   8.276  20.270  0.00  0.00    +0.000 A 
ATOM     26  C   UNL     1       0.872   9.447  19.955  0.00  0.00    +0.000 A 
ATOM     27  C   UNL     1       0.952   9.981  18.671  0.00  0.00    +0.000 A 
ATOM     28  C   UNL     1       1.772   9.381  17.716  0.00  0.00    +0.000 A 
ATOM     29  C   UNL     1       2.466   8.214  18.027  0.00  0.00    +0.000 A 
ENDBRANCH  23  24
ENDBRANCH   2  22
TORSDOF 5
ENDMDL
MODEL 2
REMARK VINA RESULT:      -9.1      0.301      1.132
REMARK  Name = 
REMARK  5 active torsions:
REMARK  status: ('A' for Active; 'I' for Inactive)
REMARK    1  A    between atoms: C_2  and  O_3
REMARK    2  A    between atoms: C_2  and  C_4
REMARK    3  A    between atoms: C_7  and  N_8
REMARK    4  A    between atoms: C_9  and  C_10
REMARK    5  A    between atoms: C_11  and  C_12
REMARK                            x       y       z     vdW  Elec       q    Type
REMARK                         _______ _______ _______ _____ _____    ______ ____
ROOT
ATOM      1  N   UNL     1       4.211   4.078  17.634  0.00  0.00    +0.000 N 
ATOM      2  C   UNL     1       4.523   4.574  18.894  0.00  0.00    +0.000 A 
ATOM      3  N   UNL     1       4.565   3.788  19.924  0.00  0.00    +0.000 NA
ATOM      4  C   UNL     1       3.360   3.068  20.042  0.00  0.00    +0.000 A 
ATOM      5  C   UNL     1       2.868   2.801  21.311  0.00  0.00    +0.000 A 
ATOM      6  C   UNL     1       1.497   2.605  21.487  0.00  0.00    +0.000 A 
ATOM      7  C   UNL     1       0.634   2.660  20.390  0.00  0.00    +0.000 A 
ATOM      8  C   UNL     1       1.141   2.786  19.096  0.00  0.00    +0.000 A 
ATOM      9  C   UNL     1       2.516   2.953  18.928  0.00  0.00    +0.000 A 
ATOM     10  C   UNL     1       3.129   3.206  17.605  0.00  0.00    +0.000 A 
ATOM     11  O   UNL     1       2.631   2.661  16.619  0.00  0.00    +0.000 OA
ENDROOT
BRANCH   1  15
ATOM     12  C   UNL     1       6.723   4.849  14.277  0.00  0.00    +0.000 A 
ATOM     13  C   UNL     1       5.394   4.481  14.080  0.00  0.00    +0.000 A 
ATOM     14  C   UNL     1       4.556   4.256  15.179  0.00  0.00    +0.000 A 
ATOM     15  C   UNL     1       5.013   4.423  16.496  0.00  0.00    +0.000 A 
ATOM     16  C   UNL     1       6.324   4.906  16.668  0.00  0.00    +0.000 A 
ATOM     17  C   UNL     1       7.178   5.104  15.574  0.00  0.00    +0.000 A 
BRANCH  12  19
ATOM     18  O   UNL     1       7.530   4.456  12.069  0.00  0.00    +0.000 OA
ATOM     19  C   UNL     1       7.691   4.988  13.150  0.00  0.00    +0.000 C 
BRANCH  19  20
ATOM     20  O   UNL     1       8.730   5.808  13.426  0.00  0.00    +0.000 OA
ATOM     21  H   UNL     1       9.392   5.455  14.046  0.00  0.00    +0.000 HD
ENDBRANCH  19  20
ENDBRANCH  12  19
ENDBRANCH   1  15
BRANCH   2  22
ATOM     22  C   UNL     1       4.048   5.995  19.029  0.00  0.00    +0.000 C 
ATOM     23  C   UNL     1       2.742   6.269  19.152  0.00  0.00    +0.000 C 
BRANCH  23  24
ATOM     24  C   UNL     1       2.254   7.649  19.145  0.00  0.00    +0.000 A 
ATOM     25  C   UNL     1       1.583   8.224  20.235  0.00  0.00    +0.000 A 
ATOM     26  C   UNL     1       0.985   9.480  20.102  0.00  0.00    +0.000 A 
ATOM     27  C   UNL     1       1.082  10.173  18.898  0.00  0.00    +0.000 A 
ATOM     28  C   UNL     1       1.825   9.642  17.845  0.00  0.00    +0.000 A 
ATOM     29  C   UNL     1       2.423   8.390  17.975  0.00  0.00    +0.000 A 
ENDBRANCH  23  24
ENDBRANCH   2  22
TORSDOF 5
ENDMDL
MODEL 3
REMARK VINA RESULT:      -8.9      0.636      1.225
REMARK  Name = 
REMARK  5 active torsions:
REMARK  status: ('A' for Active; 'I' for Inactive)
REMARK    1  A    between atoms: C_2  and  O_3
REMARK    2  A    between atoms: C_2  and  C_4
REMARK    3  A    between atoms: C_7  and  N_8
REMARK    4  A    between atoms: C_9  and  C_10
REMARK    5  A    between atoms: C_11  and  C_12
REMARK                            x       y       z     vdW  Elec       q    Type
REMARK                         _______ _______ _______ _____ _____    ______ ____
ROOT
ATOM      1  N   UNL     1       4.060   4.124  17.494  0.00  0.00    +0.000 N 
ATOM      2  C   UNL     1       4.327   4.768  18.697  0.00  0.00    +0.000 A 
ATOM      3  N   UNL     1       4.382   4.101  19.808  0.00  0.00    +0.000 NA
ATOM      4  C   UNL     1       3.206   3.346  19.985  0.00  0.00    +0.000 A 
ATOM      5  C   UNL     1       2.702   3.197  21.269  0.00  0.00    +0.000 A 
ATOM      6  C   UNL     1       1.337   2.961  21.445  0.00  0.00    +0.000 A 
ATOM      7  C   UNL     1       0.493   2.858  20.336  0.00  0.00    +0.000 A 
ATOM      8  C   UNL     1       1.020   2.865  19.044  0.00  0.00    +0.000 A 
ATOM      9  C   UNL     1       2.389   3.073  18.879  0.00  0.00    +0.000 A 
ATOM     10  C   UNL     1       3.017   3.208  17.545  0.00  0.00    +0.000 A 
ATOM     11  O   UNL     1       2.562   2.538  16.617  0.00  0.00    +0.000 OA
ENDROOT
BRANCH   1  15
ATOM     12  C   UNL     1       6.687   4.924  14.232  0.00  0.00    +0.000 A 
ATOM     13  C   UNL     1       6.327   3.611  14.529  0.00  0.00    +0.000 A 
ATOM     14  C   UNL     1       5.440   3.345  15.580  0.00  0.00    +0.000 A 
ATOM     15  C   UNL     1       4.868   4.379  16.338  0.00  0.00    +0.000 A 
ATOM     16  C   UNL     1       5.158   5.701  15.946  0.00  0.00    +0.000 A 
ATOM     17  C   UNL     1       6.067   5.975  14.915  0.00  0.00    +0.000 A 
BRANCH  12  19
ATOM     18  O   UNL     1       8.680   5.960  13.435  0.00  0.00    +0.000 OA
ATOM     19  C   UNL     1       7.713   5.259  13.204  0.00  0.00    +0.000 C 
BRANCH  19  20
ATOM     20  O   UNL     1       7.500   4.662  12.009  0.00  0.00    +0.000 OA
ATOM     21  H   UNL     1       7.053   5.209  11.339  0.00  0.00    +0.000 HD
ENDBRANCH  19  20
ENDBRANCH  12  19
ENDBRANCH   1  15
BRANCH   2  22
ATOM     22  C   UNL     1       3.789   6.173  18.668  0.00  0.00    +0.000 C 
ATOM     23  C   UNL     1       2.660   6.485  19.319  0.00  0.00    +0.000 C 
BRANCH  23  24
ATOM     24  C   UNL     1       2.052   7.810  19.188  0.00  0.00    +0.000 A 
ATOM     25  C   UNL     1       2.144   8.576  18.015  0.00  0.00    +0.000 A 
ATOM     26  C   UNL     1       1.701   9.901  18.013  0.00  0.00    +0.000 A 
ATOM     27  C   UNL     1       1.139  10.450  19.164  0.00  0.00    +0.000 A 
ATOM     28  C   UNL     1       0.966   9.662  20.300  0.00  0.00    +0.000 A 
ATOM     29  C   UNL     1       1.406   8.340  20.305  0.00  0.00    +0.000 A 
ENDBRANCH  23  24
ENDBRANCH   2  22
TORSDOF 5
ENDMDL
MODEL 4
REMARK VINA RESULT:      -8.1      4.361      7.903
REMARK  Name = 
REMARK  5 active torsions:
REMARK  status: ('A' for Active; 'I' for Inactive)
REMARK    1  A    between atoms: C_2  and  O_3
REMARK    2  A    between atoms: C_2  and  C_4
REMARK    3  A    between atoms: C_7  and  N_8
REMARK    4  A    between atoms: C_9  and  C_10
REMARK    5  A    between atoms: C_11  and  C_12
REMARK                            x       y       z     vdW  Elec       q    Type
REMARK                         _______ _______ _______ _____ _____    ______ ____
ROOT
ATOM      1  N   UNL     1       0.749  10.020  20.487  0.00  0.00    +0.000 N 
ATOM      2  C   UNL     1       0.745  11.279  19.898  0.00  0.00    +0.000 A 
ATOM      3  N   UNL     1       1.022  12.337  20.594  0.00  0.00    +0.000 NA
ATOM      4  C   UNL     1       0.199  12.403  21.735  0.00  0.00    +0.000 A 
ATOM      5  C   UNL     1      -0.235  13.647  22.168  0.00  0.00    +0.000 A 
ATOM      6  C   UNL     1      -1.424  13.742  22.895  0.00  0.00    +0.000 A 
ATOM      7  C   UNL     1      -2.156  12.591  23.198  0.00  0.00    +0.000 A 
ATOM      8  C   UNL     1      -1.648  11.329  22.889  0.00  0.00    +0.000 A 
ATOM      9  C   UNL     1      -0.446  11.243  22.187  0.00  0.00    +0.000 A 
ATOM     10  C   UNL     1       0.109   9.953  21.719  0.00  0.00    +0.000 A 
ATOM     11  O   UNL     1      -0.057   8.957  22.424  0.00  0.00    +0.000 OA
ENDROOT
BRANCH   1  15
ATOM     12  C   UNL     1       2.505   6.640  18.571  0.00  0.00    +0.000 A 
ATOM     13  C   UNL     1       2.376   7.842  17.878  0.00  0.00    +0.000 A 
ATOM     14  C   UNL     1       1.828   8.964  18.512  0.00  0.00    +0.000 A 
ATOM     15  C   UNL     1       1.426   8.924  19.857  0.00  0.00    +0.000 A 
ATOM     16  C   UNL     1       1.672   7.733  20.568  0.00  0.00    +0.000 A 
ATOM     17  C   UNL     1       2.192   6.598  19.933  0.00  0.00    +0.000 A 
BRANCH  12  19
ATOM     18  O   UNL     1       4.099   5.244  17.479  0.00  0.00    +0.000 OA
ATOM     19  C   UNL     1       2.973   5.385  17.915  0.00  0.00    +0.000 C 
BRANCH  19  20
ATOM     20  O   UNL     1       2.046   4.400  17.907  0.00  0.00    +0.000 OA
ATOM     21  H   UNL     1       1.725   4.132  17.027  0.00  0.00    +0.000 HD
ENDBRANCH  19  20
ENDBRANCH  12  19
ENDBRANCH   1  15
BRANCH   2  22
ATOM     22  C   UNL     1      -0.266  11.332  18.785  0.00  0.00    +0.000 C 
ATOM     23  C   UNL     1      -1.431  10.677  18.889  0.00  0.00    +0.000 C 
BRANCH  23  24
ATOM     24  C   UNL     1      -2.363  10.607  17.763  0.00  0.00    +0.000 A 
ATOM     25  C   UNL     1      -2.110   9.841  16.614  0.00  0.00    +0.000 A 
ATOM     26  C   UNL     1      -2.949   9.957  15.502  0.00  0.00    +0.000 A 
ATOM     27  C   UNL     1      -4.052  10.807  15.547  0.00  0.00    +0.000 A 
ATOM     28  C   UNL     1      -4.353  11.498  16.719  0.00  0.00    +0.000 A 
ATOM     29  C   UNL     1      -3.519  11.384  17.830  0.00  0.00    +0.000 A 
ENDBRANCH  23  24
ENDBRANCH   2  22
TORSDOF 5
ENDMDL
MODEL 5
REMARK VINA RESULT:      -8.0      4.368      7.837
REMARK  Name = 
REMARK  5 active torsions:
REMARK  status: ('A' for Active; 'I' for Inactive)
REMARK    1  A    between atoms: C_2  and  O_3
REMARK    2  A    between atoms: C_2  and  C_4
REMARK    3  A    between atoms: C_7  and  N_8
REMARK    4  A    between atoms: C_9  and  C_10
REMARK    5  A    between atoms: C_11  and  C_12
REMARK                            x       y       z     vdW  Elec       q    Type
REMARK                         _______ _______ _______ _____ _____    ______ ____
ROOT
ATOM      1  N   UNL     1       0.734   9.944  20.482  0.00  0.00    +0.000 N 
ATOM      2  C   UNL     1       0.781  11.186  19.860  0.00  0.00    +0.000 A 
ATOM      3  N   UNL     1       1.099  12.250  20.528  0.00  0.00    +0.000 NA
ATOM      4  C   UNL     1       0.278  12.379  21.666  0.00  0.00    +0.000 A 
ATOM      5  C   UNL     1      -0.106  13.651  22.065  0.00  0.00    +0.000 A 
ATOM      6  C   UNL     1      -1.291  13.813  22.787  0.00  0.00    +0.000 A 
ATOM      7  C   UNL     1      -2.068  12.700  23.119  0.00  0.00    +0.000 A 
ATOM      8  C   UNL     1      -1.611  11.411  22.844  0.00  0.00    +0.000 A 
ATOM      9  C   UNL     1      -0.412  11.258  22.147  0.00  0.00    +0.000 A 
ATOM     10  C   UNL     1       0.092   9.936  21.714  0.00  0.00    +0.000 A 
ATOM     11  O   UNL     1      -0.115   8.966  22.446  0.00  0.00    +0.000 OA
ENDROOT
BRANCH   1  15
ATOM     12  C   UNL     1       2.873   6.682  18.760  0.00  0.00    +0.000 A 
ATOM     13  C   UNL     1       2.319   6.555  20.031  0.00  0.00    +0.000 A 
ATOM     14  C   UNL     1       1.589   7.613  20.590  0.00  0.00    +0.000 A 
ATOM     15  C   UNL     1       1.368   8.806  19.883  0.00  0.00    +0.000 A 
ATOM     16  C   UNL     1       1.840   8.867  18.558  0.00  0.00    +0.000 A 
ATOM     17  C   UNL     1       2.596   7.825  18.003  0.00  0.00    +0.000 A 
BRANCH  12  19
ATOM     18  O   UNL     1       4.139   5.674  17.010  0.00  0.00    +0.000 OA
ATOM     19  C   UNL     1       3.755   5.638  18.163  0.00  0.00    +0.000 C 
BRANCH  19  20
ATOM     20  O   UNL     1       4.136   4.683  19.041  0.00  0.00    +0.000 OA
ATOM     21  H   UNL     1       5.068   4.717  19.322  0.00  0.00    +0.000 HD
ENDBRANCH  19  20
ENDBRANCH  12  19
ENDBRANCH   1  15
BRANCH   2  22
ATOM     22  C   UNL     1      -0.226  11.250  18.744  0.00  0.00    +0.000 C 
ATOM     23  C   UNL     1      -1.428  10.671  18.876  0.00  0.00    +0.000 C 
BRANCH  23  24
ATOM     24  C   UNL     1      -2.364  10.606  17.752  0.00  0.00    +0.000 A 
ATOM     25  C   UNL     1      -2.102   9.870  16.586  0.00  0.00    +0.000 A 
ATOM     26  C   UNL     1      -2.948   9.992  15.481  0.00  0.00    +0.000 A 
ATOM     27  C   UNL     1      -4.067  10.819  15.548  0.00  0.00    +0.000 A 
ATOM     28  C   UNL     1      -4.376  11.480  16.735  0.00  0.00    +0.000 A 
ATOM     29  C   UNL     1      -3.535  11.360  17.840  0.00  0.00    +0.000 A 
ENDBRANCH  23  24
ENDBRANCH   2  22
TORSDOF 5
ENDMDL
MODEL 6
REMARK VINA RESULT:      -7.9      3.849      6.821
REMARK  Name = 
REMARK  5 active torsions:
REMARK  status: ('A' for Active; 'I' for Inactive)
REMARK    1  A    between atoms: C_2  and  O_3
REMARK    2  A    between atoms: C_2  and  C_4
REMARK    3  A    between atoms: C_7  and  N_8
REMARK    4  A    between atoms: C_9  and  C_10
REMARK    5  A    between atoms: C_11  and  C_12
REMARK                            x       y       z     vdW  Elec       q    Type
REMARK                         _______ _______ _______ _____ _____    ______ ____
ROOT
ATOM      1  N   UNL     1       1.435   8.943  19.811  0.00  0.00    +0.000 N 
ATOM      2  C   UNL     1       1.158  10.160  19.199  0.00  0.00    +0.000 A 
ATOM      3  N   UNL     1       1.408  11.278  19.805  0.00  0.00    +0.000 NA
ATOM      4  C   UNL     1       0.798  11.296  21.074  0.00  0.00    +0.000 A 
ATOM      5  C   UNL     1       0.282  12.494  21.545  0.00  0.00    +0.000 A 
ATOM      6  C   UNL     1      -0.761  12.474  22.473  0.00  0.00    +0.000 A 
ATOM      7  C   UNL     1      -1.266  11.255  22.934  0.00  0.00    +0.000 A 
ATOM      8  C   UNL     1      -0.655  10.054  22.572  0.00  0.00    +0.000 A 
ATOM      9  C   UNL     1       0.405  10.087  21.666  0.00  0.00    +0.000 A 
ATOM     10  C   UNL     1       1.038   8.857  21.140  0.00  0.00    +0.000 A 
ATOM     11  O   UNL     1       1.135   7.885  21.890  0.00  0.00    +0.000 OA
ENDROOT
BRANCH   1  15
ATOM     12  C   UNL     1       3.751   5.965  17.824  0.00  0.00    +0.000 A 
ATOM     13  C   UNL     1       2.950   5.613  18.908  0.00  0.00    +0.000 A 
ATOM     14  C   UNL     1       2.164   6.581  19.545  0.00  0.00    +0.000 A 
ATOM     15  C   UNL     1       2.133   7.912  19.098  0.00  0.00    +0.000 A 
ATOM     16  C   UNL     1       2.861   8.218  17.933  0.00  0.00    +0.000 A 
ATOM     17  C   UNL     1       3.674   7.262  17.307  0.00  0.00    +0.000 A 
BRANCH  12  19
ATOM     18  O   UNL     1       4.966   3.921  17.660  0.00  0.00    +0.000 OA
ATOM     19  C   UNL     1       4.694   5.005  17.181  0.00  0.00    +0.000 C 
BRANCH  19  20
ATOM     20  O   UNL     1       5.169   5.429  15.987  0.00  0.00    +0.000 OA
ATOM     21  H   UNL     1       4.544   5.940  15.443  0.00  0.00    +0.000 HD
ENDBRANCH  19  20
ENDBRANCH  12  19
ENDBRANCH   1  15
BRANCH   2  22
ATOM     22  C   UNL     1      -0.031  10.027  18.287  0.00  0.00    +0.000 C 
ATOM     23  C   UNL     1      -0.964  10.988  18.239  0.00  0.00    +0.000 C 
BRANCH  23  24
ATOM     24  C   UNL     1      -2.193  10.812  17.462  0.00  0.00    +0.000 A 
ATOM     25  C   UNL     1      -2.256  10.013  16.310  0.00  0.00    +0.000 A 
ATOM     26  C   UNL     1      -3.404  10.029  15.514  0.00  0.00    +0.000 A 
ATOM     27  C   UNL     1      -4.496  10.812  15.881  0.00  0.00    +0.000 A 
ATOM     28  C   UNL     1      -4.466  11.535  17.072  0.00  0.00    +0.000 A 
ATOM     29  C   UNL     1      -3.323  11.521  17.869  0.00  0.00    +0.000 A 
ENDBRANCH  23  24
ENDBRANCH   2  22
TORSDOF 5
ENDMDL
MODEL 7
REMARK VINA RESULT:      -7.8      3.946      7.276
REMARK  Name = 
REMARK  5 active torsions:
REMARK  status: ('A' for Active; 'I' for Inactive)
REMARK    1  A    between atoms: C_2  and  O_3
REMARK    2  A    between atoms: C_2  and  C_4
REMARK    3  A    between atoms: C_7  and  N_8
REMARK    4  A    between atoms: C_9  and  C_10
REMARK    5  A    between atoms: C_11  and  C_12
REMARK                            x       y       z     vdW  Elec       q    Type
REMARK                         _______ _______ _______ _____ _____    ______ ____
ROOT
ATOM      1  N   UNL     1       1.249   9.115  20.120  0.00  0.00    +0.000 N 
ATOM      2  C   UNL     1       1.046  10.269  19.373  0.00  0.00    +0.000 A 
ATOM      3  N   UNL     1       1.364  11.432  19.849  0.00  0.00    +0.000 NA
ATOM      4  C   UNL     1       0.757  11.630  21.104  0.00  0.00    +0.000 A 
ATOM      5  C   UNL     1       0.316  12.904  21.433  0.00  0.00    +0.000 A 
ATOM      6  C   UNL     1      -0.727  13.052  22.351  0.00  0.00    +0.000 A 
ATOM      7  C   UNL     1      -1.304  11.926  22.944  0.00  0.00    +0.000 A 
ATOM      8  C   UNL     1      -0.768  10.657  22.724  0.00  0.00    +0.000 A 
ATOM      9  C   UNL     1       0.291  10.523  21.827  0.00  0.00    +0.000 A 
ATOM     10  C   UNL     1       0.848   9.205  21.448  0.00  0.00    +0.000 A 
ATOM     11  O   UNL     1       0.886   8.320  22.304  0.00  0.00    +0.000 OA
ENDROOT
BRANCH   1  15
ATOM     12  C   UNL     1       2.875   5.635  18.269  0.00  0.00    +0.000 A 
ATOM     13  C   UNL     1       3.069   6.886  17.688  0.00  0.00    +0.000 A 
ATOM     14  C   UNL     1       2.564   8.036  18.307  0.00  0.00    +0.000 A 
ATOM     15  C   UNL     1       1.882   7.970  19.533  0.00  0.00    +0.000 A 
ATOM     16  C   UNL     1       1.798   6.710  20.157  0.00  0.00    +0.000 A 
ATOM     17  C   UNL     1       2.275   5.551  19.529  0.00  0.00    +0.000 A 
BRANCH  12  19
ATOM     18  O   UNL     1       4.446   4.007  17.519  0.00  0.00    +0.000 OA
ATOM     19  C   UNL     1       3.288   4.368  17.599  0.00  0.00    +0.000 C 
BRANCH  19  20
ATOM     20  O   UNL     1       2.249   3.632  17.144  0.00  0.00    +0.000 OA
ATOM     21  H   UNL     1       1.951   3.837  16.239  0.00  0.00    +0.000 HD
ENDBRANCH  19  20
ENDBRANCH  12  19
ENDBRANCH   1  15
BRANCH   2  22
ATOM     22  C   UNL     1      -0.149  10.106  18.474  0.00  0.00    +0.000 C 
ATOM     23  C   UNL     1      -1.006  11.119  18.288  0.00  0.00    +0.000 C 
BRANCH  23  24
ATOM     24  C   UNL     1      -2.244  10.934  17.529  0.00  0.00    +0.000 A 
ATOM     25  C   UNL     1      -2.293  10.238  16.311  0.00  0.00    +0.000 A 
ATOM     26  C   UNL     1      -3.463  10.251  15.548  0.00  0.00    +0.000 A 
ATOM     27  C   UNL     1      -4.590  10.927  16.011  0.00  0.00    +0.000 A 
ATOM     28  C   UNL     1      -4.569  11.542  17.261  0.00  0.00    +0.000 A 
ATOM     29  C   UNL     1      -3.404  11.531  18.025  0.00  0.00    +0.000 A 
ENDBRANCH  23  24
ENDBRANCH   2  22
TORSDOF 5
ENDMDL
MODEL 8
REMARK VINA RESULT:      -7.8      4.556      8.031
REMARK  Name = 
REMARK  5 active torsions:
REMARK  status: ('A' for Active; 'I' for Inactive)
REMARK    1  A    between atoms: C_2  and  O_3
REMARK    2  A    between atoms: C_2  and  C_4
REMARK    3  A    between atoms: C_7  and  N_8
REMARK    4  A    between atoms: C_9  and  C_10
REMARK    5  A    between atoms: C_11  and  C_12
REMARK                            x       y       z     vdW  Elec       q    Type
REMARK                         _______ _______ _______ _____ _____    ______ ____
ROOT
ATOM      1  N   UNL     1       0.460  10.169  20.687  0.00  0.00    +0.000 N 
ATOM      2  C   UNL     1       0.544  11.449  20.152  0.00  0.00    +0.000 A 
ATOM      3  N   UNL     1       0.838  12.464  20.903  0.00  0.00    +0.000 NA
ATOM      4  C   UNL     1      -0.033  12.524  22.009  0.00  0.00    +0.000 A 
ATOM      5  C   UNL     1      -0.427  13.770  22.474  0.00  0.00    +0.000 A 
ATOM      6  C   UNL     1      -1.642  13.895  23.152  0.00  0.00    +0.000 A 
ATOM      7  C   UNL     1      -2.440  12.770  23.373  0.00  0.00    +0.000 A 
ATOM      8  C   UNL     1      -1.980  11.498  23.034  0.00  0.00    +0.000 A 
ATOM      9  C   UNL     1      -0.752  11.381  22.382  0.00  0.00    +0.000 A 
ATOM     10  C   UNL     1      -0.237  10.085  21.886  0.00  0.00    +0.000 A 
ATOM     11  O   UNL     1      -0.483   9.071  22.541  0.00  0.00    +0.000 OA
ENDROOT
BRANCH   1  15
ATOM     12  C   UNL     1       2.652   7.030  18.811  0.00  0.00    +0.000 A 
ATOM     13  C   UNL     1       2.199   6.875  20.119  0.00  0.00    +0.000 A 
ATOM     14  C   UNL     1       1.452   7.890  20.730  0.00  0.00    +0.000 A 
ATOM     15  C   UNL     1       1.113   9.067  20.042  0.00  0.00    +0.000 A 
ATOM     16  C   UNL     1       1.484   9.151  18.686  0.00  0.00    +0.000 A 
ATOM     17  C   UNL     1       2.257   8.153  18.077  0.00  0.00    +0.000 A 
BRANCH  12  19
ATOM     18  O   UNL     1       4.476   6.353  17.434  0.00  0.00    +0.000 OA
ATOM     19  C   UNL     1       3.547   6.036  18.150  0.00  0.00    +0.000 C 
BRANCH  19  20
ATOM     20  O   UNL     1       3.265   4.753  18.473  0.00  0.00    +0.000 OA
ATOM     21  H   UNL     1       3.624   4.445  19.325  0.00  0.00    +0.000 HD
ENDBRANCH  19  20
ENDBRANCH  12  19
ENDBRANCH   1  15
BRANCH   2  22
ATOM     22  C   UNL     1      -0.411  11.597  18.999  0.00  0.00    +0.000 C 
ATOM     23  C   UNL     1      -1.530  10.860  18.941  0.00  0.00    +0.000 C 
BRANCH  23  24
ATOM     24  C   UNL     1      -2.396  10.892  17.761  0.00  0.00    +0.000 A 
ATOM     25  C   UNL     1      -3.631  11.560  17.742  0.00  0.00    +0.000 A 
ATOM     26  C   UNL     1      -4.491  11.403  16.653  0.00  0.00    +0.000 A 
ATOM     27  C   UNL     1      -4.109  10.610  15.572  0.00  0.00    +0.000 A 
ATOM     28  C   UNL     1      -2.847  10.020  15.552  0.00  0.00    +0.000 A 
ATOM     29  C   UNL     1      -1.986  10.175  16.637  0.00  0.00    +0.000 A 
ENDBRANCH  23  24
ENDBRANCH   2  22
TORSDOF 5
ENDMDL
MODEL 9
REMARK VINA RESULT:      -7.8      4.637      8.262
REMARK  Name = 
REMARK  5 active torsions:
REMARK  status: ('A' for Active; 'I' for Inactive)
REMARK    1  A    between atoms: C_2  and  O_3
REMARK    2  A    between atoms: C_2  and  C_4
REMARK    3  A    between atoms: C_7  and  N_8
REMARK    4  A    between atoms: C_9  and  C_10
REMARK    5  A    between atoms: C_11  and  C_12
REMARK                            x       y       z     vdW  Elec       q    Type
REMARK                         _______ _______ _______ _____ _____    ______ ____
ROOT
ATOM      1  N   UNL     1       0.391  10.272  20.948  0.00  0.00    +0.000 N 
ATOM      2  C   UNL     1       0.453  11.552  20.408  0.00  0.00    +0.000 A 
ATOM      3  N   UNL     1       0.669  12.581  21.166  0.00  0.00    +0.000 NA
ATOM      4  C   UNL     1      -0.260  12.615  22.224  0.00  0.00    +0.000 A 
ATOM      5  C   UNL     1      -0.725  13.847  22.659  0.00  0.00    +0.000 A 
ATOM      6  C   UNL     1      -1.977  13.929  23.272  0.00  0.00    +0.000 A 
ATOM      7  C   UNL     1      -2.743  12.775  23.460  0.00  0.00    +0.000 A 
ATOM      8  C   UNL     1      -2.217  11.520  23.155  0.00  0.00    +0.000 A 
ATOM      9  C   UNL     1      -0.953  11.446  22.569  0.00  0.00    +0.000 A 
ATOM     10  C   UNL     1      -0.364  10.168  22.110  0.00  0.00    +0.000 A 
ATOM     11  O   UNL     1      -0.605   9.150  22.759  0.00  0.00    +0.000 OA
ENDROOT
BRANCH   1  15
ATOM     12  C   UNL     1       2.301   6.938  19.101  0.00  0.00    +0.000 A 
ATOM     13  C   UNL     1       2.189   8.143  18.412  0.00  0.00    +0.000 A 
ATOM     14  C   UNL     1       1.590   9.251  19.025  0.00  0.00    +0.000 A 
ATOM     15  C   UNL     1       1.118   9.193  20.346  0.00  0.00    +0.000 A 
ATOM     16  C   UNL     1       1.346   8.000  21.060  0.00  0.00    +0.000 A 
ATOM     17  C   UNL     1       1.917   6.878  20.444  0.00  0.00    +0.000 A 
BRANCH  12  19
ATOM     18  O   UNL     1       2.122   4.935  17.820  0.00  0.00    +0.000 OA
ATOM     19  C   UNL     1       2.822   5.695  18.461  0.00  0.00    +0.000 C 
BRANCH  19  20
ATOM     20  O   UNL     1       4.156   5.528  18.609  0.00  0.00    +0.000 OA
ATOM     21  H   UNL     1       4.483   5.544  19.526  0.00  0.00    +0.000 HD
ENDBRANCH  19  20
ENDBRANCH  12  19
ENDBRANCH   1  15
BRANCH   2  22
ATOM     22  C   UNL     1      -0.446  11.656  19.206  0.00  0.00    +0.000 C 
ATOM     23  C   UNL     1      -1.596  10.971  19.153  0.00  0.00    +0.000 C 
BRANCH  23  24
ATOM     24  C   UNL     1      -2.412  10.953  17.938  0.00  0.00    +0.000 A 
ATOM     25  C   UNL     1      -3.663  11.584  17.852  0.00  0.00    +0.000 A 
ATOM     26  C   UNL     1      -4.470  11.380  16.730  0.00  0.00    +0.000 A 
ATOM     27  C   UNL     1      -4.020  10.577  15.684  0.00  0.00    +0.000 A 
ATOM     28  C   UNL     1      -2.741  10.024  15.730  0.00  0.00    +0.000 A 
ATOM     29  C   UNL     1      -1.933  10.226  16.847  0.00  0.00    +0.000 A 
ENDBRANCH  23  24
ENDBRANCH   2  22
TORSDOF 5
ENDMDL
