MODEL 1
REMARK VINA RESULT:      -8.9      0.000      0.000
REMARK  Name = 
REMARK  5 active torsions:
REMARK  status: ('A' for Active; 'I' for Inactive)
REMARK    1  A    between atoms: C_2  and  C_3
REMARK    2  A    between atoms: C_3  and  C_4
REMARK    3  A    between atoms: C_4  and  O_5
REMARK    4  A    between atoms: C_4  and  C_6
REMARK    5  A    between atoms: C_4  and  C_12
REMARK                            x       y       z     vdW  Elec       q    Type
REMARK                         _______ _______ _______ _____ _____    ______ ____
ROOT
ATOM      1  C   UNL     1       5.863   4.548  15.983  0.00  0.00    +0.000 C 
ENDROOT
BRANCH   1   2
ATOM      2  C   UNL     1       6.344   4.511  14.515  0.00  0.00    +0.000 A 
ATOM      3  C   UNL     1       5.728   3.660  13.578  0.00  0.00    +0.000 A 
ATOM      4  C   UNL     1       6.199   3.564  12.264  0.00  0.00    +0.000 A 
ATOM      5  C   UNL     1       7.298   4.313  11.858  0.00  0.00    +0.000 A 
ATOM      6  C   UNL     1       7.920   5.169  12.761  0.00  0.00    +0.000 A 
ATOM      7  C   UNL     1       7.444   5.274  14.072  0.00  0.00    +0.000 A 
ENDBRANCH   1   2
BRANCH   1   8
ATOM      8  C   UNL     1       6.762   5.406  16.888  0.00  0.00    +0.000 A 
ATOM      9  C   UNL     1       7.415   4.821  17.992  0.00  0.00    +0.000 A 
ATOM     10  C   UNL     1       8.104   5.601  18.921  0.00  0.00    +0.000 A 
ATOM     11  C   UNL     1       8.175   6.982  18.759  0.00  0.00    +0.000 A 
ATOM     12  C   UNL     1       7.591   7.576  17.646  0.00  0.00    +0.000 A 
ATOM     13  C   UNL     1       6.901   6.792  16.714  0.00  0.00    +0.000 A 
ENDBRANCH   1   8
BRANCH   1  14
ATOM     14  O   UNL     1       5.916   3.205  16.518  0.00  0.00    +0.000 OA
ATOM     15  H   UNL     1       5.792   2.591  15.773  0.00  0.00    +0.000 HD
ENDBRANCH   1  14
BRANCH   1  16
ATOM     16  C   UNL     1       4.369   4.951  16.018  0.00  0.00    +0.000 C 
BRANCH  16  18
ATOM     17  O   UNL     1       3.171   5.956  17.814  0.00  0.00    +0.000 OA
ATOM     18  C   UNL     1       3.658   4.914  17.368  0.00  0.00    +0.000 C 
ATOM     19  N   UNL     1       3.536   3.685  17.969  0.00  0.00    +0.000 N 
ATOM     20  C   UNL     1       2.868   3.480  19.177  0.00  0.00    +0.000 A 
ATOM     21  C   UNL     1       1.624   4.046  19.424  0.00  0.00    +0.000 A 
ATOM     22  C   UNL     1       1.013   3.805  20.652  0.00  0.00    +0.000 A 
ATOM     23  C   UNL     1       1.682   3.043  21.602  0.00  0.00    +0.000 A 
ATOM     24  C   UNL     1       2.911   2.505  21.258  0.00  0.00    +0.000 A 
ATOM     25  N   UNL     1       3.494   2.668  20.051  0.00  0.00    +0.000 NA
ATOM     26  H   UNL     1       4.278   3.008  17.812  0.00  0.00    +0.000 HD
ENDBRANCH  16  18
ENDBRANCH   1  16
TORSDOF 5
ENDMDL
MODEL 2
REMARK VINA RESULT:      -8.7      0.304      1.024
REMARK  Name = 
REMARK  5 active torsions:
REMARK  status: ('A' for Active; 'I' for Inactive)
REMARK    1  A    between atoms: C_2  and  C_3
REMARK    2  A    between atoms: C_3  and  C_4
REMARK    3  A    between atoms: C_4  and  O_5
REMARK    4  A    between atoms: C_4  and  C_6
REMARK    5  A    between atoms: C_4  and  C_12
REMARK                            x       y       z     vdW  Elec       q    Type
REMARK                         _______ _______ _______ _____ _____    ______ ____
ROOT
ATOM      1  C   UNL     1       5.708   4.347  16.006  0.00  0.00    +0.000 C 
ENDROOT
BRANCH   1   2
ATOM      2  C   UNL     1       6.244   4.407  14.558  0.00  0.00    +0.000 A 
ATOM      3  C   UNL     1       5.669   3.617  13.545  0.00  0.00    +0.000 A 
ATOM      4  C   UNL     1       6.190   3.608  12.246  0.00  0.00    +0.000 A 
ATOM      5  C   UNL     1       7.299   4.384  11.932  0.00  0.00    +0.000 A 
ATOM      6  C   UNL     1       7.882   5.183  12.911  0.00  0.00    +0.000 A 
ATOM      7  C   UNL     1       7.356   5.200  14.207  0.00  0.00    +0.000 A 
ENDBRANCH   1   2
BRANCH   1   8
ATOM      8  C   UNL     1       6.452   5.295  16.961  0.00  0.00    +0.000 A 
ATOM      9  C   UNL     1       6.437   6.684  16.729  0.00  0.00    +0.000 A 
ATOM     10  C   UNL     1       7.232   7.552  17.479  0.00  0.00    +0.000 A 
ATOM     11  C   UNL     1       8.046   7.054  18.493  0.00  0.00    +0.000 A 
ATOM     12  C   UNL     1       8.033   5.694  18.781  0.00  0.00    +0.000 A 
ATOM     13  C   UNL     1       7.234   4.825  18.028  0.00  0.00    +0.000 A 
ENDBRANCH   1   8
BRANCH   1  14
ATOM     14  O   UNL     1       5.917   3.011  16.518  0.00  0.00    +0.000 OA
ATOM     15  H   UNL     1       6.179   3.097  17.451  0.00  0.00    +0.000 HD
ENDBRANCH   1  14
BRANCH   1  16
ATOM     16  C   UNL     1       4.174   4.551  15.988  0.00  0.00    +0.000 C 
BRANCH  16  18
ATOM     17  O   UNL     1       2.836   5.561  17.678  0.00  0.00    +0.000 OA
ATOM     18  C   UNL     1       3.445   4.547  17.329  0.00  0.00    +0.000 C 
ATOM     19  N   UNL     1       3.449   3.368  18.031  0.00  0.00    +0.000 N 
ATOM     20  C   UNL     1       2.784   3.191  19.245  0.00  0.00    +0.000 A 
ATOM     21  C   UNL     1       1.479   3.631  19.430  0.00  0.00    +0.000 A 
ATOM     22  C   UNL     1       0.875   3.427  20.667  0.00  0.00    +0.000 A 
ATOM     23  C   UNL     1       1.605   2.829  21.686  0.00  0.00    +0.000 A 
ATOM     24  C   UNL     1       2.893   2.406  21.403  0.00  0.00    +0.000 A 
ATOM     25  N   UNL     1       3.479   2.532  20.193  0.00  0.00    +0.000 NA
ATOM     26  H   UNL     1       4.265   2.768  17.941  0.00  0.00    +0.000 HD
ENDBRANCH  16  18
ENDBRANCH   1  16
TORSDOF 5
ENDMDL
MODEL 3
REMARK VINA RESULT:      -8.4      0.868      3.949
REMARK  Name = 
REMARK  5 active torsions:
REMARK  status: ('A' for Active; 'I' for Inactive)
REMARK    1  A    between atoms: C_2  and  C_3
REMARK    2  A    between atoms: C_3  and  C_4
REMARK    3  A    between atoms: C_4  and  O_5
REMARK    4  A    between atoms: C_4  and  C_6
REMARK    5  A    between atoms: C_4  and  C_12
REMARK                            x       y       z     vdW  Elec       q    Type
REMARK                         _______ _______ _______ _____ _____    ______ ____
ROOT
ATOM      1  C   UNL     1       5.648   5.024  15.611  0.00  0.00    +0.000 C 
ENDROOT
BRANCH   1   2
ATOM      2  C   UNL     1       6.598   5.473  16.743  0.00  0.00    +0.000 A 
ATOM      3  C   UNL     1       7.250   4.525  17.553  0.00  0.00    +0.000 A 
ATOM      4  C   UNL     1       8.057   4.918  18.627  0.00  0.00    +0.000 A 
ATOM      5  C   UNL     1       8.226   6.267  18.917  0.00  0.00    +0.000 A 
ATOM      6  C   UNL     1       7.601   7.226  18.127  0.00  0.00    +0.000 A 
ATOM      7  C   UNL     1       6.803   6.835  17.047  0.00  0.00    +0.000 A 
ENDBRANCH   1   2
BRANCH   1   8
ATOM      8  C   UNL     1       6.383   4.720  14.295  0.00  0.00    +0.000 A 
ATOM      9  C   UNL     1       7.489   5.503  13.909  0.00  0.00    +0.000 A 
ATOM     10  C   UNL     1       8.074   5.357  12.650  0.00  0.00    +0.000 A 
ATOM     11  C   UNL     1       7.581   4.412  11.755  0.00  0.00    +0.000 A 
ATOM     12  C   UNL     1       6.529   3.586  12.135  0.00  0.00    +0.000 A 
ATOM     13  C   UNL     1       5.944   3.732  13.399  0.00  0.00    +0.000 A 
ENDBRANCH   1   8
BRANCH   1  14
ATOM     14  O   UNL     1       4.733   6.107  15.321  0.00  0.00    +0.000 OA
ATOM     15  H   UNL     1       3.836   5.790  15.525  0.00  0.00    +0.000 HD
ENDBRANCH   1  14
BRANCH   1  16
ATOM     16  C   UNL     1       4.765   3.859  16.120  0.00  0.00    +0.000 C 
BRANCH  16  18
ATOM     17  O   UNL     1       3.375   5.223  17.491  0.00  0.00    +0.000 OA
ATOM     18  C   UNL     1       3.899   4.115  17.351  0.00  0.00    +0.000 C 
ATOM     19  N   UNL     1       3.692   3.050  18.192  0.00  0.00    +0.000 N 
ATOM     20  C   UNL     1       2.884   3.111  19.328  0.00  0.00    +0.000 A 
ATOM     21  C   UNL     1       1.625   3.698  19.294  0.00  0.00    +0.000 A 
ATOM     22  C   UNL     1       0.870   3.730  20.463  0.00  0.00    +0.000 A 
ATOM     23  C   UNL     1       1.413   3.211  21.632  0.00  0.00    +0.000 A 
ATOM     24  C   UNL     1       2.667   2.628  21.565  0.00  0.00    +0.000 A 
ATOM     25  N   UNL     1       3.392   2.525  20.430  0.00  0.00    +0.000 NA
ATOM     26  H   UNL     1       4.439   2.367  18.280  0.00  0.00    +0.000 HD
ENDBRANCH  16  18
ENDBRANCH   1  16
TORSDOF 5
ENDMDL
MODEL 4
REMARK VINA RESULT:      -8.3      2.442      7.033
REMARK  Name = 
REMARK  5 active torsions:
REMARK  status: ('A' for Active; 'I' for Inactive)
REMARK    1  A    between atoms: C_2  and  C_3
REMARK    2  A    between atoms: C_3  and  C_4
REMARK    3  A    between atoms: C_4  and  O_5
REMARK    4  A    between atoms: C_4  and  C_6
REMARK    5  A    between atoms: C_4  and  C_12
REMARK                            x       y       z     vdW  Elec       q    Type
REMARK                         _______ _______ _______ _____ _____    ______ ____
ROOT
ATOM      1  C   UNL     1       3.085   5.246  18.409  0.00  0.00    +0.000 C 
ENDROOT
BRANCH   1   2
ATOM      2  C   UNL     1       2.568   4.237  19.457  0.00  0.00    +0.000 A 
ATOM      3  C   UNL     1       1.202   3.905  19.524  0.00  0.00    +0.000 A 
ATOM      4  C   UNL     1       0.708   3.048  20.514  0.00  0.00    +0.000 A 
ATOM      5  C   UNL     1       1.569   2.506  21.462  0.00  0.00    +0.000 A 
ATOM      6  C   UNL     1       2.927   2.809  21.414  0.00  0.00    +0.000 A 
ATOM      7  C   UNL     1       3.422   3.658  20.419  0.00  0.00    +0.000 A 
ENDBRANCH   1   2
BRANCH   1   8
ATOM      8  C   UNL     1       2.617   6.685  18.678  0.00  0.00    +0.000 A 
ATOM      9  C   UNL     1       2.183   7.056  19.967  0.00  0.00    +0.000 A 
ATOM     10  C   UNL     1       1.601   8.302  20.204  0.00  0.00    +0.000 A 
ATOM     11  C   UNL     1       1.459   9.216  19.164  0.00  0.00    +0.000 A 
ATOM     12  C   UNL     1       1.934   8.898  17.896  0.00  0.00    +0.000 A 
ATOM     13  C   UNL     1       2.518   7.648  17.660  0.00  0.00    +0.000 A 
ENDBRANCH   1   8
BRANCH   1  14
ATOM     14  O   UNL     1       2.548   4.882  17.116  0.00  0.00    +0.000 OA
ATOM     15  H   UNL     1       1.638   5.223  17.074  0.00  0.00    +0.000 HD
ENDBRANCH   1  14
BRANCH   1  16
ATOM     16  C   UNL     1       4.620   5.100  18.277  0.00  0.00    +0.000 C 
BRANCH  16  18
ATOM     17  O   UNL     1       5.067   3.254  16.841  0.00  0.00    +0.000 OA
ATOM     18  C   UNL     1       5.164   4.474  16.995  0.00  0.00    +0.000 C 
ATOM     19  N   UNL     1       5.659   5.336  16.049  0.00  0.00    +0.000 N 
ATOM     20  C   UNL     1       6.142   4.923  14.807  0.00  0.00    +0.000 A 
ATOM     21  C   UNL     1       5.449   4.006  14.026  0.00  0.00    +0.000 A 
ATOM     22  C   UNL     1       5.988   3.632  12.798  0.00  0.00    +0.000 A 
ATOM     23  C   UNL     1       7.216   4.154  12.411  0.00  0.00    +0.000 A 
ATOM     24  C   UNL     1       7.824   5.077  13.247  0.00  0.00    +0.000 A 
ATOM     25  N   UNL     1       7.291   5.506  14.411  0.00  0.00    +0.000 NA
ATOM     26  H   UNL     1       6.100   6.192  16.375  0.00  0.00    +0.000 HD
ENDBRANCH  16  18
ENDBRANCH   1  16
TORSDOF 5
ENDMDL
MODEL 5
REMARK VINA RESULT:      -8.3      0.917      1.051
REMARK  Name = 
REMARK  5 active torsions:
REMARK  status: ('A' for Active; 'I' for Inactive)
REMARK    1  A    between atoms: C_2  and  C_3
REMARK    2  A    between atoms: C_3  and  C_4
REMARK    3  A    between atoms: C_4  and  O_5
REMARK    4  A    between atoms: C_4  and  C_6
REMARK    5  A    between atoms: C_4  and  C_12
REMARK                            x       y       z     vdW  Elec       q    Type
REMARK                         _______ _______ _______ _____ _____    ______ ____
ROOT
ATOM      1  C   UNL     1       5.805   4.495  15.983  0.00  0.00    +0.000 C 
ENDROOT
BRANCH   1   2
ATOM      2  C   UNL     1       6.273   4.448  14.512  0.00  0.00    +0.000 A 
ATOM      3  C   UNL     1       5.633   3.611  13.579  0.00  0.00    +0.000 A 
ATOM      4  C   UNL     1       6.091   3.506  12.261  0.00  0.00    +0.000 A 
ATOM      5  C   UNL     1       7.202   4.231  11.847  0.00  0.00    +0.000 A 
ATOM      6  C   UNL     1       7.849   5.074  12.745  0.00  0.00    +0.000 A 
ATOM      7  C   UNL     1       7.386   5.188  14.060  0.00  0.00    +0.000 A 
ENDBRANCH   1   2
BRANCH   1   8
ATOM      8  C   UNL     1       6.715   5.355  16.876  0.00  0.00    +0.000 A 
ATOM      9  C   UNL     1       7.389   4.770  17.967  0.00  0.00    +0.000 A 
ATOM     10  C   UNL     1       8.090   5.551  18.887  0.00  0.00    +0.000 A 
ATOM     11  C   UNL     1       8.151   6.932  18.728  0.00  0.00    +0.000 A 
ATOM     12  C   UNL     1       7.545   7.528  17.627  0.00  0.00    +0.000 A 
ATOM     13  C   UNL     1       6.844   6.743  16.704  0.00  0.00    +0.000 A 
ENDBRANCH   1   8
BRANCH   1  14
ATOM     14  O   UNL     1       5.858   3.155  16.525  0.00  0.00    +0.000 OA
ATOM     15  H   UNL     1       5.542   3.202  17.444  0.00  0.00    +0.000 HD
ENDBRANCH   1  14
BRANCH   1  16
ATOM     16  C   UNL     1       4.313   4.904  16.029  0.00  0.00    +0.000 C 
BRANCH  16  18
ATOM     17  O   UNL     1       2.551   3.450  16.701  0.00  0.00    +0.000 OA
ATOM     18  C   UNL     1       3.428   4.232  17.076  0.00  0.00    +0.000 C 
ATOM     19  N   UNL     1       3.725   4.488  18.391  0.00  0.00    +0.000 N 
ATOM     20  C   UNL     1       3.042   3.909  19.462  0.00  0.00    +0.000 A 
ATOM     21  C   UNL     1       2.754   2.551  19.491  0.00  0.00    +0.000 A 
ATOM     22  C   UNL     1       2.066   2.037  20.587  0.00  0.00    +0.000 A 
ATOM     23  C   UNL     1       1.657   2.902  21.594  0.00  0.00    +0.000 A 
ATOM     24  C   UNL     1       2.007   4.238  21.488  0.00  0.00    +0.000 A 
ATOM     25  N   UNL     1       2.731   4.749  20.469  0.00  0.00    +0.000 NA
ATOM     26  H   UNL     1       4.109   5.401  18.619  0.00  0.00    +0.000 HD
ENDBRANCH  16  18
ENDBRANCH   1  16
TORSDOF 5
ENDMDL
MODEL 6
REMARK VINA RESULT:      -8.2      0.880      3.975
REMARK  Name = 
REMARK  5 active torsions:
REMARK  status: ('A' for Active; 'I' for Inactive)
REMARK    1  A    between atoms: C_2  and  C_3
REMARK    2  A    between atoms: C_3  and  C_4
REMARK    3  A    between atoms: C_4  and  O_5
REMARK    4  A    between atoms: C_4  and  C_6
REMARK    5  A    between atoms: C_4  and  C_12
REMARK                            x       y       z     vdW  Elec       q    Type
REMARK                         _______ _______ _______ _____ _____    ______ ____
ROOT
ATOM      1  C   UNL     1       5.572   4.958  15.704  0.00  0.00    +0.000 C 
ENDROOT
BRANCH   1   2
ATOM      2  C   UNL     1       6.473   5.514  16.829  0.00  0.00    +0.000 A 
ATOM      3  C   UNL     1       6.682   6.900  16.966  0.00  0.00    +0.000 A 
ATOM      4  C   UNL     1       7.551   7.413  17.935  0.00  0.00    +0.000 A 
ATOM      5  C   UNL     1       8.234   6.552  18.787  0.00  0.00    +0.000 A 
ATOM      6  C   UNL     1       8.041   5.178  18.681  0.00  0.00    +0.000 A 
ATOM      7  C   UNL     1       7.164   4.665  17.719  0.00  0.00    +0.000 A 
ENDBRANCH   1   2
BRANCH   1   8
ATOM      8  C   UNL     1       6.337   4.697  14.396  0.00  0.00    +0.000 A 
ATOM      9  C   UNL     1       7.462   5.482  14.069  0.00  0.00    +0.000 A 
ATOM     10  C   UNL     1       8.077   5.378  12.820  0.00  0.00    +0.000 A 
ATOM     11  C   UNL     1       7.596   4.475  11.877  0.00  0.00    +0.000 A 
ATOM     12  C   UNL     1       6.526   3.647  12.198  0.00  0.00    +0.000 A 
ATOM     13  C   UNL     1       5.911   3.751  13.451  0.00  0.00    +0.000 A 
ENDBRANCH   1   8
BRANCH   1  14
ATOM     14  O   UNL     1       4.564   5.947  15.392  0.00  0.00    +0.000 OA
ATOM     15  H   UNL     1       4.000   5.574  14.693  0.00  0.00    +0.000 HD
ENDBRANCH   1  14
BRANCH   1  16
ATOM     16  C   UNL     1       4.798   3.728  16.235  0.00  0.00    +0.000 C 
BRANCH  16  18
ATOM     17  O   UNL     1       3.170   4.975  17.445  0.00  0.00    +0.000 OA
ATOM     18  C   UNL     1       3.846   3.944  17.408  0.00  0.00    +0.000 C 
ATOM     19  N   UNL     1       3.745   2.921  18.318  0.00  0.00    +0.000 N 
ATOM     20  C   UNL     1       2.881   2.946  19.414  0.00  0.00    +0.000 A 
ATOM     21  C   UNL     1       1.558   3.350  19.286  0.00  0.00    +0.000 A 
ATOM     22  C   UNL     1       0.749   3.356  20.420  0.00  0.00    +0.000 A 
ATOM     23  C   UNL     1       1.299   2.998  21.644  0.00  0.00    +0.000 A 
ATOM     24  C   UNL     1       2.623   2.592  21.670  0.00  0.00    +0.000 A 
ATOM     25  N   UNL     1       3.410   2.514  20.575  0.00  0.00    +0.000 NA
ATOM     26  H   UNL     1       4.573   2.356  18.485  0.00  0.00    +0.000 HD
ENDBRANCH  16  18
ENDBRANCH   1  16
TORSDOF 5
ENDMDL
MODEL 7
REMARK VINA RESULT:      -8.2      4.519      6.580
REMARK  Name = 
REMARK  5 active torsions:
REMARK  status: ('A' for Active; 'I' for Inactive)
REMARK    1  A    between atoms: C_2  and  C_3
REMARK    2  A    between atoms: C_3  and  C_4
REMARK    3  A    between atoms: C_4  and  O_5
REMARK    4  A    between atoms: C_4  and  C_6
REMARK    5  A    between atoms: C_4  and  C_12
REMARK                            x       y       z     vdW  Elec       q    Type
REMARK                         _______ _______ _______ _____ _____    ______ ____
ROOT
ATOM      1  C   UNL     1       2.894   6.371  18.821  0.00  0.00    +0.000 C 
ENDROOT
BRANCH   1   2
ATOM      2  C   UNL     1       2.144   5.041  19.060  0.00  0.00    +0.000 A 
ATOM      3  C   UNL     1       1.622   4.728  20.328  0.00  0.00    +0.000 A 
ATOM      4  C   UNL     1       1.004   3.497  20.577  0.00  0.00    +0.000 A 
ATOM      5  C   UNL     1       0.898   2.551  19.564  0.00  0.00    +0.000 A 
ATOM      6  C   UNL     1       1.398   2.837  18.297  0.00  0.00    +0.000 A 
ATOM      7  C   UNL     1       2.006   4.071  18.045  0.00  0.00    +0.000 A 
ENDBRANCH   1   2
BRANCH   1   8
ATOM      8  C   UNL     1       4.362   6.168  18.414  0.00  0.00    +0.000 A 
ATOM      9  C   UNL     1       5.232   5.442  19.252  0.00  0.00    +0.000 A 
ATOM     10  C   UNL     1       6.602   5.378  18.992  0.00  0.00    +0.000 A 
ATOM     11  C   UNL     1       7.132   6.021  17.877  0.00  0.00    +0.000 A 
ATOM     12  C   UNL     1       6.286   6.694  17.002  0.00  0.00    +0.000 A 
ATOM     13  C   UNL     1       4.913   6.755  17.263  0.00  0.00    +0.000 A 
ENDBRANCH   1   8
BRANCH   1  14
ATOM     14  O   UNL     1       2.918   7.114  20.061  0.00  0.00    +0.000 OA
ATOM     15  H   UNL     1       2.786   8.052  19.839  0.00  0.00    +0.000 HD
ENDBRANCH   1  14
BRANCH   1  16
ATOM     16  C   UNL     1       2.082   7.240  17.831  0.00  0.00    +0.000 C 
BRANCH  16  18
ATOM     17  O   UNL     1       2.441   9.570  17.493  0.00  0.00    +0.000 OA
ATOM     18  C   UNL     1       1.882   8.712  18.181  0.00  0.00    +0.000 C 
ATOM     19  N   UNL     1       1.015   8.990  19.209  0.00  0.00    +0.000 N 
ATOM     20  C   UNL     1       0.688  10.286  19.613  0.00  0.00    +0.000 A 
ATOM     21  C   UNL     1       0.370  11.275  18.691  0.00  0.00    +0.000 A 
ATOM     22  C   UNL     1       0.057  12.549  19.160  0.00  0.00    +0.000 A 
ATOM     23  C   UNL     1       0.112  12.798  20.526  0.00  0.00    +0.000 A 
ATOM     24  C   UNL     1       0.421  11.744  21.369  0.00  0.00    +0.000 A 
ATOM     25  N   UNL     1       0.663  10.485  20.945  0.00  0.00    +0.000 NA
ATOM     26  H   UNL     1       0.950   8.316  19.966  0.00  0.00    +0.000 HD
ENDBRANCH  16  18
ENDBRANCH   1  16
TORSDOF 5
ENDMDL
MODEL 8
REMARK VINA RESULT:      -8.1      2.717      7.157
REMARK  Name = 
REMARK  5 active torsions:
REMARK  status: ('A' for Active; 'I' for Inactive)
REMARK    1  A    between atoms: C_2  and  C_3
REMARK    2  A    between atoms: C_3  and  C_4
REMARK    3  A    between atoms: C_4  and  O_5
REMARK    4  A    between atoms: C_4  and  C_6
REMARK    5  A    between atoms: C_4  and  C_12
REMARK                            x       y       z     vdW  Elec       q    Type
REMARK                         _______ _______ _______ _____ _____    ______ ____
ROOT
ATOM      1  C   UNL     1       2.717   5.792  18.706  0.00  0.00    +0.000 C 
ENDROOT
BRANCH   1   2
ATOM      2  C   UNL     1       2.195   4.706  19.674  0.00  0.00    +0.000 A 
ATOM      3  C   UNL     1       2.792   4.518  20.934  0.00  0.00    +0.000 A 
ATOM      4  C   UNL     1       2.376   3.493  21.790  0.00  0.00    +0.000 A 
ATOM      5  C   UNL     1       1.357   2.630  21.404  0.00  0.00    +0.000 A 
ATOM      6  C   UNL     1       0.742   2.798  20.168  0.00  0.00    +0.000 A 
ATOM      7  C   UNL     1       1.150   3.829  19.315  0.00  0.00    +0.000 A 
ENDBRANCH   1   2
BRANCH   1   8
ATOM      8  C   UNL     1       2.234   7.205  19.072  0.00  0.00    +0.000 A 
ATOM      9  C   UNL     1       1.784   7.479  20.379  0.00  0.00    +0.000 A 
ATOM     10  C   UNL     1       1.190   8.702  20.698  0.00  0.00    +0.000 A 
ATOM     11  C   UNL     1       1.050   9.686  19.723  0.00  0.00    +0.000 A 
ATOM     12  C   UNL     1       1.540   9.462  18.441  0.00  0.00    +0.000 A 
ATOM     13  C   UNL     1       2.136   8.236  18.124  0.00  0.00    +0.000 A 
ENDBRANCH   1   8
BRANCH   1  14
ATOM     14  O   UNL     1       2.198   5.517  17.384  0.00  0.00    +0.000 OA
ATOM     15  H   UNL     1       1.744   4.658  17.424  0.00  0.00    +0.000 HD
ENDBRANCH   1  14
BRANCH   1  16
ATOM     16  C   UNL     1       4.255   5.666  18.584  0.00  0.00    +0.000 C 
BRANCH  16  18
ATOM     17  O   UNL     1       4.626   3.695  17.301  0.00  0.00    +0.000 OA
ATOM     18  C   UNL     1       4.809   4.912  17.378  0.00  0.00    +0.000 C 
ATOM     19  N   UNL     1       5.414   5.666  16.403  0.00  0.00    +0.000 N 
ATOM     20  C   UNL     1       5.923   5.130  15.219  0.00  0.00    +0.000 A 
ATOM     21  C   UNL     1       5.199   4.214  14.466  0.00  0.00    +0.000 A 
ATOM     22  C   UNL     1       5.766   3.715  13.297  0.00  0.00    +0.000 A 
ATOM     23  C   UNL     1       7.048   4.116  12.942  0.00  0.00    +0.000 A 
ATOM     24  C   UNL     1       7.685   5.048  13.745  0.00  0.00    +0.000 A 
ATOM     25  N   UNL     1       7.131   5.598  14.847  0.00  0.00    +0.000 NA
ATOM     26  H   UNL     1       5.904   6.508  16.694  0.00  0.00    +0.000 HD
ENDBRANCH  16  18
ENDBRANCH   1  16
TORSDOF 5
ENDMDL
MODEL 9
REMARK VINA RESULT:      -8.1      3.737      5.895
REMARK  Name = 
REMARK  5 active torsions:
REMARK  status: ('A' for Active; 'I' for Inactive)
REMARK    1  A    between atoms: C_2  and  C_3
REMARK    2  A    between atoms: C_3  and  C_4
REMARK    3  A    between atoms: C_4  and  O_5
REMARK    4  A    between atoms: C_4  and  C_6
REMARK    5  A    between atoms: C_4  and  C_12
REMARK                            x       y       z     vdW  Elec       q    Type
REMARK                         _______ _______ _______ _____ _____    ______ ____
ROOT
ATOM      1  C   UNL     1       3.911   5.577  18.715  0.00  0.00    +0.000 C 
ENDROOT
BRANCH   1   2
ATOM      2  C   UNL     1       3.035   4.311  18.841  0.00  0.00    +0.000 A 
ATOM      3  C   UNL     1       1.960   4.090  17.959  0.00  0.00    +0.000 A 
ATOM      4  C   UNL     1       1.115   2.984  18.106  0.00  0.00    +0.000 A 
ATOM      5  C   UNL     1       1.322   2.078  19.140  0.00  0.00    +0.000 A 
ATOM      6  C   UNL     1       2.383   2.267  20.021  0.00  0.00    +0.000 A 
ATOM      7  C   UNL     1       3.234   3.366  19.869  0.00  0.00    +0.000 A 
ENDBRANCH   1   2
BRANCH   1   8
ATOM      8  C   UNL     1       5.039   5.426  17.682  0.00  0.00    +0.000 A 
ATOM      9  C   UNL     1       4.826   5.815  16.344  0.00  0.00    +0.000 A 
ATOM     10  C   UNL     1       5.770   5.542  15.352  0.00  0.00    +0.000 A 
ATOM     11  C   UNL     1       6.957   4.892  15.677  0.00  0.00    +0.000 A 
ATOM     12  C   UNL     1       7.217   4.552  17.000  0.00  0.00    +0.000 A 
ATOM     13  C   UNL     1       6.271   4.828  17.993  0.00  0.00    +0.000 A 
ENDBRANCH   1   8
BRANCH   1  14
ATOM     14  O   UNL     1       4.558   5.816  19.987  0.00  0.00    +0.000 OA
ATOM     15  H   UNL     1       3.907   5.625  20.683  0.00  0.00    +0.000 HD
ENDBRANCH   1  14
BRANCH   1  16
ATOM     16  C   UNL     1       3.000   6.804  18.475  0.00  0.00    +0.000 C 
BRANCH  16  18
ATOM     17  O   UNL     1       1.800   6.445  20.500  0.00  0.00    +0.000 OA
ATOM     18  C   UNL     1       2.110   7.261  19.628  0.00  0.00    +0.000 C 
ATOM     19  N   UNL     1       1.776   8.592  19.661  0.00  0.00    +0.000 N 
ATOM     20  C   UNL     1       1.014   9.171  20.677  0.00  0.00    +0.000 A 
ATOM     21  C   UNL     1       1.268   8.905  22.016  0.00  0.00    +0.000 A 
ATOM     22  C   UNL     1       0.468   9.512  22.981  0.00  0.00    +0.000 A 
ATOM     23  C   UNL     1      -0.579  10.329  22.574  0.00  0.00    +0.000 A 
ATOM     24  C   UNL     1      -0.744  10.550  21.217  0.00  0.00    +0.000 A 
ATOM     25  N   UNL     1       0.059  10.027  20.265  0.00  0.00    +0.000 NA
ATOM     26  H   UNL     1       1.674   9.074  18.772  0.00  0.00    +0.000 HD
ENDBRANCH  16  18
ENDBRANCH   1  16
TORSDOF 5
ENDMDL
