MODEL 1
REMARK VINA RESULT:      -7.7      0.000      0.000
REMARK  Name = 
REMARK  7 active torsions:
REMARK  status: ('A' for Active; 'I' for Inactive)
REMARK    1  A    between atoms: C_1  and  C_2
REMARK    2  A    between atoms: C_5  and  C_6
REMARK    3  A    between atoms: C_6  and  N_7
REMARK    4  A    between atoms: C_11  and  C_13
REMARK    5  A    between atoms: C_13  and  O_14
REMARK    6  A    between atoms: O_14  and  C_15
REMARK    7  A    between atoms: C_25  and  C_26
REMARK                            x       y       z     vdW  Elec       q    Type
REMARK                         _______ _______ _______ _____ _____    ______ ____
ROOT
ATOM      1  N   UNL     1       1.697   8.811  19.282  0.00  0.00    +0.000 N 
ATOM      2  C   UNL     1       1.578   8.218  20.612  0.00  0.00    +0.000 C 
ATOM      3  C   UNL     1       1.224   6.736  20.559  0.00  0.00    +0.000 C 
ATOM      4  N   UNL     1       2.194   6.041  19.720  0.00  0.00    +0.000 N 
ATOM      5  C   UNL     1       2.815   4.903  20.206  0.00  0.00    +0.000 C 
ATOM      6  O   UNL     1       2.603   4.486  21.347  0.00  0.00    +0.000 OA
ATOM      7  C   UNL     1       2.292   6.562  18.356  0.00  0.00    +0.000 C 
ATOM      8  C   UNL     1       2.240   8.098  18.221  0.00  0.00    +0.000 C 
ATOM      9  O   UNL     1       2.560   8.631  17.155  0.00  0.00    +0.000 OA
ENDROOT
BRANCH   1  10
ATOM     10  C   UNL     1       1.405  10.233  19.126  0.00  0.00    +0.000 C 
BRANCH  10  15
ATOM     11  C   UNL     1      -4.175  11.292  17.768  0.00  0.00    +0.000 C 
ATOM     12  C   UNL     1      -2.758  10.990  18.177  0.00  0.00    +0.000 A 
ATOM     13  C   UNL     1      -2.018  10.047  17.449  0.00  0.00    +0.000 A 
ATOM     14  C   UNL     1      -0.687   9.775  17.772  0.00  0.00    +0.000 A 
ATOM     15  C   UNL     1      -0.062  10.447  18.826  0.00  0.00    +0.000 A 
ATOM     16  C   UNL     1      -0.807  11.374  19.571  0.00  0.00    +0.000 A 
ATOM     17  C   UNL     1      -2.154  11.642  19.270  0.00  0.00    +0.000 A 
ATOM     18  C   UNL     1      -2.917  12.624  20.116  0.00  0.00    +0.000 C 
ENDBRANCH  10  15
ENDBRANCH   1  10
BRANCH   5  19
ATOM     19  C   UNL     1       3.822   4.178  19.313  0.00  0.00    +0.000 C 
BRANCH  19  20
ATOM     20  O   UNL     1       4.998   4.956  19.135  0.00  0.00    +0.000 OA
BRANCH  20  21
ATOM     21  C   UNL     1       5.603   4.850  17.913  0.00  0.00    +0.000 A 
ATOM     22  C   UNL     1       4.958   4.857  16.678  0.00  0.00    +0.000 A 
ATOM     23  C   UNL     1       5.700   4.702  15.508  0.00  0.00    +0.000 A 
ATOM     24  C   UNL     1       7.073   4.549  15.610  0.00  0.00    +0.000 A 
ATOM     25  N   UNL     1       7.735   4.547  16.785  0.00  0.00    +0.000 NA
ATOM     26  C   UNL     1       6.985   4.697  17.907  0.00  0.00    +0.000 A 
ENDBRANCH  20  21
ENDBRANCH  19  20
ENDBRANCH   5  19
TORSDOF 5
ENDMDL
MODEL 2
REMARK VINA RESULT:      -7.6      0.463      1.378
REMARK  Name = 
REMARK  7 active torsions:
REMARK  status: ('A' for Active; 'I' for Inactive)
REMARK    1  A    between atoms: C_1  and  C_2
REMARK    2  A    between atoms: C_5  and  C_6
REMARK    3  A    between atoms: C_6  and  N_7
REMARK    4  A    between atoms: C_11  and  C_13
REMARK    5  A    between atoms: C_13  and  O_14
REMARK    6  A    between atoms: O_14  and  C_15
REMARK    7  A    between atoms: C_25  and  C_26
REMARK                            x       y       z     vdW  Elec       q    Type
REMARK                         _______ _______ _______ _____ _____    ______ ____
ROOT
ATOM      1  N   UNL     1       1.828   8.793  19.207  0.00  0.00    +0.000 N 
ATOM      2  C   UNL     1       1.671   8.270  20.562  0.00  0.00    +0.000 C 
ATOM      3  C   UNL     1       1.192   6.822  20.575  0.00  0.00    +0.000 C 
ATOM      4  N   UNL     1       2.092   6.012  19.761  0.00  0.00    +0.000 N 
ATOM      5  C   UNL     1       2.618   4.847  20.293  0.00  0.00    +0.000 C 
ATOM      6  O   UNL     1       2.381   4.498  21.452  0.00  0.00    +0.000 OA
ATOM      7  C   UNL     1       2.222   6.464  18.376  0.00  0.00    +0.000 C 
ATOM      8  C   UNL     1       2.300   7.992  18.175  0.00  0.00    +0.000 C 
ATOM      9  O   UNL     1       2.654   8.450  17.086  0.00  0.00    +0.000 OA
ENDROOT
BRANCH   1  10
ATOM     10  C   UNL     1       1.657  10.227  18.992  0.00  0.00    +0.000 C 
BRANCH  10  15
ATOM     11  C   UNL     1      -4.052  11.275  18.360  0.00  0.00    +0.000 C 
ATOM     12  C   UNL     1      -2.569  11.043  18.467  0.00  0.00    +0.000 A 
ATOM     13  C   UNL     1      -1.861  11.598  19.542  0.00  0.00    +0.000 A 
ATOM     14  C   UNL     1      -0.493  11.366  19.698  0.00  0.00    +0.000 A 
ATOM     15  C   UNL     1       0.199  10.565  18.784  0.00  0.00    +0.000 A 
ATOM     16  C   UNL     1      -0.503  10.028  17.694  0.00  0.00    +0.000 A 
ATOM     17  C   UNL     1      -1.875  10.271  17.514  0.00  0.00    +0.000 A 
ATOM     18  C   UNL     1      -2.575   9.694  16.314  0.00  0.00    +0.000 C 
ENDBRANCH  10  15
ENDBRANCH   1  10
BRANCH   5  19
ATOM     19  C   UNL     1       3.551   4.000  19.427  0.00  0.00    +0.000 C 
BRANCH  19  20
ATOM     20  O   UNL     1       4.848   4.579  19.360  0.00  0.00    +0.000 OA
BRANCH  20  21
ATOM     21  C   UNL     1       5.464   4.519  18.141  0.00  0.00    +0.000 A 
ATOM     22  C   UNL     1       4.858   4.179  16.933  0.00  0.00    +0.000 A 
ATOM     23  C   UNL     1       5.620   4.122  15.767  0.00  0.00    +0.000 A 
ATOM     24  C   UNL     1       6.971   4.412  15.845  0.00  0.00    +0.000 A 
ATOM     25  N   UNL     1       7.594   4.755  16.991  0.00  0.00    +0.000 NA
ATOM     26  C   UNL     1       6.826   4.800  18.110  0.00  0.00    +0.000 A 
ENDBRANCH  20  21
ENDBRANCH  19  20
ENDBRANCH   5  19
TORSDOF 5
ENDMDL
MODEL 3
REMARK VINA RESULT:      -7.4      3.349      9.421
REMARK  Name = 
REMARK  7 active torsions:
REMARK  status: ('A' for Active; 'I' for Inactive)
REMARK    1  A    between atoms: C_1  and  C_2
REMARK    2  A    between atoms: C_5  and  C_6
REMARK    3  A    between atoms: C_6  and  N_7
REMARK    4  A    between atoms: C_11  and  C_13
REMARK    5  A    between atoms: C_13  and  O_14
REMARK    6  A    between atoms: O_14  and  C_15
REMARK    7  A    between atoms: C_25  and  C_26
REMARK                            x       y       z     vdW  Elec       q    Type
REMARK                         _______ _______ _______ _____ _____    ______ ____
ROOT
ATOM      1  N   UNL     1       1.714   8.534  19.379  0.00  0.00    +0.000 N 
ATOM      2  C   UNL     1       1.381   9.276  18.165  0.00  0.00    +0.000 C 
ATOM      3  C   UNL     1      -0.101   9.626  18.085  0.00  0.00    +0.000 C 
ATOM      4  N   UNL     1      -0.493  10.333  19.300  0.00  0.00    +0.000 N 
ATOM      5  C   UNL     1      -1.176  11.532  19.192  0.00  0.00    +0.000 C 
ATOM      6  O   UNL     1      -1.424  12.041  18.097  0.00  0.00    +0.000 OA
ATOM      7  C   UNL     1      -0.239   9.591  20.536  0.00  0.00    +0.000 C 
ATOM      8  C   UNL     1       1.094   8.818  20.590  0.00  0.00    +0.000 C 
ATOM      9  O   UNL     1       1.503   8.374  21.666  0.00  0.00    +0.000 OA
ENDROOT
BRANCH   1  10
ATOM     10  C   UNL     1       2.845   7.612  19.341  0.00  0.00    +0.000 C 
BRANCH  10  15
ATOM     11  C   UNL     1       0.701   2.220  18.696  0.00  0.00    +0.000 C 
ATOM     12  C   UNL     1       1.312   3.581  18.885  0.00  0.00    +0.000 A 
ATOM     13  C   UNL     1       1.576   4.378  17.762  0.00  0.00    +0.000 A 
ATOM     14  C   UNL     1       2.102   5.665  17.901  0.00  0.00    +0.000 A 
ATOM     15  C   UNL     1       2.367   6.188  19.170  0.00  0.00    +0.000 A 
ATOM     16  C   UNL     1       2.126   5.383  20.294  0.00  0.00    +0.000 A 
ATOM     17  C   UNL     1       1.618   4.079  20.167  0.00  0.00    +0.000 A 
ATOM     18  C   UNL     1       1.402   3.248  21.402  0.00  0.00    +0.000 C 
ENDBRANCH  10  15
ENDBRANCH   1  10
BRANCH   5  19
ATOM     19  C   UNL     1      -1.591  12.258  20.472  0.00  0.00    +0.000 C 
BRANCH  19  20
ATOM     20  O   UNL     1      -2.969  12.606  20.436  0.00  0.00    +0.000 OA
BRANCH  20  21
ATOM     21  C   UNL     1      -3.604  12.648  21.646  0.00  0.00    +0.000 A 
ATOM     22  C   UNL     1      -2.986  12.650  22.895  0.00  0.00    +0.000 A 
ATOM     23  C   UNL     1      -3.762  12.659  24.053  0.00  0.00    +0.000 A 
ATOM     24  C   UNL     1      -5.141  12.670  23.926  0.00  0.00    +0.000 A 
ATOM     25  N   UNL     1      -5.777  12.679  22.737  0.00  0.00    +0.000 NA
ATOM     26  C   UNL     1      -4.995  12.668  21.627  0.00  0.00    +0.000 A 
ENDBRANCH  20  21
ENDBRANCH  19  20
ENDBRANCH   5  19
TORSDOF 5
ENDMDL
MODEL 4
REMARK VINA RESULT:      -7.3      2.970      7.970
REMARK  Name = 
REMARK  7 active torsions:
REMARK  status: ('A' for Active; 'I' for Inactive)
REMARK    1  A    between atoms: C_1  and  C_2
REMARK    2  A    between atoms: C_5  and  C_6
REMARK    3  A    between atoms: C_6  and  N_7
REMARK    4  A    between atoms: C_11  and  C_13
REMARK    5  A    between atoms: C_13  and  O_14
REMARK    6  A    between atoms: O_14  and  C_15
REMARK    7  A    between atoms: C_25  and  C_26
REMARK                            x       y       z     vdW  Elec       q    Type
REMARK                         _______ _______ _______ _____ _____    ______ ____
ROOT
ATOM      1  N   UNL     1       2.315   8.146  19.298  0.00  0.00    +0.000 N 
ATOM      2  C   UNL     1       1.654   8.089  20.599  0.00  0.00    +0.000 C 
ATOM      3  C   UNL     1       1.275   9.471  21.122  0.00  0.00    +0.000 C 
ATOM      4  N   UNL     1       0.474  10.160  20.115  0.00  0.00    +0.000 N 
ATOM      5  C   UNL     1      -0.731  10.732  20.487  0.00  0.00    +0.000 C 
ATOM      6  O   UNL     1      -1.167  10.636  21.637  0.00  0.00    +0.000 OA
ATOM      7  C   UNL     1       1.131  10.299  18.815  0.00  0.00    +0.000 C 
ATOM      8  C   UNL     1       1.931   9.072  18.335  0.00  0.00    +0.000 C 
ATOM      9  O   UNL     1       2.306   9.004  17.162  0.00  0.00    +0.000 OA
ENDROOT
BRANCH   1  10
ATOM     10  C   UNL     1       3.264   7.092  18.954  0.00  0.00    +0.000 C 
BRANCH  10  15
ATOM     11  C   UNL     1       0.382   2.016  19.078  0.00  0.00    +0.000 C 
ATOM     12  C   UNL     1       1.182   3.290  19.060  0.00  0.00    +0.000 A 
ATOM     13  C   UNL     1       1.343   3.985  17.852  0.00  0.00    +0.000 A 
ATOM     14  C   UNL     1       2.042   5.193  17.806  0.00  0.00    +0.000 A 
ATOM     15  C   UNL     1       2.589   5.740  18.971  0.00  0.00    +0.000 A 
ATOM     16  C   UNL     1       2.450   5.034  20.176  0.00  0.00    +0.000 A 
ATOM     17  C   UNL     1       1.768   3.807  20.232  0.00  0.00    +0.000 A 
ATOM     18  C   UNL     1       1.670   3.077  21.544  0.00  0.00    +0.000 C 
ENDBRANCH  10  15
ENDBRANCH   1  10
BRANCH   5  19
ATOM     19  C   UNL     1      -1.556  11.461  19.426  0.00  0.00    +0.000 C 
BRANCH  19  20
ATOM     20  O   UNL     1      -2.706  10.706  19.069  0.00  0.00    +0.000 OA
BRANCH  20  21
ATOM     21  C   UNL     1      -2.948  10.589  17.728  0.00  0.00    +0.000 A 
ATOM     22  C   UNL     1      -2.206   9.828  16.827  0.00  0.00    +0.000 A 
ATOM     23  C   UNL     1      -2.546   9.830  15.474  0.00  0.00    +0.000 A 
ATOM     24  C   UNL     1      -3.625  10.593  15.064  0.00  0.00    +0.000 A 
ATOM     25  N   UNL     1      -4.374  11.335  15.905  0.00  0.00    +0.000 NA
ATOM     26  C   UNL     1      -4.018  11.315  17.215  0.00  0.00    +0.000 A 
ENDBRANCH  20  21
ENDBRANCH  19  20
ENDBRANCH   5  19
TORSDOF 5
ENDMDL
MODEL 5
REMARK VINA RESULT:      -7.2      2.232      3.324
REMARK  Name = 
REMARK  7 active torsions:
REMARK  status: ('A' for Active; 'I' for Inactive)
REMARK    1  A    between atoms: C_1  and  C_2
REMARK    2  A    between atoms: C_5  and  C_6
REMARK    3  A    between atoms: C_6  and  N_7
REMARK    4  A    between atoms: C_11  and  C_13
REMARK    5  A    between atoms: C_13  and  O_14
REMARK    6  A    between atoms: O_14  and  C_15
REMARK    7  A    between atoms: C_25  and  C_26
REMARK                            x       y       z     vdW  Elec       q    Type
REMARK                         _______ _______ _______ _____ _____    ______ ____
ROOT
ATOM      1  N   UNL     1       0.627  11.225  20.670  0.00  0.00    +0.000 N 
ATOM      2  C   UNL     1       0.829  10.049  21.512  0.00  0.00    +0.000 C 
ATOM      3  C   UNL     1       0.579   8.745  20.762  0.00  0.00    +0.000 C 
ATOM      4  N   UNL     1       1.402   8.720  19.557  0.00  0.00    +0.000 N 
ATOM      5  C   UNL     1       2.191   7.612  19.301  0.00  0.00    +0.000 C 
ATOM      6  O   UNL     1       2.250   6.663  20.086  0.00  0.00    +0.000 OA
ATOM      7  C   UNL     1       1.178   9.848  18.652  0.00  0.00    +0.000 C 
ATOM      8  C   UNL     1       0.990  11.222  19.328  0.00  0.00    +0.000 C 
ATOM      9  O   UNL     1       1.042  12.251  18.651  0.00  0.00    +0.000 OA
ENDROOT
BRANCH   1  10
ATOM     10  C   UNL     1       0.208  12.471  21.304  0.00  0.00    +0.000 C 
BRANCH  10  15
ATOM     11  C   UNL     1      -5.580  12.956  21.902  0.00  0.00    +0.000 C 
ATOM     12  C   UNL     1      -4.093  12.766  21.769  0.00  0.00    +0.000 A 
ATOM     13  C   UNL     1      -3.507  12.797  20.495  0.00  0.00    +0.000 A 
ATOM     14  C   UNL     1      -2.125  12.669  20.337  0.00  0.00    +0.000 A 
ATOM     15  C   UNL     1      -1.296  12.515  21.452  0.00  0.00    +0.000 A 
ATOM     16  C   UNL     1      -1.883  12.460  22.726  0.00  0.00    +0.000 A 
ATOM     17  C   UNL     1      -3.274  12.567  22.897  0.00  0.00    +0.000 A 
ATOM     18  C   UNL     1      -3.855  12.474  24.281  0.00  0.00    +0.000 C 
ENDBRANCH  10  15
ENDBRANCH   1  10
BRANCH   5  19
ATOM     19  C   UNL     1       3.040   7.593  18.030  0.00  0.00    +0.000 C 
BRANCH  19  20
ATOM     20  O   UNL     1       3.595   6.303  17.808  0.00  0.00    +0.000 OA
BRANCH  20  21
ATOM     21  C   UNL     1       4.948   6.199  17.976  0.00  0.00    +0.000 A 
ATOM     22  C   UNL     1       5.917   6.889  17.251  0.00  0.00    +0.000 A 
ATOM     23  C   UNL     1       7.268   6.657  17.506  0.00  0.00    +0.000 A 
ATOM     24  C   UNL     1       7.610   5.740  18.485  0.00  0.00    +0.000 A 
ATOM     25  N   UNL     1       6.703   5.060  19.215  0.00  0.00    +0.000 NA
ATOM     26  C   UNL     1       5.395   5.305  18.943  0.00  0.00    +0.000 A 
ENDBRANCH  20  21
ENDBRANCH  19  20
ENDBRANCH   5  19
TORSDOF 5
ENDMDL
MODEL 6
REMARK VINA RESULT:      -7.2      1.112      1.194
REMARK  Name = 
REMARK  7 active torsions:
REMARK  status: ('A' for Active; 'I' for Inactive)
REMARK    1  A    between atoms: C_1  and  C_2
REMARK    2  A    between atoms: C_5  and  C_6
REMARK    3  A    between atoms: C_6  and  N_7
REMARK    4  A    between atoms: C_11  and  C_13
REMARK    5  A    between atoms: C_13  and  O_14
REMARK    6  A    between atoms: O_14  and  C_15
REMARK    7  A    between atoms: C_25  and  C_26
REMARK                            x       y       z     vdW  Elec       q    Type
REMARK                         _______ _______ _______ _____ _____    ______ ____
ROOT
ATOM      1  N   UNL     1       1.354   9.488  19.395  0.00  0.00    +0.000 N 
ATOM      2  C   UNL     1       1.294   8.574  20.532  0.00  0.00    +0.000 C 
ATOM      3  C   UNL     1       1.298   7.110  20.104  0.00  0.00    +0.000 C 
ATOM      4  N   UNL     1       2.454   6.865  19.247  0.00  0.00    +0.000 N 
ATOM      5  C   UNL     1       3.291   5.799  19.531  0.00  0.00    +0.000 C 
ATOM      6  O   UNL     1       3.111   5.078  20.516  0.00  0.00    +0.000 OA
ATOM      7  C   UNL     1       2.513   7.716  18.058  0.00  0.00    +0.000 C 
ATOM      8  C   UNL     1       2.114   9.190  18.270  0.00  0.00    +0.000 C 
ATOM      9  O   UNL     1       2.366  10.026  17.398  0.00  0.00    +0.000 OA
ENDROOT
BRANCH   1  10
ATOM     10  C   UNL     1       0.750  10.810  19.533  0.00  0.00    +0.000 C 
BRANCH  10  15
ATOM     11  C   UNL     1      -4.667  11.013  17.364  0.00  0.00    +0.000 C 
ATOM     12  C   UNL     1      -3.296  10.932  17.979  0.00  0.00    +0.000 A 
ATOM     13  C   UNL     1      -2.340  10.073  17.419  0.00  0.00    +0.000 A 
ATOM     14  C   UNL     1      -1.045  10.005  17.936  0.00  0.00    +0.000 A 
ATOM     15  C   UNL     1      -0.673  10.802  19.023  0.00  0.00    +0.000 A 
ATOM     16  C   UNL     1      -1.635  11.645  19.601  0.00  0.00    +0.000 A 
ATOM     17  C   UNL     1      -2.948  11.707  19.103  0.00  0.00    +0.000 A 
ATOM     18  C   UNL     1      -3.949  12.607  19.775  0.00  0.00    +0.000 C 
ENDBRANCH  10  15
ENDBRANCH   1  10
BRANCH   5  19
ATOM     19  C   UNL     1       4.492   5.546  18.620  0.00  0.00    +0.000 C 
BRANCH  19  20
ATOM     20  O   UNL     1       4.071   5.133  17.327  0.00  0.00    +0.000 OA
BRANCH  20  21
ATOM     21  C   UNL     1       5.064   4.980  16.398  0.00  0.00    +0.000 A 
ATOM     22  C   UNL     1       5.124   3.989  15.420  0.00  0.00    +0.000 A 
ATOM     23  C   UNL     1       6.219   3.931  14.560  0.00  0.00    +0.000 A 
ATOM     24  C   UNL     1       7.223   4.873  14.701  0.00  0.00    +0.000 A 
ATOM     25  N   UNL     1       7.198   5.853  15.627  0.00  0.00    +0.000 NA
ATOM     26  C   UNL     1       6.120   5.883  16.453  0.00  0.00    +0.000 A 
ENDBRANCH  20  21
ENDBRANCH  19  20
ENDBRANCH   5  19
TORSDOF 5
ENDMDL
MODEL 7
REMARK VINA RESULT:      -7.1      1.215      1.871
REMARK  Name = 
REMARK  7 active torsions:
REMARK  status: ('A' for Active; 'I' for Inactive)
REMARK    1  A    between atoms: C_1  and  C_2
REMARK    2  A    between atoms: C_5  and  C_6
REMARK    3  A    between atoms: C_6  and  N_7
REMARK    4  A    between atoms: C_11  and  C_13
REMARK    5  A    between atoms: C_13  and  O_14
REMARK    6  A    between atoms: O_14  and  C_15
REMARK    7  A    between atoms: C_25  and  C_26
REMARK                            x       y       z     vdW  Elec       q    Type
REMARK                         _______ _______ _______ _____ _____    ______ ____
ROOT
ATOM      1  N   UNL     1       1.295   9.855  19.400  0.00  0.00    +0.000 N 
ATOM      2  C   UNL     1       1.164   8.880  20.480  0.00  0.00    +0.000 C 
ATOM      3  C   UNL     1       1.155   7.443  19.969  0.00  0.00    +0.000 C 
ATOM      4  N   UNL     1       2.343   7.218  19.151  0.00  0.00    +0.000 N 
ATOM      5  C   UNL     1       3.143   6.118  19.410  0.00  0.00    +0.000 C 
ATOM      6  O   UNL     1       2.904   5.348  20.343  0.00  0.00    +0.000 OA
ATOM      7  C   UNL     1       2.473   8.133  18.016  0.00  0.00    +0.000 C 
ATOM      8  C   UNL     1       2.097   9.602  18.294  0.00  0.00    +0.000 C 
ATOM      9  O   UNL     1       2.406  10.479  17.483  0.00  0.00    +0.000 OA
ENDROOT
BRANCH   1  10
ATOM     10  C   UNL     1       0.714  11.181  19.587  0.00  0.00    +0.000 C 
BRANCH  10  15
ATOM     11  C   UNL     1      -4.816  11.098  17.713  0.00  0.00    +0.000 C 
ATOM     12  C   UNL     1      -3.374  11.153  18.138  0.00  0.00    +0.000 A 
ATOM     13  C   UNL     1      -3.013  11.930  19.249  0.00  0.00    +0.000 A 
ATOM     14  C   UNL     1      -1.692  11.969  19.699  0.00  0.00    +0.000 A 
ATOM     15  C   UNL     1      -0.701  11.224  19.054  0.00  0.00    +0.000 A 
ATOM     16  C   UNL     1      -1.054  10.464  17.928  0.00  0.00    +0.000 A 
ATOM     17  C   UNL     1      -2.376  10.433  17.452  0.00  0.00    +0.000 A 
ATOM     18  C   UNL     1      -2.699   9.624  16.224  0.00  0.00    +0.000 C 
ENDBRANCH  10  15
ENDBRANCH   1  10
BRANCH   5  19
ATOM     19  C   UNL     1       4.378   5.887  18.539  0.00  0.00    +0.000 C 
BRANCH  19  20
ATOM     20  O   UNL     1       4.076   5.034  17.443  0.00  0.00    +0.000 OA
BRANCH  20  21
ATOM     21  C   UNL     1       5.045   4.930  16.485  0.00  0.00    +0.000 A 
ATOM     22  C   UNL     1       5.020   4.074  15.386  0.00  0.00    +0.000 A 
ATOM     23  C   UNL     1       6.100   4.046  14.504  0.00  0.00    +0.000 A 
ATOM     24  C   UNL     1       7.175   4.884  14.748  0.00  0.00    +0.000 A 
ATOM     25  N   UNL     1       7.234   5.733  15.793  0.00  0.00    +0.000 NA
ATOM     26  C   UNL     1       6.169   5.736  16.636  0.00  0.00    +0.000 A 
ENDBRANCH  20  21
ENDBRANCH  19  20
ENDBRANCH   5  19
TORSDOF 5
ENDMDL
MODEL 8
REMARK VINA RESULT:      -7.0      2.945      8.895
REMARK  Name = 
REMARK  7 active torsions:
REMARK  status: ('A' for Active; 'I' for Inactive)
REMARK    1  A    between atoms: C_1  and  C_2
REMARK    2  A    between atoms: C_5  and  C_6
REMARK    3  A    between atoms: C_6  and  N_7
REMARK    4  A    between atoms: C_11  and  C_13
REMARK    5  A    between atoms: C_13  and  O_14
REMARK    6  A    between atoms: O_14  and  C_15
REMARK    7  A    between atoms: C_25  and  C_26
REMARK                            x       y       z     vdW  Elec       q    Type
REMARK                         _______ _______ _______ _____ _____    ______ ____
ROOT
ATOM      1  N   UNL     1       2.291   8.070  19.345  0.00  0.00    +0.000 N 
ATOM      2  C   UNL     1       1.540   8.218  20.590  0.00  0.00    +0.000 C 
ATOM      3  C   UNL     1       1.095   9.655  20.835  0.00  0.00    +0.000 C 
ATOM      4  N   UNL     1       0.353  10.132  19.672  0.00  0.00    +0.000 N 
ATOM      5  C   UNL     1      -0.887  10.719  19.857  0.00  0.00    +0.000 C 
ATOM      6  O   UNL     1      -1.402  10.810  20.974  0.00  0.00    +0.000 OA
ATOM      7  C   UNL     1       1.098  10.066  18.414  0.00  0.00    +0.000 C 
ATOM      8  C   UNL     1       1.957   8.801  18.212  0.00  0.00    +0.000 C 
ATOM      9  O   UNL     1       2.416   8.543  17.096  0.00  0.00    +0.000 OA
ENDROOT
BRANCH   1  10
ATOM     10  C   UNL     1       3.285   7.005  19.255  0.00  0.00    +0.000 C 
BRANCH  10  15
ATOM     11  C   UNL     1       0.409   1.936  18.909  0.00  0.00    +0.000 C 
ATOM     12  C   UNL     1       1.206   3.207  19.013  0.00  0.00    +0.000 A 
ATOM     13  C   UNL     1       1.435   3.973  17.861  0.00  0.00    +0.000 A 
ATOM     14  C   UNL     1       2.133   5.180  17.927  0.00  0.00    +0.000 A 
ATOM     15  C   UNL     1       2.612   5.655  19.152  0.00  0.00    +0.000 A 
ATOM     16  C   UNL     1       2.406   4.878  20.303  0.00  0.00    +0.000 A 
ATOM     17  C   UNL     1       1.723   3.651  20.246  0.00  0.00    +0.000 A 
ATOM     18  C   UNL     1       1.552   2.844  21.504  0.00  0.00    +0.000 C 
ENDBRANCH  10  15
ENDBRANCH   1  10
BRANCH   5  19
ATOM     19  C   UNL     1      -1.650  11.225  18.632  0.00  0.00    +0.000 C 
BRANCH  19  20
ATOM     20  O   UNL     1      -2.551  12.265  18.987  0.00  0.00    +0.000 OA
BRANCH  20  21
ATOM     21  C   UNL     1      -3.879  11.946  18.934  0.00  0.00    +0.000 A 
ATOM     22  C   UNL     1      -4.492  11.151  17.967  0.00  0.00    +0.000 A 
ATOM     23  C   UNL     1      -5.868  10.938  18.015  0.00  0.00    +0.000 A 
ATOM     24  C   UNL     1      -6.594  11.527  19.037  0.00  0.00    +0.000 A 
ATOM     25  N   UNL     1      -6.039  12.294  19.997  0.00  0.00    +0.000 NA
ATOM     26  C   UNL     1      -4.696  12.485  19.922  0.00  0.00    +0.000 A 
ENDBRANCH  20  21
ENDBRANCH  19  20
ENDBRANCH   5  19
TORSDOF 5
ENDMDL
MODEL 9
REMARK VINA RESULT:      -6.9      3.229      8.454
REMARK  Name = 
REMARK  7 active torsions:
REMARK  status: ('A' for Active; 'I' for Inactive)
REMARK    1  A    between atoms: C_1  and  C_2
REMARK    2  A    between atoms: C_5  and  C_6
REMARK    3  A    between atoms: C_6  and  N_7
REMARK    4  A    between atoms: C_11  and  C_13
REMARK    5  A    between atoms: C_13  and  O_14
REMARK    6  A    between atoms: O_14  and  C_15
REMARK    7  A    between atoms: C_25  and  C_26
REMARK                            x       y       z     vdW  Elec       q    Type
REMARK                         _______ _______ _______ _____ _____    ______ ____
ROOT
ATOM      1  N   UNL     1       1.729   8.496  19.323  0.00  0.00    +0.000 N 
ATOM      2  C   UNL     1       1.420   9.184  18.071  0.00  0.00    +0.000 C 
ATOM      3  C   UNL     1      -0.057   9.545  17.955  0.00  0.00    +0.000 C 
ATOM      4  N   UNL     1      -0.457  10.312  19.130  0.00  0.00    +0.000 N 
ATOM      5  C   UNL     1      -1.125  11.512  18.958  0.00  0.00    +0.000 C 
ATOM      6  O   UNL     1      -1.353  11.973  17.837  0.00  0.00    +0.000 OA
ATOM      7  C   UNL     1      -0.227   9.627  20.402  0.00  0.00    +0.000 C 
ATOM      8  C   UNL     1       1.096   8.842  20.510  0.00  0.00    +0.000 C 
ATOM      9  O   UNL     1       1.486   8.445  21.611  0.00  0.00    +0.000 OA
ENDROOT
BRANCH   1  10
ATOM     10  C   UNL     1       2.850   7.561  19.344  0.00  0.00    +0.000 C 
BRANCH  10  15
ATOM     11  C   UNL     1       0.670   2.181  18.721  0.00  0.00    +0.000 C 
ATOM     12  C   UNL     1       1.290   3.539  18.903  0.00  0.00    +0.000 A 
ATOM     13  C   UNL     1       1.553   4.332  17.777  0.00  0.00    +0.000 A 
ATOM     14  C   UNL     1       2.087   5.616  17.911  0.00  0.00    +0.000 A 
ATOM     15  C   UNL     1       2.362   6.140  19.178  0.00  0.00    +0.000 A 
ATOM     16  C   UNL     1       2.122   5.339  20.305  0.00  0.00    +0.000 A 
ATOM     17  C   UNL     1       1.605   4.038  20.183  0.00  0.00    +0.000 A 
ATOM     18  C   UNL     1       1.391   3.210  21.421  0.00  0.00    +0.000 C 
ENDBRANCH  10  15
ENDBRANCH   1  10
BRANCH   5  19
ATOM     19  C   UNL     1      -1.549  12.301  20.197  0.00  0.00    +0.000 C 
BRANCH  19  20
ATOM     20  O   UNL     1      -0.442  12.987  20.767  0.00  0.00    +0.000 OA
BRANCH  20  21
ATOM     21  C   UNL     1      -0.027  14.106  20.100  0.00  0.00    +0.000 A 
ATOM     22  C   UNL     1      -0.839  15.164  19.694  0.00  0.00    +0.000 A 
ATOM     23  C   UNL     1      -0.285  16.230  18.986  0.00  0.00    +0.000 A 
ATOM     24  C   UNL     1       1.071  16.207  18.709  0.00  0.00    +0.000 A 
ATOM     25  N   UNL     1       1.892  15.208  19.093  0.00  0.00    +0.000 NA
ATOM     26  C   UNL     1       1.324  14.183  19.779  0.00  0.00    +0.000 A 
ENDBRANCH  20  21
ENDBRANCH  19  20
ENDBRANCH   5  19
TORSDOF 5
ENDMDL
