MODEL 1
REMARK VINA RESULT:      -6.8      0.000      0.000
REMARK  Name = 
REMARK  4 active torsions:
REMARK  status: ('A' for Active; 'I' for Inactive)
REMARK    1  A    between atoms: C_2  and  O_3
REMARK    2  A    between atoms: C_2  and  C_4
REMARK    3  A    between atoms: C_4  and  N_5
REMARK    4  A    between atoms: C_9  and  C_10
REMARK                            x       y       z     vdW  Elec       q    Type
REMARK                         _______ _______ _______ _____ _____    ______ ____
ROOT
ATOM      1  N   UNL     1       3.397   3.894  19.606  0.00  0.00    +0.000 N 
ATOM      2  C   UNL     1       3.660   5.023  18.855  0.00  0.00    +0.000 C 
ATOM      3  O   UNL     1       4.619   5.156  18.108  0.00  0.00    +0.000 OA
ATOM      4  C   UNL     1       2.694   6.103  19.181  0.00  0.00    +0.000 C 
ATOM      5  C   UNL     1       2.765   7.325  18.641  0.00  0.00    +0.000 C 
ATOM      6  S   UNL     1       1.573   5.544  20.358  0.00  0.00    +0.000 S 
ATOM      7  C   UNL     1       2.366   3.987  20.519  0.00  0.00    +0.000 C 
ATOM      8  S   UNL     1       1.890   2.860  21.650  0.00  0.00    +0.000 S 
ENDROOT
BRANCH   5   9
ATOM      9  C   UNL     1       1.845   8.414  18.982  0.00  0.00    +0.000 A 
ATOM     10  C   UNL     1       1.509   8.660  20.319  0.00  0.00    +0.000 A 
ATOM     11  C   UNL     1       0.560   9.635  20.636  0.00  0.00    +0.000 A 
ATOM     12  C   UNL     1      -0.049  10.363  19.616  0.00  0.00    +0.000 A 
ATOM     13 BR   UNL     1      -1.363  11.655  20.040  0.00  0.00    +0.000 Br
ATOM     14  C   UNL     1       0.291  10.136  18.284  0.00  0.00    +0.000 A 
ATOM     15  C   UNL     1       1.240   9.161  17.967  0.00  0.00    +0.000 A 
ENDBRANCH   5   9
BRANCH   1  16
ATOM     16  C   UNL     1       4.199   2.681  19.405  0.00  0.00    +0.000 C 
BRANCH  16  18
ATOM     17  O   UNL     1       2.637   1.959  17.710  0.00  0.00    +0.000 OA
ATOM     18  C   UNL     1       3.573   1.678  18.446  0.00  0.00    +0.000 C 
BRANCH  18  19
ATOM     19  O   UNL     1       4.191   0.478  18.371  0.00  0.00    +0.000 OA
ATOM     20  H   UNL     1       3.945  -0.055  17.593  0.00  0.00    +0.000 HD
ENDBRANCH  18  19
ENDBRANCH  16  18
ENDBRANCH   1  16
TORSDOF 4
ENDMDL
MODEL 2
REMARK VINA RESULT:      -6.7      0.254      1.138
REMARK  Name = 
REMARK  4 active torsions:
REMARK  status: ('A' for Active; 'I' for Inactive)
REMARK    1  A    between atoms: C_2  and  O_3
REMARK    2  A    between atoms: C_2  and  C_4
REMARK    3  A    between atoms: C_4  and  N_5
REMARK    4  A    between atoms: C_9  and  C_10
REMARK                            x       y       z     vdW  Elec       q    Type
REMARK                         _______ _______ _______ _____ _____    ______ ____
ROOT
ATOM      1  N   UNL     1       3.395   4.018  19.506  0.00  0.00    +0.000 N 
ATOM      2  C   UNL     1       3.574   5.168  18.762  0.00  0.00    +0.000 C 
ATOM      3  O   UNL     1       4.480   5.347  17.961  0.00  0.00    +0.000 OA
ATOM      4  C   UNL     1       2.595   6.209  19.166  0.00  0.00    +0.000 C 
ATOM      5  C   UNL     1       2.592   7.442  18.646  0.00  0.00    +0.000 C 
ATOM      6  S   UNL     1       1.567   5.593  20.399  0.00  0.00    +0.000 S 
ATOM      7  C   UNL     1       2.419   4.061  20.482  0.00  0.00    +0.000 C 
ATOM      8  S   UNL     1       2.052   2.900  21.618  0.00  0.00    +0.000 S 
ENDROOT
BRANCH   5   9
ATOM      9  C   UNL     1       1.659   8.493  19.063  0.00  0.00    +0.000 A 
ATOM     10  C   UNL     1       1.063   9.325  18.107  0.00  0.00    +0.000 A 
ATOM     11  C   UNL     1       0.248  10.386  18.511  0.00  0.00    +0.000 A 
ATOM     12  C   UNL     1       0.030  10.611  19.870  0.00  0.00    +0.000 A 
ATOM     13 BR   UNL     1      -1.038  12.071  20.419  0.00  0.00    +0.000 Br
ATOM     14  C   UNL     1       0.606   9.778  20.826  0.00  0.00    +0.000 A 
ATOM     15  C   UNL     1       1.421   8.717  20.423  0.00  0.00    +0.000 A 
ENDBRANCH   5   9
BRANCH   1  16
ATOM     16  C   UNL     1       4.223   2.838  19.234  0.00  0.00    +0.000 C 
BRANCH  16  18
ATOM     17  O   UNL     1       2.597   2.055  17.629  0.00  0.00    +0.000 OA
ATOM     18  C   UNL     1       3.542   1.792  18.361  0.00  0.00    +0.000 C 
BRANCH  18  19
ATOM     19  O   UNL     1       4.119   0.571  18.356  0.00  0.00    +0.000 OA
ATOM     20  H   UNL     1       5.085   0.580  18.487  0.00  0.00    +0.000 HD
ENDBRANCH  18  19
ENDBRANCH  16  18
ENDBRANCH   1  16
TORSDOF 4
ENDMDL
MODEL 3
REMARK VINA RESULT:      -6.7      2.562      3.197
REMARK  Name = 
REMARK  4 active torsions:
REMARK  status: ('A' for Active; 'I' for Inactive)
REMARK    1  A    between atoms: C_2  and  O_3
REMARK    2  A    between atoms: C_2  and  C_4
REMARK    3  A    between atoms: C_4  and  N_5
REMARK    4  A    between atoms: C_9  and  C_10
REMARK                            x       y       z     vdW  Elec       q    Type
REMARK                         _______ _______ _______ _____ _____    ______ ____
ROOT
ATOM      1  N   UNL     1       4.690   5.031  17.407  0.00  0.00    +0.000 N 
ATOM      2  C   UNL     1       4.279   6.298  17.038  0.00  0.00    +0.000 C 
ATOM      3  O   UNL     1       4.729   6.930  16.093  0.00  0.00    +0.000 OA
ATOM      4  C   UNL     1       3.313   6.840  18.026  0.00  0.00    +0.000 C 
ATOM      5  C   UNL     1       2.807   8.076  17.941  0.00  0.00    +0.000 C 
ATOM      6  S   UNL     1       3.029   5.679  19.261  0.00  0.00    +0.000 S 
ATOM      7  C   UNL     1       4.192   4.544  18.598  0.00  0.00    +0.000 C 
ATOM      8  S   UNL     1       4.591   3.125  19.374  0.00  0.00    +0.000 S 
ENDROOT
BRANCH   5   9
ATOM      9  C   UNL     1       1.884   8.642  18.929  0.00  0.00    +0.000 A 
ATOM     10  C   UNL     1       1.125   9.777  18.616  0.00  0.00    +0.000 A 
ATOM     11  C   UNL     1       0.317  10.371  19.589  0.00  0.00    +0.000 A 
ATOM     12  C   UNL     1       0.267   9.827  20.872  0.00  0.00    +0.000 A 
ATOM     13 BR   UNL     1      -0.794  10.653  22.200  0.00  0.00    +0.000 Br
ATOM     14  C   UNL     1       1.006   8.689  21.187  0.00  0.00    +0.000 A 
ATOM     15  C   UNL     1       1.814   8.095  20.214  0.00  0.00    +0.000 A 
ENDBRANCH   5   9
BRANCH   1  16
ATOM     16  C   UNL     1       5.608   4.282  16.541  0.00  0.00    +0.000 C 
BRANCH  16  18
ATOM     17  O   UNL     1       7.864   4.388  17.395  0.00  0.00    +0.000 OA
ATOM     18  C   UNL     1       7.044   4.785  16.578  0.00  0.00    +0.000 C 
BRANCH  18  19
ATOM     19  O   UNL     1       7.396   5.620  15.576  0.00  0.00    +0.000 OA
ATOM     20  H   UNL     1       6.650   5.942  15.037  0.00  0.00    +0.000 HD
ENDBRANCH  18  19
ENDBRANCH  16  18
ENDBRANCH   1  16
TORSDOF 4
ENDMDL
MODEL 4
REMARK VINA RESULT:      -6.5      4.582      6.506
REMARK  Name = 
REMARK  4 active torsions:
REMARK  status: ('A' for Active; 'I' for Inactive)
REMARK    1  A    between atoms: C_2  and  O_3
REMARK    2  A    between atoms: C_2  and  C_4
REMARK    3  A    between atoms: C_4  and  N_5
REMARK    4  A    between atoms: C_9  and  C_10
REMARK                            x       y       z     vdW  Elec       q    Type
REMARK                         _______ _______ _______ _____ _____    ______ ____
ROOT
ATOM      1  N   UNL     1       2.964   4.758  20.123  0.00  0.00    +0.000 N 
ATOM      2  C   UNL     1       3.787   3.807  19.551  0.00  0.00    +0.000 C 
ATOM      3  O   UNL     1       4.114   2.756  20.083  0.00  0.00    +0.000 OA
ATOM      4  C   UNL     1       4.331   4.297  18.259  0.00  0.00    +0.000 C 
ATOM      5  C   UNL     1       5.207   3.596  17.530  0.00  0.00    +0.000 C 
ATOM      6  S   UNL     1       3.711   5.865  17.925  0.00  0.00    +0.000 S 
ATOM      7  C   UNL     1       2.843   5.956  19.447  0.00  0.00    +0.000 C 
ATOM      8  S   UNL     1       2.040   7.332  19.933  0.00  0.00    +0.000 S 
ENDROOT
BRANCH   5   9
ATOM      9  C   UNL     1       5.784   4.082  16.273  0.00  0.00    +0.000 A 
ATOM     10  C   UNL     1       5.194   3.743  15.049  0.00  0.00    +0.000 A 
ATOM     11  C   UNL     1       5.798   4.127  13.849  0.00  0.00    +0.000 A 
ATOM     12  C   UNL     1       6.989   4.851  13.875  0.00  0.00    +0.000 A 
ATOM     13 BR   UNL     1       7.828   5.336  12.253  0.00  0.00    +0.000 Br
ATOM     14  C   UNL     1       7.574   5.207  15.089  0.00  0.00    +0.000 A 
ATOM     15  C   UNL     1       6.970   4.823  16.289  0.00  0.00    +0.000 A 
ENDBRANCH   5   9
BRANCH   1  16
ATOM     16  C   UNL     1       2.273   4.461  21.383  0.00  0.00    +0.000 C 
BRANCH  16  18
ATOM     17  O   UNL     1       1.371   2.358  22.156  0.00  0.00    +0.000 OA
ATOM     18  C   UNL     1       1.356   3.247  21.315  0.00  0.00    +0.000 C 
BRANCH  18  19
ATOM     19  O   UNL     1       0.437   3.264  20.325  0.00  0.00    +0.000 OA
ATOM     20  H   UNL     1       0.748   2.892  19.479  0.00  0.00    +0.000 HD
ENDBRANCH  18  19
ENDBRANCH  16  18
ENDBRANCH   1  16
TORSDOF 4
ENDMDL
MODEL 5
REMARK VINA RESULT:      -6.5      1.131      1.748
REMARK  Name = 
REMARK  4 active torsions:
REMARK  status: ('A' for Active; 'I' for Inactive)
REMARK    1  A    between atoms: C_2  and  O_3
REMARK    2  A    between atoms: C_2  and  C_4
REMARK    3  A    between atoms: C_4  and  N_5
REMARK    4  A    between atoms: C_9  and  C_10
REMARK                            x       y       z     vdW  Elec       q    Type
REMARK                         _______ _______ _______ _____ _____    ______ ____
ROOT
ATOM      1  N   UNL     1       3.289   4.415  19.297  0.00  0.00    +0.000 N 
ATOM      2  C   UNL     1       3.254   5.711  18.820  0.00  0.00    +0.000 C 
ATOM      3  O   UNL     1       3.972   6.149  17.933  0.00  0.00    +0.000 OA
ATOM      4  C   UNL     1       2.320   6.538  19.627  0.00  0.00    +0.000 C 
ATOM      5  C   UNL     1       2.147   7.848  19.418  0.00  0.00    +0.000 C 
ATOM      6  S   UNL     1       1.593   5.570  20.848  0.00  0.00    +0.000 S 
ATOM      7  C   UNL     1       2.526   4.148  20.416  0.00  0.00    +0.000 C 
ATOM      8  S   UNL     1       2.456   2.736  21.297  0.00  0.00    +0.000 S 
ENDROOT
BRANCH   5   9
ATOM      9  C   UNL     1       1.260   8.686  20.230  0.00  0.00    +0.000 A 
ATOM     10  C   UNL     1       0.411   9.616  19.616  0.00  0.00    +0.000 A 
ATOM     11  C   UNL     1      -0.364  10.479  20.394  0.00  0.00    +0.000 A 
ATOM     12  C   UNL     1      -0.290  10.410  21.784  0.00  0.00    +0.000 A 
ATOM     13 BR   UNL     1      -1.307  11.605  22.838  0.00  0.00    +0.000 Br
ATOM     14  C   UNL     1       0.540   9.478  22.404  0.00  0.00    +0.000 A 
ATOM     15  C   UNL     1       1.315   8.614  21.625  0.00  0.00    +0.000 A 
ENDBRANCH   5   9
BRANCH   1  16
ATOM     16  C   UNL     1       4.109   3.409  18.611  0.00  0.00    +0.000 C 
BRANCH  16  18
ATOM     17  O   UNL     1       2.347   2.520  17.220  0.00  0.00    +0.000 OA
ATOM     18  C   UNL     1       3.302   2.299  17.951  0.00  0.00    +0.000 C 
BRANCH  18  19
ATOM     19  O   UNL     1       3.777   1.047  18.129  0.00  0.00    +0.000 OA
ATOM     20  H   UNL     1       4.740   0.998  18.278  0.00  0.00    +0.000 HD
ENDBRANCH  18  19
ENDBRANCH  16  18
ENDBRANCH   1  16
TORSDOF 4
ENDMDL
MODEL 6
REMARK VINA RESULT:      -6.5      4.759      7.362
REMARK  Name = 
REMARK  4 active torsions:
REMARK  status: ('A' for Active; 'I' for Inactive)
REMARK    1  A    between atoms: C_2  and  O_3
REMARK    2  A    between atoms: C_2  and  C_4
REMARK    3  A    between atoms: C_4  and  N_5
REMARK    4  A    between atoms: C_9  and  C_10
REMARK                            x       y       z     vdW  Elec       q    Type
REMARK                         _______ _______ _______ _____ _____    ______ ____
ROOT
ATOM      1  N   UNL     1       1.085  10.212  19.720  0.00  0.00    +0.000 N 
ATOM      2  C   UNL     1       1.701   9.634  18.626  0.00  0.00    +0.000 C 
ATOM      3  O   UNL     1       1.876  10.188  17.550  0.00  0.00    +0.000 OA
ATOM      4  C   UNL     1       1.997   8.203  18.890  0.00  0.00    +0.000 C 
ATOM      5  C   UNL     1       2.534   7.393  17.971  0.00  0.00    +0.000 C 
ATOM      6  S   UNL     1       1.494   7.789  20.481  0.00  0.00    +0.000 S 
ATOM      7  C   UNL     1       0.823   9.381  20.790  0.00  0.00    +0.000 C 
ATOM      8  S   UNL     1      -0.013   9.738  22.186  0.00  0.00    +0.000 S 
ENDROOT
BRANCH   5   9
ATOM      9  C   UNL     1       2.796   5.969  18.202  0.00  0.00    +0.000 A 
ATOM     10  C   UNL     1       4.036   5.553  18.704  0.00  0.00    +0.000 A 
ATOM     11  C   UNL     1       4.319   4.191  18.835  0.00  0.00    +0.000 A 
ATOM     12  C   UNL     1       3.361   3.248  18.465  0.00  0.00    +0.000 A 
ATOM     13 BR   UNL     1       3.757   1.405  18.603  0.00  0.00    +0.000 Br
ATOM     14  C   UNL     1       2.119   3.653  17.980  0.00  0.00    +0.000 A 
ATOM     15  C   UNL     1       1.836   5.015  17.850  0.00  0.00    +0.000 A 
ENDBRANCH   5   9
BRANCH   1  16
ATOM     16  C   UNL     1       0.751  11.640  19.697  0.00  0.00    +0.000 C 
BRANCH  16  18
ATOM     17  O   UNL     1      -1.573  12.287  19.805  0.00  0.00    +0.000 OA
ATOM     18  C   UNL     1      -0.622  11.946  19.115  0.00  0.00    +0.000 C 
BRANCH  18  19
ATOM     19  O   UNL     1      -0.701  11.929  17.766  0.00  0.00    +0.000 OA
ATOM     20  H   UNL     1      -1.174  12.689  17.380  0.00  0.00    +0.000 HD
ENDBRANCH  18  19
ENDBRANCH  16  18
ENDBRANCH   1  16
TORSDOF 4
ENDMDL
MODEL 7
REMARK VINA RESULT:      -6.4      4.780      7.402
REMARK  Name = 
REMARK  4 active torsions:
REMARK  status: ('A' for Active; 'I' for Inactive)
REMARK    1  A    between atoms: C_2  and  O_3
REMARK    2  A    between atoms: C_2  and  C_4
REMARK    3  A    between atoms: C_4  and  N_5
REMARK    4  A    between atoms: C_9  and  C_10
REMARK                            x       y       z     vdW  Elec       q    Type
REMARK                         _______ _______ _______ _____ _____    ______ ____
ROOT
ATOM      1  N   UNL     1       1.034  10.285  19.670  0.00  0.00    +0.000 N 
ATOM      2  C   UNL     1       1.675   9.703  18.593  0.00  0.00    +0.000 C 
ATOM      3  O   UNL     1       1.873  10.251  17.519  0.00  0.00    +0.000 OA
ATOM      4  C   UNL     1       1.969   8.274  18.872  0.00  0.00    +0.000 C 
ATOM      5  C   UNL     1       2.527   7.460  17.969  0.00  0.00    +0.000 C 
ATOM      6  S   UNL     1       1.431   7.867  20.454  0.00  0.00    +0.000 S 
ATOM      7  C   UNL     1       0.750   9.459  20.739  0.00  0.00    +0.000 C 
ATOM      8  S   UNL     1      -0.118   9.821  22.114  0.00  0.00    +0.000 S 
ENDROOT
BRANCH   5   9
ATOM      9  C   UNL     1       2.787   6.038  18.213  0.00  0.00    +0.000 A 
ATOM     10  C   UNL     1       4.027   5.625  18.717  0.00  0.00    +0.000 A 
ATOM     11  C   UNL     1       4.308   4.264  18.860  0.00  0.00    +0.000 A 
ATOM     12  C   UNL     1       3.348   3.319  18.502  0.00  0.00    +0.000 A 
ATOM     13 BR   UNL     1       3.741   1.477  18.657  0.00  0.00    +0.000 Br
ATOM     14  C   UNL     1       2.106   3.722  18.015  0.00  0.00    +0.000 A 
ATOM     15  C   UNL     1       1.825   5.083  17.872  0.00  0.00    +0.000 A 
ENDBRANCH   5   9
BRANCH   1  16
ATOM     16  C   UNL     1       0.698  11.713  19.633  0.00  0.00    +0.000 C 
BRANCH  16  18
ATOM     17  O   UNL     1       2.190  12.898  21.116  0.00  0.00    +0.000 OA
ATOM     18  C   UNL     1       1.864  12.633  19.967  0.00  0.00    +0.000 C 
BRANCH  18  19
ATOM     19  O   UNL     1       2.596  13.054  18.913  0.00  0.00    +0.000 OA
ATOM     20  H   UNL     1       3.430  13.499  19.152  0.00  0.00    +0.000 HD
ENDBRANCH  18  19
ENDBRANCH  16  18
ENDBRANCH   1  16
TORSDOF 4
ENDMDL
MODEL 8
REMARK VINA RESULT:      -6.4      4.718      7.313
REMARK  Name = 
REMARK  4 active torsions:
REMARK  status: ('A' for Active; 'I' for Inactive)
REMARK    1  A    between atoms: C_2  and  O_3
REMARK    2  A    between atoms: C_2  and  C_4
REMARK    3  A    between atoms: C_4  and  N_5
REMARK    4  A    between atoms: C_9  and  C_10
REMARK                            x       y       z     vdW  Elec       q    Type
REMARK                         _______ _______ _______ _____ _____    ______ ____
ROOT
ATOM      1  N   UNL     1       1.144  10.016  19.798  0.00  0.00    +0.000 N 
ATOM      2  C   UNL     1       1.753   9.520  18.661  0.00  0.00    +0.000 C 
ATOM      3  O   UNL     1       1.903  10.144  17.621  0.00  0.00    +0.000 OA
ATOM      4  C   UNL     1       2.078   8.081  18.829  0.00  0.00    +0.000 C 
ATOM      5  C   UNL     1       2.615   7.341  17.853  0.00  0.00    +0.000 C 
ATOM      6  S   UNL     1       1.605   7.557  20.397  0.00  0.00    +0.000 S 
ATOM      7  C   UNL     1       0.911   9.114  20.817  0.00  0.00    +0.000 C 
ATOM      8  S   UNL     1       0.090   9.365  22.244  0.00  0.00    +0.000 S 
ENDROOT
BRANCH   5   9
ATOM      9  C   UNL     1       2.905   5.910  17.989  0.00  0.00    +0.000 A 
ATOM     10  C   UNL     1       1.896   4.963  17.772  0.00  0.00    +0.000 A 
ATOM     11  C   UNL     1       2.148   3.606  17.994  0.00  0.00    +0.000 A 
ATOM     12  C   UNL     1       3.409   3.200  18.430  0.00  0.00    +0.000 A 
ATOM     13 BR   UNL     1       3.739   1.370  18.770  0.00  0.00    +0.000 Br
ATOM     14  C   UNL     1       4.422   4.134  18.633  0.00  0.00    +0.000 A 
ATOM     15  C   UNL     1       4.171   5.491  18.411  0.00  0.00    +0.000 A 
ENDBRANCH   5   9
BRANCH   1  16
ATOM     16  C   UNL     1       0.785  11.436  19.872  0.00  0.00    +0.000 C 
BRANCH  16  18
ATOM     17  O   UNL     1      -1.575  11.937  19.984  0.00  0.00    +0.000 OA
ATOM     18  C   UNL     1      -0.584  11.760  19.288  0.00  0.00    +0.000 C 
BRANCH  18  19
ATOM     19  O   UNL     1      -0.618  11.954  17.952  0.00  0.00    +0.000 OA
ATOM     20  H   UNL     1      -0.011  12.645  17.629  0.00  0.00    +0.000 HD
ENDBRANCH  18  19
ENDBRANCH  16  18
ENDBRANCH   1  16
TORSDOF 4
ENDMDL
MODEL 9
REMARK VINA RESULT:      -6.4      4.683      7.041
REMARK  Name = 
REMARK  4 active torsions:
REMARK  status: ('A' for Active; 'I' for Inactive)
REMARK    1  A    between atoms: C_2  and  O_3
REMARK    2  A    between atoms: C_2  and  C_4
REMARK    3  A    between atoms: C_4  and  N_5
REMARK    4  A    between atoms: C_9  and  C_10
REMARK                            x       y       z     vdW  Elec       q    Type
REMARK                         _______ _______ _______ _____ _____    ______ ____
ROOT
ATOM      1  N   UNL     1       1.001   8.631  20.272  0.00  0.00    +0.000 N 
ATOM      2  C   UNL     1       1.556   7.368  20.338  0.00  0.00    +0.000 C 
ATOM      3  O   UNL     1       1.479   6.621  21.304  0.00  0.00    +0.000 OA
ATOM      4  C   UNL     1       2.373   7.093  19.129  0.00  0.00    +0.000 C 
ATOM      5  C   UNL     1       3.074   5.965  18.969  0.00  0.00    +0.000 C 
ATOM      6  S   UNL     1       2.308   8.442  18.065  0.00  0.00    +0.000 S 
ATOM      7  C   UNL     1       1.334   9.395  19.171  0.00  0.00    +0.000 C 
ATOM      8  S   UNL     1       0.940  10.984  18.866  0.00  0.00    +0.000 S 
ENDROOT
BRANCH   5   9
ATOM      9  C   UNL     1       3.917   5.695  17.801  0.00  0.00    +0.000 A 
ATOM     10  C   UNL     1       3.902   4.431  17.198  0.00  0.00    +0.000 A 
ATOM     11  C   UNL     1       4.775   4.146  16.145  0.00  0.00    +0.000 A 
ATOM     12  C   UNL     1       5.659   5.126  15.695  0.00  0.00    +0.000 A 
ATOM     13 BR   UNL     1       6.868   4.729  14.298  0.00  0.00    +0.000 Br
ATOM     14  C   UNL     1       5.668   6.391  16.279  0.00  0.00    +0.000 A 
ATOM     15  C   UNL     1       4.796   6.676  17.332  0.00  0.00    +0.000 A 
ENDBRANCH   5   9
BRANCH   1  16
ATOM     16  C   UNL     1       0.108   9.092  21.341  0.00  0.00    +0.000 C 
BRANCH  16  18
ATOM     17  O   UNL     1       0.234   9.823  23.639  0.00  0.00    +0.000 OA
ATOM     18  C   UNL     1       0.827   9.473  22.628  0.00  0.00    +0.000 C 
BRANCH  18  19
ATOM     19  O   UNL     1       2.166   9.291  22.624  0.00  0.00    +0.000 OA
ATOM     20  H   UNL     1       2.548   9.124  21.743  0.00  0.00    +0.000 HD
ENDBRANCH  18  19
ENDBRANCH  16  18
ENDBRANCH   1  16
TORSDOF 4
ENDMDL
