MODEL 1
REMARK VINA RESULT:      -8.3      0.000      0.000
REMARK  Name = 
REMARK  9 active torsions:
REMARK  status: ('A' for Active; 'I' for Inactive)
REMARK    1  A    between atoms: C_2  and  C_12
REMARK    2  A    between atoms: N_3  and  C_4
REMARK    3  A    between atoms: C_4  and  C_5
REMARK    4  A    between atoms: C_17  and  C_18
REMARK    5  A    between atoms: N_20  and  C_21
REMARK    6  A    between atoms: C_21  and  C_22
REMARK    7  A    between atoms: C_22  and  C_23
REMARK    8  A    between atoms: C_23  and  C_24
REMARK    9  A    between atoms: C_24  and  N_25
REMARK                            x       y       z     vdW  Elec       q    Type
REMARK                         _______ _______ _______ _____ _____    ______ ____
ROOT
ATOM      1  C   UNL     1       3.997   5.132  18.855  0.00  0.00    +0.000 C 
ATOM      2  C   UNL     1       3.328   3.756  19.198  0.00  0.00    +0.000 C 
ATOM      3  C   UNL     1       3.076   2.976  17.908  0.00  0.00    +0.000 C 
ATOM      4  C   UNL     1       2.125   3.634  17.215  0.00  0.00    +0.000 C 
ATOM      5  C   UNL     1       1.689   4.824  18.071  0.00  0.00    +0.000 C 
ATOM      6  C   UNL     1       2.872   5.847  17.992  0.00  0.00    +0.000 C 
ATOM      7  C   UNL     1       1.903   4.218  19.450  0.00  0.00    +0.000 C 
ATOM      8  C   UNL     1       0.902   3.273  20.085  0.00  0.00    +0.000 C 
ATOM      9  C   UNL     1       1.248   4.576  20.762  0.00  0.00    +0.000 C 
ENDROOT
BRANCH   1  11
ATOM     10  O   UNL     1       6.332   4.480  18.648  0.00  0.00    +0.000 OA
ATOM     11  C   UNL     1       5.364   5.055  18.160  0.00  0.00    +0.000 C 
ATOM     12  N   UNL     1       5.442   5.732  16.951  0.00  0.00    +0.000 N 
ATOM     13  H   UNL     1       4.787   6.494  16.813  0.00  0.00    +0.000 HD
BRANCH  12  14
ATOM     14  C   UNL     1       6.685   5.803  16.190  0.00  0.00    +0.000 C 
BRANCH  14  15
ATOM     15  C   UNL     1       6.598   5.040  14.883  0.00  0.00    +0.000 A 
ATOM     16  C   UNL     1       5.521   4.166  14.643  0.00  0.00    +0.000 A 
ATOM     17  C   UNL     1       5.455   3.431  13.445  0.00  0.00    +0.000 A 
ATOM     18  C   UNL     1       6.451   3.559  12.492  0.00  0.00    +0.000 A 
ATOM     19 CL   UNL     1       6.377   2.632  11.041  0.00  0.00    +0.000 Cl
ATOM     20  C   UNL     1       7.516   4.433  12.704  0.00  0.00    +0.000 A 
ATOM     21  C   UNL     1       7.583   5.176  13.891  0.00  0.00    +0.000 A 
ENDBRANCH  14  15
ENDBRANCH  12  14
ENDBRANCH   1  11
BRANCH   6  22
ATOM     22  C   UNL     1       2.497   7.195  18.579  0.00  0.00    +0.000 C 
ATOM     23  O   UNL     1       2.484   7.396  19.790  0.00  0.00    +0.000 OA
ATOM     24  N   UNL     1       2.233   8.210  17.671  0.00  0.00    +0.000 N 
ATOM     25  H   UNL     1       2.669   8.137  16.757  0.00  0.00    +0.000 HD
BRANCH  24  26
ATOM     26  C   UNL     1       1.829   9.528  18.123  0.00  0.00    +0.000 C 
BRANCH  26  27
ATOM     27  C   UNL     1       0.306   9.676  18.239  0.00  0.00    +0.000 C 
BRANCH  27  28
ATOM     28  C   UNL     1      -0.109  10.023  19.677  0.00  0.00    +0.000 C 
BRANCH  28  29
ATOM     29  C   UNL     1      -1.232  11.069  19.743  0.00  0.00    +0.000 C 
BRANCH  29  30
ATOM     30  N   UNL     1      -0.993  12.138  20.733  0.00  0.00    +0.000 NA
ATOM     31  C   UNL     1      -0.077  11.672  21.793  0.00  0.00    +0.000 C 
ATOM     32  C   UNL     1      -0.979  10.994  22.809  0.00  0.00    +0.000 C 
ATOM     33  C   UNL     1      -2.209  11.879  22.817  0.00  0.00    +0.000 C 
ATOM     34  C   UNL     1      -2.189  12.591  21.466  0.00  0.00    +0.000 C 
ENDBRANCH  29  30
ENDBRANCH  28  29
ENDBRANCH  27  28
ENDBRANCH  26  27
ENDBRANCH  24  26
ENDBRANCH   6  22
TORSDOF 9
ENDMDL
MODEL 2
REMARK VINA RESULT:      -8.2      4.188      8.043
REMARK  Name = 
REMARK  9 active torsions:
REMARK  status: ('A' for Active; 'I' for Inactive)
REMARK    1  A    between atoms: C_2  and  C_12
REMARK    2  A    between atoms: N_3  and  C_4
REMARK    3  A    between atoms: C_4  and  C_5
REMARK    4  A    between atoms: C_17  and  C_18
REMARK    5  A    between atoms: N_20  and  C_21
REMARK    6  A    between atoms: C_21  and  C_22
REMARK    7  A    between atoms: C_22  and  C_23
REMARK    8  A    between atoms: C_23  and  C_24
REMARK    9  A    between atoms: C_24  and  N_25
REMARK                            x       y       z     vdW  Elec       q    Type
REMARK                         _______ _______ _______ _____ _____    ______ ____
ROOT
ATOM      1  C   UNL     1       2.770   6.169  18.734  0.00  0.00    +0.000 C 
ATOM      2  C   UNL     1       1.669   5.053  18.700  0.00  0.00    +0.000 C 
ATOM      3  C   UNL     1       1.203   4.753  20.124  0.00  0.00    +0.000 C 
ATOM      4  C   UNL     1       2.232   4.171  20.773  0.00  0.00    +0.000 C 
ATOM      5  C   UNL     1       3.371   4.021  19.764  0.00  0.00    +0.000 C 
ATOM      6  C   UNL     1       3.934   5.467  19.555  0.00  0.00    +0.000 C 
ATOM      7  C   UNL     1       2.547   3.830  18.499  0.00  0.00    +0.000 C 
ATOM      8  C   UNL     1       1.921   2.500  18.132  0.00  0.00    +0.000 C 
ATOM      9  C   UNL     1       2.924   3.143  17.208  0.00  0.00    +0.000 C 
ENDROOT
BRANCH   1  11
ATOM     10  O   UNL     1       2.061   7.695  20.491  0.00  0.00    +0.000 OA
ATOM     11  C   UNL     1       2.330   7.524  19.306  0.00  0.00    +0.000 C 
ATOM     12  N   UNL     1       2.207   8.541  18.369  0.00  0.00    +0.000 N 
ATOM     13  H   UNL     1       2.039   8.257  17.409  0.00  0.00    +0.000 HD
BRANCH  12  14
ATOM     14  C   UNL     1       1.747   9.875  18.739  0.00  0.00    +0.000 C 
BRANCH  14  15
ATOM     15  C   UNL     1       0.262  10.053  18.497  0.00  0.00    +0.000 A 
ATOM     16  C   UNL     1      -0.344   9.489  17.359  0.00  0.00    +0.000 A 
ATOM     17  C   UNL     1      -1.717   9.682  17.115  0.00  0.00    +0.000 A 
ATOM     18  C   UNL     1      -2.483  10.430  17.991  0.00  0.00    +0.000 A 
ATOM     19 CL   UNL     1      -4.157  10.684  17.668  0.00  0.00    +0.000 Cl
ATOM     20  C   UNL     1      -1.905  10.982  19.134  0.00  0.00    +0.000 A 
ATOM     21  C   UNL     1      -0.541  10.785  19.388  0.00  0.00    +0.000 A 
ENDBRANCH  14  15
ENDBRANCH  12  14
ENDBRANCH   1  11
BRANCH   6  22
ATOM     22  C   UNL     1       5.236   5.464  18.777  0.00  0.00    +0.000 C 
ATOM     23  O   UNL     1       6.019   4.518  18.823  0.00  0.00    +0.000 OA
ATOM     24  N   UNL     1       5.467   6.558  17.957  0.00  0.00    +0.000 N 
ATOM     25  H   UNL     1       4.652   7.060  17.616  0.00  0.00    +0.000 HD
BRANCH  24  26
ATOM     26  C   UNL     1       6.697   6.674  17.197  0.00  0.00    +0.000 C 
BRANCH  26  27
ATOM     27  C   UNL     1       7.828   7.338  17.994  0.00  0.00    +0.000 C 
BRANCH  27  28
ATOM     28  C   UNL     1       7.921   8.839  17.680  0.00  0.00    +0.000 C 
BRANCH  28  29
ATOM     29  C   UNL     1       8.740   9.621  18.717  0.00  0.00    +0.000 C 
BRANCH  29  30
ATOM     30  N   UNL     1       9.539  10.720  18.139  0.00  0.00    +0.000 NA
ATOM     31  C   UNL     1      10.592  11.151  19.081  0.00  0.00    +0.000 C 
ATOM     32  C   UNL     1       9.912  12.175  19.973  0.00  0.00    +0.000 C 
ATOM     33  C   UNL     1       9.013  12.923  19.009  0.00  0.00    +0.000 C 
ATOM     34  C   UNL     1       8.789  11.955  17.849  0.00  0.00    +0.000 C 
ENDBRANCH  29  30
ENDBRANCH  28  29
ENDBRANCH  27  28
ENDBRANCH  26  27
ENDBRANCH  24  26
ENDBRANCH   6  22
TORSDOF 9
ENDMDL
MODEL 3
REMARK VINA RESULT:      -8.2      3.243      9.398
REMARK  Name = 
REMARK  9 active torsions:
REMARK  status: ('A' for Active; 'I' for Inactive)
REMARK    1  A    between atoms: C_2  and  C_12
REMARK    2  A    between atoms: N_3  and  C_4
REMARK    3  A    between atoms: C_4  and  C_5
REMARK    4  A    between atoms: C_17  and  C_18
REMARK    5  A    between atoms: N_20  and  C_21
REMARK    6  A    between atoms: C_21  and  C_22
REMARK    7  A    between atoms: C_22  and  C_23
REMARK    8  A    between atoms: C_23  and  C_24
REMARK    9  A    between atoms: C_24  and  N_25
REMARK                            x       y       z     vdW  Elec       q    Type
REMARK                         _______ _______ _______ _____ _____    ______ ____
ROOT
ATOM      1  C   UNL     1       2.458   6.423  18.536  0.00  0.00    +0.000 C 
ATOM      2  C   UNL     1       1.561   5.180  18.866  0.00  0.00    +0.000 C 
ATOM      3  C   UNL     1       1.596   4.911  20.370  0.00  0.00    +0.000 C 
ATOM      4  C   UNL     1       2.843   4.501  20.681  0.00  0.00    +0.000 C 
ATOM      5  C   UNL     1       3.631   4.433  19.372  0.00  0.00    +0.000 C 
ATOM      6  C   UNL     1       3.901   5.922  18.971  0.00  0.00    +0.000 C 
ATOM      7  C   UNL     1       2.496   4.065  18.428  0.00  0.00    +0.000 C 
ATOM      8  C   UNL     1       1.975   2.647  18.299  0.00  0.00    +0.000 C 
ATOM      9  C   UNL     1       2.553   3.353  17.097  0.00  0.00    +0.000 C 
ENDROOT
BRANCH   1  11
ATOM     10  O   UNL     1       1.855   7.869  20.398  0.00  0.00    +0.000 OA
ATOM     11  C   UNL     1       2.032   7.745  19.190  0.00  0.00    +0.000 C 
ATOM     12  N   UNL     1       1.809   8.790  18.303  0.00  0.00    +0.000 N 
ATOM     13  H   UNL     1       1.570   8.534  17.350  0.00  0.00    +0.000 HD
BRANCH  12  14
ATOM     14  C   UNL     1       1.346  10.098  18.756  0.00  0.00    +0.000 C 
BRANCH  14  15
ATOM     15  C   UNL     1      -0.113  10.333  18.424  0.00  0.00    +0.000 A 
ATOM     16  C   UNL     1      -0.862  11.278  19.150  0.00  0.00    +0.000 A 
ATOM     17  C   UNL     1      -2.227  11.473  18.866  0.00  0.00    +0.000 A 
ATOM     18  C   UNL     1      -2.846  10.736  17.872  0.00  0.00    +0.000 A 
ATOM     19 CL   UNL     1      -4.524  10.961  17.552  0.00  0.00    +0.000 Cl
ATOM     20  C   UNL     1      -2.116   9.807  17.130  0.00  0.00    +0.000 A 
ATOM     21  C   UNL     1      -0.755   9.615  17.401  0.00  0.00    +0.000 A 
ENDBRANCH  14  15
ENDBRANCH  12  14
ENDBRANCH   1  11
BRANCH   6  22
ATOM     22  C   UNL     1       4.893   6.033  17.828  0.00  0.00    +0.000 C 
ATOM     23  O   UNL     1       4.691   6.762  16.861  0.00  0.00    +0.000 OA
ATOM     24  N   UNL     1       6.072   5.315  17.965  0.00  0.00    +0.000 N 
ATOM     25  H   UNL     1       6.380   5.108  18.910  0.00  0.00    +0.000 HD
BRANCH  24  26
ATOM     26  C   UNL     1       7.073   5.321  16.915  0.00  0.00    +0.000 C 
BRANCH  26  27
ATOM     27  C   UNL     1       6.914   4.149  15.936  0.00  0.00    +0.000 C 
BRANCH  27  28
ATOM     28  C   UNL     1       6.685   4.653  14.502  0.00  0.00    +0.000 C 
BRANCH  28  29
ATOM     29  C   UNL     1       5.661   3.811  13.726  0.00  0.00    +0.000 C 
BRANCH  29  30
ATOM     30  N   UNL     1       5.789   3.919  12.259  0.00  0.00    +0.000 NA
ATOM     31  C   UNL     1       4.959   2.901  11.586  0.00  0.00    +0.000 C 
ATOM     32  C   UNL     1       5.841   1.666  11.526  0.00  0.00    +0.000 C 
ATOM     33  C   UNL     1       7.213   2.241  11.239  0.00  0.00    +0.000 C 
ATOM     34  C   UNL     1       7.145   3.685  11.730  0.00  0.00    +0.000 C 
ENDBRANCH  29  30
ENDBRANCH  28  29
ENDBRANCH  27  28
ENDBRANCH  26  27
ENDBRANCH  24  26
ENDBRANCH   6  22
TORSDOF 9
ENDMDL
MODEL 4
REMARK VINA RESULT:      -8.1      4.574      8.528
REMARK  Name = 
REMARK  9 active torsions:
REMARK  status: ('A' for Active; 'I' for Inactive)
REMARK    1  A    between atoms: C_2  and  C_12
REMARK    2  A    between atoms: N_3  and  C_4
REMARK    3  A    between atoms: C_4  and  C_5
REMARK    4  A    between atoms: C_17  and  C_18
REMARK    5  A    between atoms: N_20  and  C_21
REMARK    6  A    between atoms: C_21  and  C_22
REMARK    7  A    between atoms: C_22  and  C_23
REMARK    8  A    between atoms: C_23  and  C_24
REMARK    9  A    between atoms: C_24  and  N_25
REMARK                            x       y       z     vdW  Elec       q    Type
REMARK                         _______ _______ _______ _____ _____    ______ ____
ROOT
ATOM      1  C   UNL     1       4.095   5.808  18.654  0.00  0.00    +0.000 C 
ATOM      2  C   UNL     1       3.567   5.194  17.312  0.00  0.00    +0.000 C 
ATOM      3  C   UNL     1       2.973   3.812  17.582  0.00  0.00    +0.000 C 
ATOM      4  C   UNL     1       3.987   2.996  17.934  0.00  0.00    +0.000 C 
ATOM      5  C   UNL     1       5.275   3.814  17.837  0.00  0.00    +0.000 C 
ATOM      6  C   UNL     1       5.242   4.788  19.063  0.00  0.00    +0.000 C 
ATOM      7  C   UNL     1       4.883   4.745  16.699  0.00  0.00    +0.000 C 
ATOM      8  C   UNL     1       4.934   4.316  15.246  0.00  0.00    +0.000 C 
ATOM      9  C   UNL     1       5.766   5.482  15.720  0.00  0.00    +0.000 C 
ENDROOT
BRANCH   1  11
ATOM     10  O   UNL     1       2.609   5.130  20.457  0.00  0.00    +0.000 OA
ATOM     11  C   UNL     1       3.040   6.033  19.746  0.00  0.00    +0.000 C 
ATOM     12  N   UNL     1       2.565   7.334  19.839  0.00  0.00    +0.000 N 
ATOM     13  H   UNL     1       2.635   7.905  19.004  0.00  0.00    +0.000 HD
BRANCH  12  14
ATOM     14  C   UNL     1       1.520   7.703  20.789  0.00  0.00    +0.000 C 
BRANCH  14  15
ATOM     15  C   UNL     1       0.834   8.999  20.405  0.00  0.00    +0.000 A 
ATOM     16  C   UNL     1       0.014   9.669  21.332  0.00  0.00    +0.000 A 
ATOM     17  C   UNL     1      -0.652  10.854  20.967  0.00  0.00    +0.000 A 
ATOM     18  C   UNL     1      -0.506  11.371  19.691  0.00  0.00    +0.000 A 
ATOM     19 CL   UNL     1      -1.348  12.807  19.244  0.00  0.00    +0.000 Cl
ATOM     20  C   UNL     1       0.316  10.732  18.764  0.00  0.00    +0.000 A 
ATOM     21  C   UNL     1       0.989   9.556  19.125  0.00  0.00    +0.000 A 
ENDBRANCH  14  15
ENDBRANCH  12  14
ENDBRANCH   1  11
BRANCH   6  22
ATOM     22  C   UNL     1       6.569   5.497  19.262  0.00  0.00    +0.000 C 
ATOM     23  O   UNL     1       7.382   5.129  20.105  0.00  0.00    +0.000 OA
ATOM     24  N   UNL     1       6.844   6.545  18.395  0.00  0.00    +0.000 N 
ATOM     25  H   UNL     1       6.390   6.524  17.487  0.00  0.00    +0.000 HD
BRANCH  24  26
ATOM     26  C   UNL     1       8.067   7.314  18.522  0.00  0.00    +0.000 C 
BRANCH  26  27
ATOM     27  C   UNL     1       8.202   8.397  17.442  0.00  0.00    +0.000 C 
BRANCH  27  28
ATOM     28  C   UNL     1       8.167   9.803  18.061  0.00  0.00    +0.000 C 
BRANCH  28  29
ATOM     29  C   UNL     1       9.194   9.990  19.188  0.00  0.00    +0.000 C 
BRANCH  29  30
ATOM     30  N   UNL     1       9.558  11.399  19.434  0.00  0.00    +0.000 NA
ATOM     31  C   UNL     1       9.976  12.058  18.181  0.00  0.00    +0.000 C 
ATOM     32  C   UNL     1      11.457  11.744  18.059  0.00  0.00    +0.000 C 
ATOM     33  C   UNL     1      11.944  11.836  19.491  0.00  0.00    +0.000 C 
ATOM     34  C   UNL     1      10.700  11.601  20.345  0.00  0.00    +0.000 C 
ENDBRANCH  29  30
ENDBRANCH  28  29
ENDBRANCH  27  28
ENDBRANCH  26  27
ENDBRANCH  24  26
ENDBRANCH   6  22
TORSDOF 9
ENDMDL
MODEL 5
REMARK VINA RESULT:      -8.1      1.247      1.864
REMARK  Name = 
REMARK  9 active torsions:
REMARK  status: ('A' for Active; 'I' for Inactive)
REMARK    1  A    between atoms: C_2  and  C_12
REMARK    2  A    between atoms: N_3  and  C_4
REMARK    3  A    between atoms: C_4  and  C_5
REMARK    4  A    between atoms: C_17  and  C_18
REMARK    5  A    between atoms: N_20  and  C_21
REMARK    6  A    between atoms: C_21  and  C_22
REMARK    7  A    between atoms: C_22  and  C_23
REMARK    8  A    between atoms: C_23  and  C_24
REMARK    9  A    between atoms: C_24  and  N_25
REMARK                            x       y       z     vdW  Elec       q    Type
REMARK                         _______ _______ _______ _____ _____    ______ ____
ROOT
ATOM      1  C   UNL     1       4.052   5.037  19.196  0.00  0.00    +0.000 C 
ATOM      2  C   UNL     1       3.472   3.597  19.420  0.00  0.00    +0.000 C 
ATOM      3  C   UNL     1       3.266   2.915  18.068  0.00  0.00    +0.000 C 
ATOM      4  C   UNL     1       2.273   3.568  17.430  0.00  0.00    +0.000 C 
ATOM      5  C   UNL     1       1.766   4.651  18.383  0.00  0.00    +0.000 C 
ATOM      6  C   UNL     1       2.881   5.750  18.394  0.00  0.00    +0.000 C 
ATOM      7  C   UNL     1       2.021   3.946  19.707  0.00  0.00    +0.000 C 
ATOM      8  C   UNL     1       1.084   2.889  20.256  0.00  0.00    +0.000 C 
ATOM      9  C   UNL     1       1.348   4.149  21.043  0.00  0.00    +0.000 C 
ENDROOT
BRANCH   1  11
ATOM     10  O   UNL     1       6.454   4.693  19.016  0.00  0.00    +0.000 OA
ATOM     11  C   UNL     1       5.419   5.106  18.501  0.00  0.00    +0.000 C 
ATOM     12  N   UNL     1       5.410   5.720  17.256  0.00  0.00    +0.000 N 
ATOM     13  H   UNL     1       4.659   6.378  17.079  0.00  0.00    +0.000 HD
BRANCH  12  14
ATOM     14  C   UNL     1       6.635   5.914  16.487  0.00  0.00    +0.000 C 
BRANCH  14  15
ATOM     15  C   UNL     1       6.600   5.175  15.165  0.00  0.00    +0.000 A 
ATOM     16  C   UNL     1       5.561   4.267  14.886  0.00  0.00    +0.000 A 
ATOM     17  C   UNL     1       5.547   3.554  13.673  0.00  0.00    +0.000 A 
ATOM     18  C   UNL     1       6.555   3.738  12.742  0.00  0.00    +0.000 A 
ATOM     19 CL   UNL     1       6.543   2.839  11.273  0.00  0.00    +0.000 Cl
ATOM     20  C   UNL     1       7.582   4.646  12.992  0.00  0.00    +0.000 A 
ATOM     21  C   UNL     1       7.598   5.367  14.194  0.00  0.00    +0.000 A 
ENDBRANCH  14  15
ENDBRANCH  12  14
ENDBRANCH   1  11
BRANCH   6  22
ATOM     22  C   UNL     1       2.424   7.017  19.092  0.00  0.00    +0.000 C 
ATOM     23  O   UNL     1       2.243   8.067  18.481  0.00  0.00    +0.000 OA
ATOM     24  N   UNL     1       2.157   6.911  20.449  0.00  0.00    +0.000 N 
ATOM     25  H   UNL     1       1.893   5.995  20.797  0.00  0.00    +0.000 HD
BRANCH  24  26
ATOM     26  C   UNL     1       1.749   8.070  21.220  0.00  0.00    +0.000 C 
BRANCH  26  27
ATOM     27  C   UNL     1       0.229   8.284  21.215  0.00  0.00    +0.000 C 
BRANCH  27  28
ATOM     28  C   UNL     1      -0.155   9.546  22.002  0.00  0.00    +0.000 C 
BRANCH  28  29
ATOM     29  C   UNL     1      -0.500  10.737  21.096  0.00  0.00    +0.000 C 
BRANCH  29  30
ATOM     30  N   UNL     1      -0.363  10.449  19.654  0.00  0.00    +0.000 NA
ATOM     31  C   UNL     1       0.690  11.291  19.052  0.00  0.00    +0.000 C 
ATOM     32  C   UNL     1      -0.018  12.581  18.680  0.00  0.00    +0.000 C 
ATOM     33  C   UNL     1      -1.369  12.100  18.189  0.00  0.00    +0.000 C 
ATOM     34  C   UNL     1      -1.559  10.733  18.842  0.00  0.00    +0.000 C 
ENDBRANCH  29  30
ENDBRANCH  28  29
ENDBRANCH  27  28
ENDBRANCH  26  27
ENDBRANCH  24  26
ENDBRANCH   6  22
TORSDOF 9
ENDMDL
MODEL 6
REMARK VINA RESULT:      -8.1      4.700      8.611
REMARK  Name = 
REMARK  9 active torsions:
REMARK  status: ('A' for Active; 'I' for Inactive)
REMARK    1  A    between atoms: C_2  and  C_12
REMARK    2  A    between atoms: N_3  and  C_4
REMARK    3  A    between atoms: C_4  and  C_5
REMARK    4  A    between atoms: C_17  and  C_18
REMARK    5  A    between atoms: N_20  and  C_21
REMARK    6  A    between atoms: C_21  and  C_22
REMARK    7  A    between atoms: C_22  and  C_23
REMARK    8  A    between atoms: C_23  and  C_24
REMARK    9  A    between atoms: C_24  and  N_25
REMARK                            x       y       z     vdW  Elec       q    Type
REMARK                         _______ _______ _______ _____ _____    ______ ____
ROOT
ATOM      1  C   UNL     1       4.187   5.887  18.563  0.00  0.00    +0.000 C 
ATOM      2  C   UNL     1       3.672   5.256  17.224  0.00  0.00    +0.000 C 
ATOM      3  C   UNL     1       3.047   3.891  17.510  0.00  0.00    +0.000 C 
ATOM      4  C   UNL     1       4.039   3.063  17.895  0.00  0.00    +0.000 C 
ATOM      5  C   UNL     1       5.344   3.856  17.805  0.00  0.00    +0.000 C 
ATOM      6  C   UNL     1       5.307   4.854  19.012  0.00  0.00    +0.000 C 
ATOM      7  C   UNL     1       4.989   4.771  16.643  0.00  0.00    +0.000 C 
ATOM      8  C   UNL     1       5.058   4.313  15.200  0.00  0.00    +0.000 C 
ATOM      9  C   UNL     1       5.902   5.472  15.666  0.00  0.00    +0.000 C 
ENDROOT
BRANCH   1  11
ATOM     10  O   UNL     1       2.749   5.302  20.436  0.00  0.00    +0.000 OA
ATOM     11  C   UNL     1       3.118   6.152  19.632  0.00  0.00    +0.000 C 
ATOM     12  N   UNL     1       2.554   7.420  19.591  0.00  0.00    +0.000 N 
ATOM     13  H   UNL     1       2.587   7.904  18.700  0.00  0.00    +0.000 HD
BRANCH  12  14
ATOM     14  C   UNL     1       1.485   7.816  20.502  0.00  0.00    +0.000 C 
BRANCH  14  15
ATOM     15  C   UNL     1       0.866   9.143  20.113  0.00  0.00    +0.000 A 
ATOM     16  C   UNL     1       1.311   9.823  18.964  0.00  0.00    +0.000 A 
ATOM     17  C   UNL     1       0.762  11.072  18.620  0.00  0.00    +0.000 A 
ATOM     18  C   UNL     1      -0.220  11.645  19.410  0.00  0.00    +0.000 A 
ATOM     19 CL   UNL     1      -0.866  13.188  18.996  0.00  0.00    +0.000 Cl
ATOM     20  C   UNL     1      -0.687  10.978  20.542  0.00  0.00    +0.000 A 
ATOM     21  C   UNL     1      -0.151   9.729  20.885  0.00  0.00    +0.000 A 
ENDBRANCH  14  15
ENDBRANCH  12  14
ENDBRANCH   1  11
BRANCH   6  22
ATOM     22  C   UNL     1       6.643   5.542  19.221  0.00  0.00    +0.000 C 
ATOM     23  O   UNL     1       7.437   5.173  20.082  0.00  0.00    +0.000 OA
ATOM     24  N   UNL     1       6.951   6.571  18.343  0.00  0.00    +0.000 N 
ATOM     25  H   UNL     1       6.511   6.544  17.428  0.00  0.00    +0.000 HD
BRANCH  24  26
ATOM     26  C   UNL     1       8.185   7.320  18.476  0.00  0.00    +0.000 C 
BRANCH  26  27
ATOM     27  C   UNL     1       8.104   8.718  17.847  0.00  0.00    +0.000 C 
BRANCH  27  28
ATOM     28  C   UNL     1       8.805   9.764  18.728  0.00  0.00    +0.000 C 
BRANCH  28  29
ATOM     29  C   UNL     1       8.928  11.136  18.048  0.00  0.00    +0.000 C 
BRANCH  29  30
ATOM     30  N   UNL     1       9.790  12.087  18.778  0.00  0.00    +0.000 NA
ATOM     31  C   UNL     1       9.838  13.388  18.083  0.00  0.00    +0.000 C 
ATOM     32  C   UNL     1      10.950  13.236  17.061  0.00  0.00    +0.000 C 
ATOM     33  C   UNL     1      11.987  12.419  17.804  0.00  0.00    +0.000 C 
ATOM     34  C   UNL     1      11.205  11.689  18.894  0.00  0.00    +0.000 C 
ENDBRANCH  29  30
ENDBRANCH  28  29
ENDBRANCH  27  28
ENDBRANCH  26  27
ENDBRANCH  24  26
ENDBRANCH   6  22
TORSDOF 9
ENDMDL
MODEL 7
REMARK VINA RESULT:      -8.1      1.453      1.950
REMARK  Name = 
REMARK  9 active torsions:
REMARK  status: ('A' for Active; 'I' for Inactive)
REMARK    1  A    between atoms: C_2  and  C_12
REMARK    2  A    between atoms: N_3  and  C_4
REMARK    3  A    between atoms: C_4  and  C_5
REMARK    4  A    between atoms: C_17  and  C_18
REMARK    5  A    between atoms: N_20  and  C_21
REMARK    6  A    between atoms: C_21  and  C_22
REMARK    7  A    between atoms: C_22  and  C_23
REMARK    8  A    between atoms: C_23  and  C_24
REMARK    9  A    between atoms: C_24  and  N_25
REMARK                            x       y       z     vdW  Elec       q    Type
REMARK                         _______ _______ _______ _____ _____    ______ ____
ROOT
ATOM      1  C   UNL     1       4.114   5.128  18.888  0.00  0.00    +0.000 C 
ATOM      2  C   UNL     1       3.485   3.753  19.305  0.00  0.00    +0.000 C 
ATOM      3  C   UNL     1       3.211   2.918  18.055  0.00  0.00    +0.000 C 
ATOM      4  C   UNL     1       2.226   3.528  17.366  0.00  0.00    +0.000 C 
ATOM      5  C   UNL     1       1.791   4.742  18.188  0.00  0.00    +0.000 C 
ATOM      6  C   UNL     1       2.949   5.785  18.033  0.00  0.00    +0.000 C 
ATOM      7  C   UNL     1       2.058   4.197  19.583  0.00  0.00    +0.000 C 
ATOM      8  C   UNL     1       1.096   3.259  20.284  0.00  0.00    +0.000 C 
ATOM      9  C   UNL     1       1.435   4.594  20.899  0.00  0.00    +0.000 C 
ENDROOT
BRANCH   1  11
ATOM     10  O   UNL     1       6.430   4.440  18.598  0.00  0.00    +0.000 OA
ATOM     11  C   UNL     1       5.461   5.050  18.156  0.00  0.00    +0.000 C 
ATOM     12  N   UNL     1       5.522   5.768  16.969  0.00  0.00    +0.000 N 
ATOM     13  H   UNL     1       4.878   6.546  16.875  0.00  0.00    +0.000 HD
BRANCH  12  14
ATOM     14  C   UNL     1       6.746   5.843  16.179  0.00  0.00    +0.000 C 
BRANCH  14  15
ATOM     15  C   UNL     1       6.655   5.022  14.908  0.00  0.00    +0.000 A 
ATOM     16  C   UNL     1       7.591   5.211  13.874  0.00  0.00    +0.000 A 
ATOM     17  C   UNL     1       7.487   4.474  12.679  0.00  0.00    +0.000 A 
ATOM     18  C   UNL     1       6.463   3.559  12.509  0.00  0.00    +0.000 A 
ATOM     19 CL   UNL     1       6.328   2.683  11.032  0.00  0.00    +0.000 Cl
ATOM     20  C   UNL     1       5.537   3.345  13.530  0.00  0.00    +0.000 A 
ATOM     21  C   UNL     1       5.640   4.068  14.726  0.00  0.00    +0.000 A 
ENDBRANCH  14  15
ENDBRANCH  12  14
ENDBRANCH   1  11
BRANCH   6  22
ATOM     22  C   UNL     1       2.564   7.148  18.577  0.00  0.00    +0.000 C 
ATOM     23  O   UNL     1       2.441   7.356  19.781  0.00  0.00    +0.000 OA
ATOM     24  N   UNL     1       2.421   8.165  17.645  0.00  0.00    +0.000 N 
ATOM     25  H   UNL     1       2.941   8.074  16.777  0.00  0.00    +0.000 HD
BRANCH  24  26
ATOM     26  C   UNL     1       2.018   9.498  18.053  0.00  0.00    +0.000 C 
BRANCH  26  27
ATOM     27  C   UNL     1       0.495   9.685  18.055  0.00  0.00    +0.000 C 
BRANCH  27  28
ATOM     28  C   UNL     1       0.037  10.492  19.280  0.00  0.00    +0.000 C 
BRANCH  28  29
ATOM     29  C   UNL     1       0.928  11.710  19.564  0.00  0.00    +0.000 C 
BRANCH  29  30
ATOM     30  N   UNL     1       0.869  12.750  18.518  0.00  0.00    +0.000 NA
ATOM     31  C   UNL     1       1.814  13.844  18.814  0.00  0.00    +0.000 C 
ATOM     32  C   UNL     1       1.041  14.781  19.725  0.00  0.00    +0.000 C 
ATOM     33  C   UNL     1      -0.357  14.748  19.142  0.00  0.00    +0.000 C 
ATOM     34  C   UNL     1      -0.434  13.427  18.381  0.00  0.00    +0.000 C 
ENDBRANCH  29  30
ENDBRANCH  28  29
ENDBRANCH  27  28
ENDBRANCH  26  27
ENDBRANCH  24  26
ENDBRANCH   6  22
TORSDOF 9
ENDMDL
MODEL 8
REMARK VINA RESULT:      -8.1      3.360      9.601
REMARK  Name = 
REMARK  9 active torsions:
REMARK  status: ('A' for Active; 'I' for Inactive)
REMARK    1  A    between atoms: C_2  and  C_12
REMARK    2  A    between atoms: N_3  and  C_4
REMARK    3  A    between atoms: C_4  and  C_5
REMARK    4  A    between atoms: C_17  and  C_18
REMARK    5  A    between atoms: N_20  and  C_21
REMARK    6  A    between atoms: C_21  and  C_22
REMARK    7  A    between atoms: C_22  and  C_23
REMARK    8  A    between atoms: C_23  and  C_24
REMARK    9  A    between atoms: C_24  and  N_25
REMARK                            x       y       z     vdW  Elec       q    Type
REMARK                         _______ _______ _______ _____ _____    ______ ____
ROOT
ATOM      1  C   UNL     1       2.937   5.682  18.134  0.00  0.00    +0.000 C 
ATOM      2  C   UNL     1       1.621   4.993  18.634  0.00  0.00    +0.000 C 
ATOM      3  C   UNL     1       1.324   5.439  20.065  0.00  0.00    +0.000 C 
ATOM      4  C   UNL     1       2.281   4.919  20.860  0.00  0.00    +0.000 C 
ATOM      5  C   UNL     1       3.188   4.068  19.970  0.00  0.00    +0.000 C 
ATOM      6  C   UNL     1       4.025   5.091  19.130  0.00  0.00    +0.000 C 
ATOM      7  C   UNL     1       2.158   3.607  18.949  0.00  0.00    +0.000 C 
ATOM      8  C   UNL     1       1.198   2.467  19.224  0.00  0.00    +0.000 C 
ATOM      9  C   UNL     1       2.167   2.379  18.071  0.00  0.00    +0.000 C 
ENDROOT
BRANCH   1  11
ATOM     10  O   UNL     1       3.918   7.900  17.940  0.00  0.00    +0.000 OA
ATOM     11  C   UNL     1       2.908   7.216  18.078  0.00  0.00    +0.000 C 
ATOM     12  N   UNL     1       1.652   7.782  18.246  0.00  0.00    +0.000 N 
ATOM     13  H   UNL     1       0.967   7.228  18.748  0.00  0.00    +0.000 HD
BRANCH  12  14
ATOM     14  C   UNL     1       1.459   9.228  18.273  0.00  0.00    +0.000 C 
BRANCH  14  15
ATOM     15  C   UNL     1       0.720   9.681  19.515  0.00  0.00    +0.000 A 
ATOM     16  C   UNL     1      -0.139  10.796  19.463  0.00  0.00    +0.000 A 
ATOM     17  C   UNL     1      -0.800  11.239  20.624  0.00  0.00    +0.000 A 
ATOM     18  C   UNL     1      -0.610  10.584  21.829  0.00  0.00    +0.000 A 
ATOM     19 CL   UNL     1      -1.401  11.152  23.250  0.00  0.00    +0.000 Cl
ATOM     20  C   UNL     1       0.222   9.467  21.897  0.00  0.00    +0.000 A 
ATOM     21  C   UNL     1       0.876   9.015  20.742  0.00  0.00    +0.000 A 
ENDBRANCH  14  15
ENDBRANCH  12  14
ENDBRANCH   1  11
BRANCH   6  22
ATOM     22  C   UNL     1       5.157   4.418  18.377  0.00  0.00    +0.000 C 
ATOM     23  O   UNL     1       6.131   3.943  18.956  0.00  0.00    +0.000 OA
ATOM     24  N   UNL     1       5.004   4.308  17.003  0.00  0.00    +0.000 N 
ATOM     25  H   UNL     1       4.054   4.296  16.644  0.00  0.00    +0.000 HD
BRANCH  24  26
ATOM     26  C   UNL     1       6.043   3.714  16.183  0.00  0.00    +0.000 C 
BRANCH  26  27
ATOM     27  C   UNL     1       7.008   4.756  15.601  0.00  0.00    +0.000 C 
BRANCH  27  28
ATOM     28  C   UNL     1       7.088   4.643  14.071  0.00  0.00    +0.000 C 
BRANCH  28  29
ATOM     29  C   UNL     1       5.964   3.783  13.472  0.00  0.00    +0.000 C 
BRANCH  29  30
ATOM     30  N   UNL     1       5.971   3.738  11.996  0.00  0.00    +0.000 NA
ATOM     31  C   UNL     1       5.065   2.682  11.503  0.00  0.00    +0.000 C 
ATOM     32  C   UNL     1       5.912   1.421  11.500  0.00  0.00    +0.000 C 
ATOM     33  C   UNL     1       7.267   1.922  11.043  0.00  0.00    +0.000 C 
ATOM     34  C   UNL     1       7.271   3.410  11.385  0.00  0.00    +0.000 C 
ENDBRANCH  29  30
ENDBRANCH  28  29
ENDBRANCH  27  28
ENDBRANCH  26  27
ENDBRANCH  24  26
ENDBRANCH   6  22
TORSDOF 9
ENDMDL
MODEL 9
REMARK VINA RESULT:      -8.0      0.642      1.246
REMARK  Name = 
REMARK  9 active torsions:
REMARK  status: ('A' for Active; 'I' for Inactive)
REMARK    1  A    between atoms: C_2  and  C_12
REMARK    2  A    between atoms: N_3  and  C_4
REMARK    3  A    between atoms: C_4  and  C_5
REMARK    4  A    between atoms: C_17  and  C_18
REMARK    5  A    between atoms: N_20  and  C_21
REMARK    6  A    between atoms: C_21  and  C_22
REMARK    7  A    between atoms: C_22  and  C_23
REMARK    8  A    between atoms: C_23  and  C_24
REMARK    9  A    between atoms: C_24  and  N_25
REMARK                            x       y       z     vdW  Elec       q    Type
REMARK                         _______ _______ _______ _____ _____    ______ ____
ROOT
ATOM      1  C   UNL     1       4.098   5.225  18.887  0.00  0.00    +0.000 C 
ATOM      2  C   UNL     1       3.433   3.852  19.248  0.00  0.00    +0.000 C 
ATOM      3  C   UNL     1       3.210   3.043  17.971  0.00  0.00    +0.000 C 
ATOM      4  C   UNL     1       2.266   3.678  17.247  0.00  0.00    +0.000 C 
ATOM      5  C   UNL     1       1.807   4.882  18.070  0.00  0.00    +0.000 C 
ATOM      6  C   UNL     1       2.983   5.913  17.989  0.00  0.00    +0.000 C 
ATOM      7  C   UNL     1       2.000   4.308  19.465  0.00  0.00    +0.000 C 
ATOM      8  C   UNL     1       0.995   3.370  20.103  0.00  0.00    +0.000 C 
ATOM      9  C   UNL     1       1.320   4.689  20.758  0.00  0.00    +0.000 C 
ENDROOT
BRANCH   1  11
ATOM     10  O   UNL     1       6.446   4.603  18.744  0.00  0.00    +0.000 OA
ATOM     11  C   UNL     1       5.477   5.144  18.218  0.00  0.00    +0.000 C 
ATOM     12  N   UNL     1       5.566   5.776  16.985  0.00  0.00    +0.000 N 
ATOM     13  H   UNL     1       4.901   6.521  16.807  0.00  0.00    +0.000 HD
BRANCH  12  14
ATOM     14  C   UNL     1       6.821   5.838  16.242  0.00  0.00    +0.000 C 
BRANCH  14  15
ATOM     15  C   UNL     1       6.763   5.035  14.959  0.00  0.00    +0.000 A 
ATOM     16  C   UNL     1       7.619   5.349  13.886  0.00  0.00    +0.000 A 
ATOM     17  C   UNL     1       7.542   4.627  12.681  0.00  0.00    +0.000 A 
ATOM     18  C   UNL     1       6.624   3.601  12.538  0.00  0.00    +0.000 A 
ATOM     19 CL   UNL     1       6.519   2.741  11.049  0.00  0.00    +0.000 Cl
ATOM     20  C   UNL     1       5.780   3.263  13.596  0.00  0.00    +0.000 A 
ATOM     21  C   UNL     1       5.857   3.972  14.802  0.00  0.00    +0.000 A 
ENDBRANCH  14  15
ENDBRANCH  12  14
ENDBRANCH   1  11
BRANCH   6  22
ATOM     22  C   UNL     1       2.588   7.271  18.540  0.00  0.00    +0.000 C 
ATOM     23  O   UNL     1       2.539   7.493  19.746  0.00  0.00    +0.000 OA
ATOM     24  N   UNL     1       2.349   8.268  17.606  0.00  0.00    +0.000 N 
ATOM     25  H   UNL     1       2.814   8.180  16.707  0.00  0.00    +0.000 HD
BRANCH  24  26
ATOM     26  C   UNL     1       1.930   9.593  18.023  0.00  0.00    +0.000 C 
BRANCH  26  27
ATOM     27  C   UNL     1       0.438   9.661  18.376  0.00  0.00    +0.000 C 
BRANCH  27  28
ATOM     28  C   UNL     1       0.235  10.056  19.847  0.00  0.00    +0.000 C 
BRANCH  28  29
ATOM     29  C   UNL     1       0.731  11.475  20.162  0.00  0.00    +0.000 C 
BRANCH  29  30
ATOM     30  N   UNL     1       0.381  11.942  21.518  0.00  0.00    +0.000 NA
ATOM     31  C   UNL     1      -0.956  11.454  21.910  0.00  0.00    +0.000 C 
ATOM     32  C   UNL     1      -1.919  12.488  21.355  0.00  0.00    +0.000 C 
ATOM     33  C   UNL     1      -1.185  13.794  21.581  0.00  0.00    +0.000 C 
ATOM     34  C   UNL     1       0.289  13.405  21.673  0.00  0.00    +0.000 C 
ENDBRANCH  29  30
ENDBRANCH  28  29
ENDBRANCH  27  28
ENDBRANCH  26  27
ENDBRANCH  24  26
ENDBRANCH   6  22
TORSDOF 9
ENDMDL
