MODEL 1
REMARK VINA RESULT:     -10.3      0.000      0.000
REMARK  Name = 
REMARK  4 active torsions:
REMARK  status: ('A' for Active; 'I' for Inactive)
REMARK    1  A    between atoms: C_2  and  C_3
REMARK    2  A    between atoms: C_2  and  C_16
REMARK    3  A    between atoms: C_4  and  C_5
REMARK    4  A    between atoms: C_17  and  C_18
REMARK                            x       y       z     vdW  Elec       q    Type
REMARK                         _______ _______ _______ _____ _____    ______ ____
ROOT
ATOM      1  C   UNL     1       6.014   5.302  17.484  0.00  0.00    +0.000 A 
ATOM      2  C   UNL     1       5.341   4.506  16.604  0.00  0.00    +0.000 A 
ATOM      3  C   UNL     1       5.833   4.404  15.192  0.00  0.00    +0.000 A 
ATOM      4  C   UNL     1       5.205   3.593  14.234  0.00  0.00    +0.000 A 
ATOM      5  C   UNL     1       5.716   3.503  12.941  0.00  0.00    +0.000 A 
ATOM      6  F   UNL     1       5.108   2.710  12.049  0.00  0.00    +0.000 F 
ATOM      7  C   UNL     1       6.845   4.215  12.563  0.00  0.00    +0.000 A 
ATOM      8  C   UNL     1       7.474   5.037  13.493  0.00  0.00    +0.000 A 
ATOM      9  C   UNL     1       6.966   5.121  14.794  0.00  0.00    +0.000 A 
ATOM     10  N   UNL     1       7.600   5.946  15.714  0.00  0.00    +0.000 N 
ATOM     11  C   UNL     1       7.181   6.111  17.000  0.00  0.00    +0.000 A 
ATOM     12  O   UNL     1       7.762   6.924  17.714  0.00  0.00    +0.000 OA
ATOM     13  H   UNL     1       8.395   6.507  15.440  0.00  0.00    +0.000 HD
ENDROOT
BRANCH   2  14
ATOM     14  C   UNL     1       4.151   3.720  17.031  0.00  0.00    +0.000 A 
ATOM     15  C   UNL     1       2.866   4.277  16.931  0.00  0.00    +0.000 A 
ATOM     16  C   UNL     1       1.762   3.593  17.448  0.00  0.00    +0.000 A 
ATOM     17  C   UNL     1       1.943   2.356  18.057  0.00  0.00    +0.000 A 
ATOM     18  F   UNL     1       0.883   1.718  18.574  0.00  0.00    +0.000 F 
ATOM     19  C   UNL     1       3.210   1.794  18.148  0.00  0.00    +0.000 A 
ATOM     20  F   UNL     1       3.381   0.609  18.750  0.00  0.00    +0.000 F 
ATOM     21  C   UNL     1       4.318   2.469  17.644  0.00  0.00    +0.000 A 
ENDBRANCH   2  14
BRANCH   1  23
ATOM     22  O   UNL     1       5.982   4.721  19.815  0.00  0.00    +0.000 OA
ATOM     23  C   UNL     1       5.576   5.458  18.920  0.00  0.00    +0.000 C 
BRANCH  23  24
ATOM     24  C   UNL     1       4.621   6.559  19.248  0.00  0.00    +0.000 C 
ATOM     25  C   UNL     1       3.328   6.260  19.453  0.00  0.00    +0.000 C 
BRANCH  25  26
ATOM     26  C   UNL     1       2.393   7.276  19.758  0.00  0.00    +0.000 A 
ATOM     27  N   UNL     1       1.864   8.227  19.013  0.00  0.00    +0.000 NA
ATOM     28  C   UNL     1       1.059   8.963  19.848  0.00  0.00    +0.000 A 
ATOM     29  C   UNL     1       0.285  10.099  19.576  0.00  0.00    +0.000 A 
ATOM     30  C   UNL     1      -0.425  10.676  20.630  0.00  0.00    +0.000 A 
ATOM     31  F   UNL     1      -1.159  11.772  20.393  0.00  0.00    +0.000 F 
ATOM     32  C   UNL     1      -0.378  10.141  21.916  0.00  0.00    +0.000 A 
ATOM     33  F   UNL     1      -1.066  10.729  22.905  0.00  0.00    +0.000 F 
ATOM     34  C   UNL     1       0.377   9.003  22.206  0.00  0.00    +0.000 A 
ATOM     35  C   UNL     1       1.085   8.444  21.139  0.00  0.00    +0.000 A 
ATOM     36  N   UNL     1       1.923   7.361  21.049  0.00  0.00    +0.000 N 
ATOM     37  H   UNL     1       2.174   6.744  21.808  0.00  0.00    +0.000 HD
ENDBRANCH  25  26
ENDBRANCH  23  24
ENDBRANCH   1  23
TORSDOF 4
ENDMDL
MODEL 2
REMARK VINA RESULT:      -9.7      0.534      1.323
REMARK  Name = 
REMARK  4 active torsions:
REMARK  status: ('A' for Active; 'I' for Inactive)
REMARK    1  A    between atoms: C_2  and  C_3
REMARK    2  A    between atoms: C_2  and  C_16
REMARK    3  A    between atoms: C_4  and  C_5
REMARK    4  A    between atoms: C_17  and  C_18
REMARK                            x       y       z     vdW  Elec       q    Type
REMARK                         _______ _______ _______ _____ _____    ______ ____
ROOT
ATOM      1  C   UNL     1       6.034   5.263  17.307  0.00  0.00    +0.000 A 
ATOM      2  C   UNL     1       5.336   4.454  16.460  0.00  0.00    +0.000 A 
ATOM      3  C   UNL     1       5.804   4.305  15.044  0.00  0.00    +0.000 A 
ATOM      4  C   UNL     1       5.149   3.478  14.118  0.00  0.00    +0.000 A 
ATOM      5  C   UNL     1       5.637   3.344  12.821  0.00  0.00    +0.000 A 
ATOM      6  F   UNL     1       5.005   2.535  11.961  0.00  0.00    +0.000 F 
ATOM      7  C   UNL     1       6.770   4.029  12.406  0.00  0.00    +0.000 A 
ATOM      8  C   UNL     1       7.425   4.868  13.303  0.00  0.00    +0.000 A 
ATOM      9  C   UNL     1       6.939   4.995  14.608  0.00  0.00    +0.000 A 
ATOM     10  N   UNL     1       7.599   5.836  15.495  0.00  0.00    +0.000 N 
ATOM     11  C   UNL     1       7.203   6.043  16.783  0.00  0.00    +0.000 A 
ATOM     12  O   UNL     1       7.807   6.866  17.464  0.00  0.00    +0.000 OA
ATOM     13  H   UNL     1       8.398   6.378  15.193  0.00  0.00    +0.000 HD
ENDROOT
BRANCH   2  14
ATOM     14  C   UNL     1       4.141   3.697  16.927  0.00  0.00    +0.000 A 
ATOM     15  C   UNL     1       2.865   4.276  16.848  0.00  0.00    +0.000 A 
ATOM     16  C   UNL     1       1.761   3.622  17.402  0.00  0.00    +0.000 A 
ATOM     17  C   UNL     1       1.933   2.390  18.026  0.00  0.00    +0.000 A 
ATOM     18  F   UNL     1       0.874   1.781  18.578  0.00  0.00    +0.000 F 
ATOM     19  C   UNL     1       3.192   1.807  18.097  0.00  0.00    +0.000 A 
ATOM     20  F   UNL     1       3.355   0.628  18.713  0.00  0.00    +0.000 F 
ATOM     21  C   UNL     1       4.300   2.452  17.556  0.00  0.00    +0.000 A 
ENDBRANCH   2  14
BRANCH   1  23
ATOM     22  O   UNL     1       6.027   4.746  19.653  0.00  0.00    +0.000 OA
ATOM     23  C   UNL     1       5.621   5.466  18.745  0.00  0.00    +0.000 C 
BRANCH  23  24
ATOM     24  C   UNL     1       4.689   6.592  19.057  0.00  0.00    +0.000 C 
ATOM     25  C   UNL     1       3.403   6.316  19.331  0.00  0.00    +0.000 C 
BRANCH  25  26
ATOM     26  C   UNL     1       2.491   7.356  19.623  0.00  0.00    +0.000 A 
ATOM     27  N   UNL     1       1.816   7.643  20.719  0.00  0.00    +0.000 NA
ATOM     28  C   UNL     1       1.037   8.732  20.413  0.00  0.00    +0.000 A 
ATOM     29  C   UNL     1       0.114   9.426  21.208  0.00  0.00    +0.000 A 
ATOM     30  C   UNL     1      -0.574  10.494  20.632  0.00  0.00    +0.000 A 
ATOM     31  F   UNL     1      -1.472  11.161  21.371  0.00  0.00    +0.000 F 
ATOM     32  C   UNL     1      -0.352  10.873  19.310  0.00  0.00    +0.000 A 
ATOM     33  F   UNL     1      -1.039  11.898  18.788  0.00  0.00    +0.000 F 
ATOM     34  C   UNL     1       0.572  10.204  18.504  0.00  0.00    +0.000 A 
ATOM     35  C   UNL     1       1.246   9.133  19.098  0.00  0.00    +0.000 A 
ATOM     36  N   UNL     1       2.190   8.256  18.625  0.00  0.00    +0.000 N 
ATOM     37  H   UNL     1       2.579   8.253  17.694  0.00  0.00    +0.000 HD
ENDBRANCH  25  26
ENDBRANCH  23  24
ENDBRANCH   1  23
TORSDOF 4
ENDMDL
MODEL 3
REMARK VINA RESULT:      -9.6      0.833      1.049
REMARK  Name = 
REMARK  4 active torsions:
REMARK  status: ('A' for Active; 'I' for Inactive)
REMARK    1  A    between atoms: C_2  and  C_3
REMARK    2  A    between atoms: C_2  and  C_16
REMARK    3  A    between atoms: C_4  and  C_5
REMARK    4  A    between atoms: C_17  and  C_18
REMARK                            x       y       z     vdW  Elec       q    Type
REMARK                         _______ _______ _______ _____ _____    ______ ____
ROOT
ATOM      1  C   UNL     1       5.841   5.337  17.442  0.00  0.00    +0.000 A 
ATOM      2  C   UNL     1       5.229   4.464  16.593  0.00  0.00    +0.000 A 
ATOM      3  C   UNL     1       5.745   4.327  15.192  0.00  0.00    +0.000 A 
ATOM      4  C   UNL     1       5.179   3.437  14.266  0.00  0.00    +0.000 A 
ATOM      5  C   UNL     1       5.711   3.319  12.985  0.00  0.00    +0.000 A 
ATOM      6  F   UNL     1       5.164   2.450  12.123  0.00  0.00    +0.000 F 
ATOM      7  C   UNL     1       6.801   4.079  12.586  0.00  0.00    +0.000 A 
ATOM      8  C   UNL     1       7.367   4.979  13.484  0.00  0.00    +0.000 A 
ATOM      9  C   UNL     1       6.838   5.092  14.774  0.00  0.00    +0.000 A 
ATOM     10  N   UNL     1       7.409   5.994  15.661  0.00  0.00    +0.000 N 
ATOM     11  C   UNL     1       6.964   6.193  16.934  0.00  0.00    +0.000 A 
ATOM     12  O   UNL     1       7.486   7.070  17.615  0.00  0.00    +0.000 OA
ATOM     13  H   UNL     1       8.174   6.589  15.370  0.00  0.00    +0.000 HD
ENDROOT
BRANCH   2  14
ATOM     14  C   UNL     1       4.082   3.628  17.043  0.00  0.00    +0.000 A 
ATOM     15  C   UNL     1       2.775   4.141  16.997  0.00  0.00    +0.000 A 
ATOM     16  C   UNL     1       1.714   3.409  17.537  0.00  0.00    +0.000 A 
ATOM     17  C   UNL     1       1.958   2.167  18.114  0.00  0.00    +0.000 A 
ATOM     18  F   UNL     1       0.939   1.482  18.653  0.00  0.00    +0.000 F 
ATOM     19  C   UNL     1       3.247   1.649  18.151  0.00  0.00    +0.000 A 
ATOM     20  F   UNL     1       3.478   0.459  18.723  0.00  0.00    +0.000 F 
ATOM     21  C   UNL     1       4.312   2.372  17.625  0.00  0.00    +0.000 A 
ENDBRANCH   2  14
BRANCH   1  23
ATOM     22  O   UNL     1       5.950   5.019  19.821  0.00  0.00    +0.000 OA
ATOM     23  C   UNL     1       5.375   5.533  18.864  0.00  0.00    +0.000 C 
BRANCH  23  24
ATOM     24  C   UNL     1       4.176   6.392  19.100  0.00  0.00    +0.000 C 
ATOM     25  C   UNL     1       3.795   7.256  18.145  0.00  0.00    +0.000 C 
BRANCH  25  26
ATOM     26  C   UNL     1       2.670   8.091  18.336  0.00  0.00    +0.000 A 
ATOM     27  N   UNL     1       1.981   8.834  17.493  0.00  0.00    +0.000 NA
ATOM     28  C   UNL     1       1.026   9.477  18.242  0.00  0.00    +0.000 A 
ATOM     29  C   UNL     1       0.049  10.400  17.848  0.00  0.00    +0.000 A 
ATOM     30  C   UNL     1      -0.787  10.930  18.832  0.00  0.00    +0.000 A 
ATOM     31  F   UNL     1      -1.718  11.827  18.477  0.00  0.00    +0.000 F 
ATOM     32  C   UNL     1      -0.667  10.552  20.168  0.00  0.00    +0.000 A 
ATOM     33  F   UNL     1      -1.481  11.090  21.086  0.00  0.00    +0.000 F 
ATOM     34  C   UNL     1       0.292   9.624  20.580  0.00  0.00    +0.000 A 
ATOM     35  C   UNL     1       1.123   9.111  19.581  0.00  0.00    +0.000 A 
ATOM     36  N   UNL     1       2.161   8.213  19.610  0.00  0.00    +0.000 N 
ATOM     37  H   UNL     1       2.510   7.741  20.431  0.00  0.00    +0.000 HD
ENDBRANCH  25  26
ENDBRANCH  23  24
ENDBRANCH   1  23
TORSDOF 4
ENDMDL
MODEL 4
REMARK VINA RESULT:      -9.1      0.518      1.161
REMARK  Name = 
REMARK  4 active torsions:
REMARK  status: ('A' for Active; 'I' for Inactive)
REMARK    1  A    between atoms: C_2  and  C_3
REMARK    2  A    between atoms: C_2  and  C_16
REMARK    3  A    between atoms: C_4  and  C_5
REMARK    4  A    between atoms: C_17  and  C_18
REMARK                            x       y       z     vdW  Elec       q    Type
REMARK                         _______ _______ _______ _____ _____    ______ ____
ROOT
ATOM      1  C   UNL     1       6.170   5.353  17.372  0.00  0.00    +0.000 A 
ATOM      2  C   UNL     1       5.429   4.528  16.578  0.00  0.00    +0.000 A 
ATOM      3  C   UNL     1       5.827   4.348  15.144  0.00  0.00    +0.000 A 
ATOM      4  C   UNL     1       5.126   3.503  14.269  0.00  0.00    +0.000 A 
ATOM      5  C   UNL     1       5.550   3.340  12.953  0.00  0.00    +0.000 A 
ATOM      6  F   UNL     1       4.875   2.516  12.142  0.00  0.00    +0.000 F 
ATOM      7  C   UNL     1       6.664   4.012  12.468  0.00  0.00    +0.000 A 
ATOM      8  C   UNL     1       7.364   4.867  13.315  0.00  0.00    +0.000 A 
ATOM      9  C   UNL     1       6.942   5.024  14.639  0.00  0.00    +0.000 A 
ATOM     10  N   UNL     1       7.647   5.880  15.474  0.00  0.00    +0.000 N 
ATOM     11  C   UNL     1       7.315   6.116  16.775  0.00  0.00    +0.000 A 
ATOM     12  O   UNL     1       7.954   6.951  17.409  0.00  0.00    +0.000 OA
ATOM     13  H   UNL     1       8.432   6.413  15.123  0.00  0.00    +0.000 HD
ENDROOT
BRANCH   2  14
ATOM     14  C   UNL     1       4.257   3.786  17.118  0.00  0.00    +0.000 A 
ATOM     15  C   UNL     1       4.403   2.460  17.557  0.00  0.00    +0.000 A 
ATOM     16  C   UNL     1       3.282   1.721  17.945  0.00  0.00    +0.000 A 
ATOM     17  C   UNL     1       2.021   2.308  17.899  0.00  0.00    +0.000 A 
ATOM     18  F   UNL     1       0.948   1.585  18.247  0.00  0.00    +0.000 F 
ATOM     19  C   UNL     1       1.872   3.623  17.477  0.00  0.00    +0.000 A 
ATOM     20  F   UNL     1       0.653   4.179  17.419  0.00  0.00    +0.000 F 
ATOM     21  C   UNL     1       2.979   4.367  17.081  0.00  0.00    +0.000 A 
ENDBRANCH   2  14
BRANCH   1  23
ATOM     22  O   UNL     1       6.347   4.946  19.734  0.00  0.00    +0.000 OA
ATOM     23  C   UNL     1       5.828   5.588  18.824  0.00  0.00    +0.000 C 
BRANCH  23  24
ATOM     24  C   UNL     1       4.826   6.647  19.148  0.00  0.00    +0.000 C 
ATOM     25  C   UNL     1       3.536   6.302  19.291  0.00  0.00    +0.000 C 
BRANCH  25  26
ATOM     26  C   UNL     1       2.557   7.278  19.590  0.00  0.00    +0.000 A 
ATOM     27  N   UNL     1       2.013   8.223  18.849  0.00  0.00    +0.000 NA
ATOM     28  C   UNL     1       1.162   8.914  19.677  0.00  0.00    +0.000 A 
ATOM     29  C   UNL     1       0.355  10.027  19.406  0.00  0.00    +0.000 A 
ATOM     30  C   UNL     1      -0.402  10.558  20.451  0.00  0.00    +0.000 A 
ATOM     31  F   UNL     1      -1.169  11.632  20.216  0.00  0.00    +0.000 F 
ATOM     32  C   UNL     1      -0.368  10.001  21.728  0.00  0.00    +0.000 A 
ATOM     33  F   UNL     1      -1.100  10.545  22.710  0.00  0.00    +0.000 F 
ATOM     34  C   UNL     1       0.421   8.886  22.017  0.00  0.00    +0.000 A 
ATOM     35  C   UNL     1       1.175   8.372  20.959  0.00  0.00    +0.000 A 
ATOM     36  N   UNL     1       2.053   7.321  20.870  0.00  0.00    +0.000 N 
ATOM     37  H   UNL     1       2.307   6.700  21.624  0.00  0.00    +0.000 HD
ENDBRANCH  25  26
ENDBRANCH  23  24
ENDBRANCH   1  23
TORSDOF 4
ENDMDL
MODEL 5
REMARK VINA RESULT:      -8.8      4.674      7.459
REMARK  Name = 
REMARK  4 active torsions:
REMARK  status: ('A' for Active; 'I' for Inactive)
REMARK    1  A    between atoms: C_2  and  C_3
REMARK    2  A    between atoms: C_2  and  C_16
REMARK    3  A    between atoms: C_4  and  C_5
REMARK    4  A    between atoms: C_17  and  C_18
REMARK                            x       y       z     vdW  Elec       q    Type
REMARK                         _______ _______ _______ _____ _____    ______ ____
ROOT
ATOM      1  C   UNL     1       5.051   5.709  17.877  0.00  0.00    +0.000 A 
ATOM      2  C   UNL     1       3.920   5.707  18.637  0.00  0.00    +0.000 A 
ATOM      3  C   UNL     1       3.631   4.522  19.508  0.00  0.00    +0.000 A 
ATOM      4  C   UNL     1       2.497   4.453  20.332  0.00  0.00    +0.000 A 
ATOM      5  C   UNL     1       2.284   3.347  21.150  0.00  0.00    +0.000 A 
ATOM      6  F   UNL     1       1.203   3.311  21.940  0.00  0.00    +0.000 F 
ATOM      7  C   UNL     1       3.175   2.283  21.166  0.00  0.00    +0.000 A 
ATOM      8  C   UNL     1       4.298   2.324  20.345  0.00  0.00    +0.000 A 
ATOM      9  C   UNL     1       4.516   3.439  19.529  0.00  0.00    +0.000 A 
ATOM     10  N   UNL     1       5.638   3.469  18.713  0.00  0.00    +0.000 N 
ATOM     11  C   UNL     1       5.938   4.499  17.871  0.00  0.00    +0.000 A 
ATOM     12  O   UNL     1       6.911   4.397  17.131  0.00  0.00    +0.000 OA
ATOM     13  H   UNL     1       6.271   2.681  18.678  0.00  0.00    +0.000 HD
ENDROOT
BRANCH   2  14
ATOM     14  C   UNL     1       2.989   6.869  18.638  0.00  0.00    +0.000 A 
ATOM     15  C   UNL     1       2.766   7.594  17.456  0.00  0.00    +0.000 A 
ATOM     16  C   UNL     1       1.995   8.760  17.482  0.00  0.00    +0.000 A 
ATOM     17  C   UNL     1       1.445   9.194  18.684  0.00  0.00    +0.000 A 
ATOM     18  F   UNL     1       0.728  10.326  18.706  0.00  0.00    +0.000 F 
ATOM     19  C   UNL     1       1.652   8.474  19.854  0.00  0.00    +0.000 A 
ATOM     20  F   UNL     1       1.132   8.906  21.011  0.00  0.00    +0.000 F 
ATOM     21  C   UNL     1       2.424   7.317  19.842  0.00  0.00    +0.000 A 
ENDBRANCH   2  14
BRANCH   1  23
ATOM     22  O   UNL     1       5.107   6.883  15.780  0.00  0.00    +0.000 OA
ATOM     23  C   UNL     1       5.407   6.865  16.972  0.00  0.00    +0.000 C 
BRANCH  23  24
ATOM     24  C   UNL     1       6.143   8.022  17.564  0.00  0.00    +0.000 C 
ATOM     25  C   UNL     1       7.485   8.043  17.499  0.00  0.00    +0.000 C 
BRANCH  25  26
ATOM     26  C   UNL     1       8.216   9.117  18.056  0.00  0.00    +0.000 A 
ATOM     27  N   UNL     1       8.970   9.193  19.135  0.00  0.00    +0.000 NA
ATOM     28  C   UNL     1       9.385  10.500  19.219  0.00  0.00    +0.000 A 
ATOM     29  C   UNL     1      10.184  11.126  20.185  0.00  0.00    +0.000 A 
ATOM     30  C   UNL     1      10.431  12.493  20.045  0.00  0.00    +0.000 A 
ATOM     31  F   UNL     1      11.180  13.114  20.967  0.00  0.00    +0.000 F 
ATOM     32  C   UNL     1       9.911  13.219  18.976  0.00  0.00    +0.000 A 
ATOM     33  F   UNL     1      10.162  14.532  18.880  0.00  0.00    +0.000 F 
ATOM     34  C   UNL     1       9.122  12.613  17.996  0.00  0.00    +0.000 A 
ATOM     35  C   UNL     1       8.881  11.245  18.158  0.00  0.00    +0.000 A 
ATOM     36  N   UNL     1       8.160  10.338  17.423  0.00  0.00    +0.000 N 
ATOM     37  H   UNL     1       7.652  10.538  16.573  0.00  0.00    +0.000 HD
ENDBRANCH  25  26
ENDBRANCH  23  24
ENDBRANCH   1  23
TORSDOF 4
ENDMDL
MODEL 6
REMARK VINA RESULT:      -8.7      4.646     11.422
REMARK  Name = 
REMARK  4 active torsions:
REMARK  status: ('A' for Active; 'I' for Inactive)
REMARK    1  A    between atoms: C_2  and  C_3
REMARK    2  A    between atoms: C_2  and  C_16
REMARK    3  A    between atoms: C_4  and  C_5
REMARK    4  A    between atoms: C_17  and  C_18
REMARK                            x       y       z     vdW  Elec       q    Type
REMARK                         _______ _______ _______ _____ _____    ______ ____
ROOT
ATOM      1  C   UNL     1      -2.427  11.835  18.549  0.00  0.00    +0.000 A 
ATOM      2  C   UNL     1      -3.142  12.291  19.616  0.00  0.00    +0.000 A 
ATOM      3  C   UNL     1      -4.639  12.234  19.567  0.00  0.00    +0.000 A 
ATOM      4  C   UNL     1      -5.443  12.668  20.633  0.00  0.00    +0.000 A 
ATOM      5  C   UNL     1      -6.830  12.567  20.558  0.00  0.00    +0.000 A 
ATOM      6  F   UNL     1      -7.576  12.972  21.594  0.00  0.00    +0.000 F 
ATOM      7  C   UNL     1      -7.453  12.049  19.431  0.00  0.00    +0.000 A 
ATOM      8  C   UNL     1      -6.675  11.628  18.357  0.00  0.00    +0.000 A 
ATOM      9  C   UNL     1      -5.281  11.722  18.436  0.00  0.00    +0.000 A 
ATOM     10  N   UNL     1      -4.514  11.301  17.358  0.00  0.00    +0.000 N 
ATOM     11  C   UNL     1      -3.153  11.360  17.325  0.00  0.00    +0.000 A 
ATOM     12  O   UNL     1      -2.569  11.037  16.294  0.00  0.00    +0.000 OA
ATOM     13  H   UNL     1      -4.955  10.965  16.511  0.00  0.00    +0.000 HD
ENDROOT
BRANCH   2  14
ATOM     14  C   UNL     1      -2.461  12.812  20.834  0.00  0.00    +0.000 A 
ATOM     15  C   UNL     1      -2.062  11.930  21.851  0.00  0.00    +0.000 A 
ATOM     16  C   UNL     1      -1.540  12.429  23.048  0.00  0.00    +0.000 A 
ATOM     17  C   UNL     1      -1.413  13.803  23.223  0.00  0.00    +0.000 A 
ATOM     18  F   UNL     1      -0.935  14.275  24.384  0.00  0.00    +0.000 F 
ATOM     19  C   UNL     1      -1.794  14.680  22.216  0.00  0.00    +0.000 A 
ATOM     20  F   UNL     1      -1.683  16.003  22.396  0.00  0.00    +0.000 F 
ATOM     21  C   UNL     1      -2.322  14.196  21.023  0.00  0.00    +0.000 A 
ENDBRANCH   2  14
BRANCH   1  23
ATOM     22  O   UNL     1      -0.282  12.906  18.384  0.00  0.00    +0.000 OA
ATOM     23  C   UNL     1      -0.917  11.864  18.523  0.00  0.00    +0.000 C 
BRANCH  23  24
ATOM     24  C   UNL     1      -0.186  10.571  18.683  0.00  0.00    +0.000 C 
ATOM     25  C   UNL     1       1.038  10.444  18.145  0.00  0.00    +0.000 C 
BRANCH  25  26
ATOM     26  C   UNL     1       1.757   9.233  18.268  0.00  0.00    +0.000 A 
ATOM     27  N   UNL     1       2.630   8.651  17.469  0.00  0.00    +0.000 NA
ATOM     28  C   UNL     1       2.962   7.461  18.070  0.00  0.00    +0.000 A 
ATOM     29  C   UNL     1       3.829   6.449  17.635  0.00  0.00    +0.000 A 
ATOM     30  C   UNL     1       3.964   5.314  18.435  0.00  0.00    +0.000 A 
ATOM     31  F   UNL     1       4.776   4.327  18.029  0.00  0.00    +0.000 F 
ATOM     32  C   UNL     1       3.269   5.185  19.636  0.00  0.00    +0.000 A 
ATOM     33  F   UNL     1       3.416   4.075  20.373  0.00  0.00    +0.000 F 
ATOM     34  C   UNL     1       2.410   6.186  20.094  0.00  0.00    +0.000 A 
ATOM     35  C   UNL     1       2.284   7.312  19.275  0.00  0.00    +0.000 A 
ATOM     36  N   UNL     1       1.542   8.461  19.388  0.00  0.00    +0.000 N 
ATOM     37  H   UNL     1       0.922   8.691  20.150  0.00  0.00    +0.000 HD
ENDBRANCH  25  26
ENDBRANCH  23  24
ENDBRANCH   1  23
TORSDOF 4
ENDMDL
MODEL 7
REMARK VINA RESULT:      -8.6      4.623     11.183
REMARK  Name = 
REMARK  4 active torsions:
REMARK  status: ('A' for Active; 'I' for Inactive)
REMARK    1  A    between atoms: C_2  and  C_3
REMARK    2  A    between atoms: C_2  and  C_16
REMARK    3  A    between atoms: C_4  and  C_5
REMARK    4  A    between atoms: C_17  and  C_18
REMARK                            x       y       z     vdW  Elec       q    Type
REMARK                         _______ _______ _______ _____ _____    ______ ____
ROOT
ATOM      1  C   UNL     1      -2.511  11.782  18.303  0.00  0.00    +0.000 A 
ATOM      2  C   UNL     1      -3.273  12.238  19.337  0.00  0.00    +0.000 A 
ATOM      3  C   UNL     1      -4.766  12.208  19.211  0.00  0.00    +0.000 A 
ATOM      4  C   UNL     1      -5.617  12.644  20.238  0.00  0.00    +0.000 A 
ATOM      5  C   UNL     1      -6.999  12.569  20.090  0.00  0.00    +0.000 A 
ATOM      6  F   UNL     1      -7.791  12.975  21.092  0.00  0.00    +0.000 F 
ATOM      7  C   UNL     1      -7.572  12.075  18.927  0.00  0.00    +0.000 A 
ATOM      8  C   UNL     1      -6.746  11.652  17.889  0.00  0.00    +0.000 A 
ATOM      9  C   UNL     1      -5.357  11.720  18.041  0.00  0.00    +0.000 A 
ATOM     10  N   UNL     1      -4.543  11.298  16.999  0.00  0.00    +0.000 N 
ATOM     11  C   UNL     1      -3.181  11.334  17.037  0.00  0.00    +0.000 A 
ATOM     12  O   UNL     1      -2.550  11.012  16.034  0.00  0.00    +0.000 OA
ATOM     13  H   UNL     1      -4.945  10.980  16.127  0.00  0.00    +0.000 HD
ENDROOT
BRANCH   2  14
ATOM     14  C   UNL     1      -2.648  12.734  20.594  0.00  0.00    +0.000 A 
ATOM     15  C   UNL     1      -2.476  14.112  20.800  0.00  0.00    +0.000 A 
ATOM     16  C   UNL     1      -1.775  14.574  21.919  0.00  0.00    +0.000 A 
ATOM     17  C   UNL     1      -1.255  13.660  22.829  0.00  0.00    +0.000 A 
ATOM     18  F   UNL     1      -0.562  14.109  23.885  0.00  0.00    +0.000 F 
ATOM     19  C   UNL     1      -1.432  12.295  22.637  0.00  0.00    +0.000 A 
ATOM     20  F   UNL     1      -0.914  11.419  23.509  0.00  0.00    +0.000 F 
ATOM     21  C   UNL     1      -2.120  11.824  21.524  0.00  0.00    +0.000 A 
ENDBRANCH   2  14
BRANCH   1  23
ATOM     22  O   UNL     1      -0.346  12.823  18.358  0.00  0.00    +0.000 OA
ATOM     23  C   UNL     1      -1.002  11.784  18.355  0.00  0.00    +0.000 C 
BRANCH  23  24
ATOM     24  C   UNL     1      -0.298  10.468  18.414  0.00  0.00    +0.000 C 
ATOM     25  C   UNL     1       1.044  10.445  18.375  0.00  0.00    +0.000 C 
BRANCH  25  26
ATOM     26  C   UNL     1       1.745   9.218  18.419  0.00  0.00    +0.000 A 
ATOM     27  N   UNL     1       2.558   8.645  17.554  0.00  0.00    +0.000 NA
ATOM     28  C   UNL     1       2.902   7.432  18.098  0.00  0.00    +0.000 A 
ATOM     29  C   UNL     1       3.721   6.418  17.583  0.00  0.00    +0.000 A 
ATOM     30  C   UNL     1       3.880   5.257  18.341  0.00  0.00    +0.000 A 
ATOM     31  F   UNL     1       4.647   4.268  17.858  0.00  0.00    +0.000 F 
ATOM     32  C   UNL     1       3.255   5.103  19.576  0.00  0.00    +0.000 A 
ATOM     33  F   UNL     1       3.423   3.969  20.270  0.00  0.00    +0.000 F 
ATOM     34  C   UNL     1       2.444   6.106  20.113  0.00  0.00    +0.000 A 
ATOM     35  C   UNL     1       2.292   7.258  19.337  0.00  0.00    +0.000 A 
ATOM     36  N   UNL     1       1.581   8.416  19.526  0.00  0.00    +0.000 N 
ATOM     37  H   UNL     1       1.011   8.634  20.331  0.00  0.00    +0.000 HD
ENDBRANCH  25  26
ENDBRANCH  23  24
ENDBRANCH   1  23
TORSDOF 4
ENDMDL
MODEL 8
REMARK VINA RESULT:      -8.5      0.722      1.758
REMARK  Name = 
REMARK  4 active torsions:
REMARK  status: ('A' for Active; 'I' for Inactive)
REMARK    1  A    between atoms: C_2  and  C_3
REMARK    2  A    between atoms: C_2  and  C_16
REMARK    3  A    between atoms: C_4  and  C_5
REMARK    4  A    between atoms: C_17  and  C_18
REMARK                            x       y       z     vdW  Elec       q    Type
REMARK                         _______ _______ _______ _____ _____    ______ ____
ROOT
ATOM      1  C   UNL     1       6.103   5.343  17.405  0.00  0.00    +0.000 A 
ATOM      2  C   UNL     1       5.367   4.519  16.605  0.00  0.00    +0.000 A 
ATOM      3  C   UNL     1       5.779   4.332  15.177  0.00  0.00    +0.000 A 
ATOM      4  C   UNL     1       5.083   3.488  14.298  0.00  0.00    +0.000 A 
ATOM      5  C   UNL     1       5.521   3.318  12.987  0.00  0.00    +0.000 A 
ATOM      6  F   UNL     1       4.850   2.494  12.171  0.00  0.00    +0.000 F 
ATOM      7  C   UNL     1       6.642   3.983  12.511  0.00  0.00    +0.000 A 
ATOM      8  C   UNL     1       7.337   4.838  13.362  0.00  0.00    +0.000 A 
ATOM      9  C   UNL     1       6.903   5.002  14.681  0.00  0.00    +0.000 A 
ATOM     10  N   UNL     1       7.602   5.858  15.521  0.00  0.00    +0.000 N 
ATOM     11  C   UNL     1       7.258   6.100  16.817  0.00  0.00    +0.000 A 
ATOM     12  O   UNL     1       7.893   6.934  17.455  0.00  0.00    +0.000 OA
ATOM     13  H   UNL     1       8.393   6.386  15.176  0.00  0.00    +0.000 HD
ENDROOT
BRANCH   2  14
ATOM     14  C   UNL     1       4.186   3.784  17.136  0.00  0.00    +0.000 A 
ATOM     15  C   UNL     1       4.328   2.470  17.611  0.00  0.00    +0.000 A 
ATOM     16  C   UNL     1       3.201   1.734  17.990  0.00  0.00    +0.000 A 
ATOM     17  C   UNL     1       1.940   2.313  17.900  0.00  0.00    +0.000 A 
ATOM     18  F   UNL     1       0.862   1.593  18.240  0.00  0.00    +0.000 F 
ATOM     19  C   UNL     1       1.794   3.617  17.442  0.00  0.00    +0.000 A 
ATOM     20  F   UNL     1       0.574   4.164  17.343  0.00  0.00    +0.000 F 
ATOM     21  C   UNL     1       2.907   4.357  17.055  0.00  0.00    +0.000 A 
ENDBRANCH   2  14
BRANCH   1  23
ATOM     22  O   UNL     1       6.220   4.914  19.766  0.00  0.00    +0.000 OA
ATOM     23  C   UNL     1       5.747   5.585  18.852  0.00  0.00    +0.000 C 
BRANCH  23  24
ATOM     24  C   UNL     1       4.788   6.687  19.167  0.00  0.00    +0.000 C 
ATOM     25  C   UNL     1       3.485   6.395  19.312  0.00  0.00    +0.000 C 
BRANCH  25  26
ATOM     26  C   UNL     1       2.548   7.413  19.602  0.00  0.00    +0.000 A 
ATOM     27  N   UNL     1       1.878   7.695  20.702  0.00  0.00    +0.000 NA
ATOM     28  C   UNL     1       1.066   8.759  20.392  0.00  0.00    +0.000 A 
ATOM     29  C   UNL     1       0.133   9.437  21.188  0.00  0.00    +0.000 A 
ATOM     30  C   UNL     1      -0.591  10.479  20.607  0.00  0.00    +0.000 A 
ATOM     31  F   UNL     1      -1.499  11.130  21.348  0.00  0.00    +0.000 F 
ATOM     32  C   UNL     1      -0.394  10.847  19.277  0.00  0.00    +0.000 A 
ATOM     33  F   UNL     1      -1.115  11.846  18.750  0.00  0.00    +0.000 F 
ATOM     34  C   UNL     1       0.539  10.193  18.469  0.00  0.00    +0.000 A 
ATOM     35  C   UNL     1       1.249   9.148  19.069  0.00  0.00    +0.000 A 
ATOM     36  N   UNL     1       2.211   8.292  18.597  0.00  0.00    +0.000 N 
ATOM     37  H   UNL     1       2.590   8.288  17.660  0.00  0.00    +0.000 HD
ENDBRANCH  25  26
ENDBRANCH  23  24
ENDBRANCH   1  23
TORSDOF 4
ENDMDL
MODEL 9
REMARK VINA RESULT:      -8.5      4.738     11.534
REMARK  Name = 
REMARK  4 active torsions:
REMARK  status: ('A' for Active; 'I' for Inactive)
REMARK    1  A    between atoms: C_2  and  C_3
REMARK    2  A    between atoms: C_2  and  C_16
REMARK    3  A    between atoms: C_4  and  C_5
REMARK    4  A    between atoms: C_17  and  C_18
REMARK                            x       y       z     vdW  Elec       q    Type
REMARK                         _______ _______ _______ _____ _____    ______ ____
ROOT
ATOM      1  C   UNL     1      -2.625  11.843  18.452  0.00  0.00    +0.000 A 
ATOM      2  C   UNL     1      -3.292  12.256  19.568  0.00  0.00    +0.000 A 
ATOM      3  C   UNL     1      -4.787  12.155  19.601  0.00  0.00    +0.000 A 
ATOM      4  C   UNL     1      -5.542  12.544  20.719  0.00  0.00    +0.000 A 
ATOM      5  C   UNL     1      -6.927  12.403  20.719  0.00  0.00    +0.000 A 
ATOM      6  F   UNL     1      -7.625  12.765  21.804  0.00  0.00    +0.000 F 
ATOM      7  C   UNL     1      -7.597  11.888  19.618  0.00  0.00    +0.000 A 
ATOM      8  C   UNL     1      -6.869  11.511  18.493  0.00  0.00    +0.000 A 
ATOM      9  C   UNL     1      -5.477  11.646  18.497  0.00  0.00    +0.000 A 
ATOM     10  N   UNL     1      -4.760  11.269  17.369  0.00  0.00    +0.000 N 
ATOM     11  C   UNL     1      -3.405  11.370  17.261  0.00  0.00    +0.000 A 
ATOM     12  O   UNL     1      -2.871  11.084  16.193  0.00  0.00    +0.000 OA
ATOM     13  H   UNL     1      -5.238  10.936  16.542  0.00  0.00    +0.000 HD
ENDROOT
BRANCH   2  14
ATOM     14  C   UNL     1      -2.559  12.774  20.756  0.00  0.00    +0.000 A 
ATOM     15  C   UNL     1      -2.071  11.885  21.726  0.00  0.00    +0.000 A 
ATOM     16  C   UNL     1      -1.497  12.375  22.903  0.00  0.00    +0.000 A 
ATOM     17  C   UNL     1      -1.406  13.749  23.104  0.00  0.00    +0.000 A 
ATOM     18  F   UNL     1      -0.878  14.211  24.246  0.00  0.00    +0.000 F 
ATOM     19  C   UNL     1      -1.877  14.634  22.142  0.00  0.00    +0.000 A 
ATOM     20  F   UNL     1      -1.801  15.956  22.347  0.00  0.00    +0.000 F 
ATOM     21  C   UNL     1      -2.457  14.158  20.970  0.00  0.00    +0.000 A 
ENDBRANCH   2  14
BRANCH   1  23
ATOM     22  O   UNL     1      -0.515  12.987  18.328  0.00  0.00    +0.000 OA
ATOM     23  C   UNL     1      -1.121  11.918  18.343  0.00  0.00    +0.000 C 
BRANCH  23  24
ATOM     24  C   UNL     1      -0.357  10.637  18.260  0.00  0.00    +0.000 C 
ATOM     25  C   UNL     1       0.585  10.379  19.183  0.00  0.00    +0.000 C 
BRANCH  25  26
ATOM     26  C   UNL     1       1.334   9.181  19.131  0.00  0.00    +0.000 A 
ATOM     27  N   UNL     1       1.459   8.192  19.994  0.00  0.00    +0.000 NA
ATOM     28  C   UNL     1       2.363   7.316  19.442  0.00  0.00    +0.000 A 
ATOM     29  C   UNL     1       2.872   6.114  19.952  0.00  0.00    +0.000 A 
ATOM     30  C   UNL     1       3.815   5.426  19.188  0.00  0.00    +0.000 A 
ATOM     31  F   UNL     1       4.325   4.281  19.665  0.00  0.00    +0.000 F 
ATOM     32  C   UNL     1       4.239   5.907  17.951  0.00  0.00    +0.000 A 
ATOM     33  F   UNL     1       5.155   5.224  17.250  0.00  0.00    +0.000 F 
ATOM     34  C   UNL     1       3.736   7.097  17.419  0.00  0.00    +0.000 A 
ATOM     35  C   UNL     1       2.797   7.774  18.202  0.00  0.00    +0.000 A 
ATOM     36  N   UNL     1       2.112   8.949  18.019  0.00  0.00    +0.000 N 
ATOM     37  H   UNL     1       2.186   9.555  17.215  0.00  0.00    +0.000 HD
ENDBRANCH  25  26
ENDBRANCH  23  24
ENDBRANCH   1  23
TORSDOF 4
ENDMDL
