MODEL 1
REMARK VINA RESULT:      -6.9      0.000      0.000
REMARK  Name = 
REMARK  10 active torsions:
REMARK  status: ('A' for Active; 'I' for Inactive)
REMARK    1  A    between atoms: C_1  and  C_2
REMARK    2  A    between atoms: C_4  and  C_5
REMARK    3  A    between atoms: C_6  and  N_7
REMARK    4  A    between atoms: C_8  and  S_9
REMARK    5  A    between atoms: S_9  and  C_10
REMARK    6  A    between atoms: C_10  and  C_11
REMARK    7  A    between atoms: C_11  and  C_12
REMARK    8  A    between atoms: C_12  and  C_13
REMARK    9  A    between atoms: C_13  and  O_15
REMARK   10  A    between atoms: C_23  and  C_24
REMARK                            x       y       z     vdW  Elec       q    Type
REMARK                         _______ _______ _______ _____ _____    ______ ____
ROOT
ATOM      1  N   UNL     1       3.606   5.126  18.988  0.00  0.00    +0.000 N 
ATOM      2  C   UNL     1       4.954   4.750  19.178  0.00  0.00    +0.000 A 
ATOM      3  N   UNL     1       5.137   3.444  19.127  0.00  0.00    +0.000 NA
ATOM      4  C   UNL     1       3.897   2.917  18.932  0.00  0.00    +0.000 A 
ATOM      5  C   UNL     1       3.500   1.585  18.757  0.00  0.00    +0.000 A 
ATOM      6  C   UNL     1       2.147   1.339  18.528  0.00  0.00    +0.000 A 
ATOM      7  C   UNL     1       1.260   2.405  18.558  0.00  0.00    +0.000 A 
ATOM      8  N   UNL     1       1.595   3.695  18.785  0.00  0.00    +0.000 NA
ATOM      9  C   UNL     1       2.925   3.911  18.898  0.00  0.00    +0.000 A 
ENDROOT
BRANCH   1  15
ATOM     10  C   UNL     1       1.579  10.553  18.500  0.00  0.00    +0.000 C 
ATOM     11  C   UNL     1       2.085   9.148  18.605  0.00  0.00    +0.000 A 
ATOM     12  C   UNL     1       2.830   8.571  17.586  0.00  0.00    +0.000 A 
ATOM     13  C   UNL     1       3.337   7.254  17.677  0.00  0.00    +0.000 A 
ATOM     14  C   UNL     1       4.162   6.852  16.477  0.00  0.00    +0.000 C 
ATOM     15  C   UNL     1       3.035   6.454  18.826  0.00  0.00    +0.000 A 
ATOM     16  C   UNL     1       2.182   7.018  19.816  0.00  0.00    +0.000 A 
ATOM     17  C   UNL     1       1.528   6.294  20.969  0.00  0.00    +0.000 C 
ATOM     18  C   UNL     1       1.771   8.366  19.709  0.00  0.00    +0.000 A 
ENDBRANCH   1  15
BRANCH   2  19
ATOM     19  S   UNL     1       6.301   5.840  19.260  0.00  0.00    +0.000 S 
BRANCH  19  20
ATOM     20  C   UNL     1       7.532   5.058  18.173  0.00  0.00    +0.000 C 
BRANCH  20  21
ATOM     21  C   UNL     1       7.292   5.419  16.711  0.00  0.00    +0.000 C 
BRANCH  21  22
ATOM     22  C   UNL     1       6.746   4.251  15.890  0.00  0.00    +0.000 C 
BRANCH  22  23
ATOM     23  C   UNL     1       6.789   4.546  14.420  0.00  0.00    +0.000 C 
ATOM     24  O   UNL     1       6.097   3.974  13.591  0.00  0.00    +0.000 OA
BRANCH  23  25
ATOM     25  O   UNL     1       7.715   5.477  14.079  0.00  0.00    +0.000 OA
ATOM     26  H   UNL     1       7.488   6.374  14.384  0.00  0.00    +0.000 HD
ENDBRANCH  23  25
ENDBRANCH  22  23
ENDBRANCH  21  22
ENDBRANCH  20  21
ENDBRANCH  19  20
ENDBRANCH   2  19
TORSDOF 7
ENDMDL
MODEL 2
REMARK VINA RESULT:      -6.8      5.623      9.062
REMARK  Name = 
REMARK  10 active torsions:
REMARK  status: ('A' for Active; 'I' for Inactive)
REMARK    1  A    between atoms: C_1  and  C_2
REMARK    2  A    between atoms: C_4  and  C_5
REMARK    3  A    between atoms: C_6  and  N_7
REMARK    4  A    between atoms: C_8  and  S_9
REMARK    5  A    between atoms: S_9  and  C_10
REMARK    6  A    between atoms: C_10  and  C_11
REMARK    7  A    between atoms: C_11  and  C_12
REMARK    8  A    between atoms: C_12  and  C_13
REMARK    9  A    between atoms: C_13  and  O_15
REMARK   10  A    between atoms: C_23  and  C_24
REMARK                            x       y       z     vdW  Elec       q    Type
REMARK                         _______ _______ _______ _____ _____    ______ ____
ROOT
ATOM      1  N   UNL     1       0.228  11.016  19.572  0.00  0.00    +0.000 N 
ATOM      2  C   UNL     1      -0.862  11.356  18.741  0.00  0.00    +0.000 A 
ATOM      3  N   UNL     1      -0.977  12.655  18.547  0.00  0.00    +0.000 NA
ATOM      4  C   UNL     1       0.025  13.216  19.278  0.00  0.00    +0.000 A 
ATOM      5  C   UNL     1       0.406  14.558  19.407  0.00  0.00    +0.000 A 
ATOM      6  C   UNL     1       1.516  14.840  20.202  0.00  0.00    +0.000 A 
ATOM      7  C   UNL     1       2.137  13.800  20.875  0.00  0.00    +0.000 A 
ATOM      8  N   UNL     1       1.762  12.501  20.826  0.00  0.00    +0.000 NA
ATOM      9  C   UNL     1       0.750  12.250  19.966  0.00  0.00    +0.000 A 
ENDROOT
BRANCH   1  15
ATOM     10  C   UNL     1       2.123   5.641  20.717  0.00  0.00    +0.000 C 
ATOM     11  C   UNL     1       1.660   7.034  20.425  0.00  0.00    +0.000 A 
ATOM     12  C   UNL     1       2.071   7.707  19.283  0.00  0.00    +0.000 A 
ATOM     13  C   UNL     1       1.626   9.014  18.977  0.00  0.00    +0.000 A 
ATOM     14  C   UNL     1       2.159   9.529  17.661  0.00  0.00    +0.000 C 
ATOM     15  C   UNL     1       0.768   9.704  19.893  0.00  0.00    +0.000 A 
ATOM     16  C   UNL     1       0.439   9.046  21.111  0.00  0.00    +0.000 A 
ATOM     17  C   UNL     1      -0.228   9.657  22.320  0.00  0.00    +0.000 C 
ATOM     18  C   UNL     1       0.847   7.710  21.325  0.00  0.00    +0.000 A 
ENDBRANCH   1  15
BRANCH   2  19
ATOM     19  S   UNL     1      -1.849  10.228  17.866  0.00  0.00    +0.000 S 
BRANCH  19  20
ATOM     20  C   UNL     1      -3.344  11.194  17.489  0.00  0.00    +0.000 C 
BRANCH  20  21
ATOM     21  C   UNL     1      -3.770  11.014  16.035  0.00  0.00    +0.000 C 
BRANCH  21  22
ATOM     22  C   UNL     1      -2.740  10.255  15.200  0.00  0.00    +0.000 C 
BRANCH  22  23
ATOM     23  C   UNL     1      -3.265   9.949  13.829  0.00  0.00    +0.000 C 
ATOM     24  O   UNL     1      -4.454   9.861  13.559  0.00  0.00    +0.000 OA
BRANCH  23  25
ATOM     25  O   UNL     1      -2.292   9.719  12.913  0.00  0.00    +0.000 OA
ATOM     26  H   UNL     1      -2.560   9.943  12.003  0.00  0.00    +0.000 HD
ENDBRANCH  23  25
ENDBRANCH  22  23
ENDBRANCH  21  22
ENDBRANCH  20  21
ENDBRANCH  19  20
ENDBRANCH   2  19
TORSDOF 7
ENDMDL
MODEL 3
REMARK VINA RESULT:      -6.8      2.619      5.776
REMARK  Name = 
REMARK  10 active torsions:
REMARK  status: ('A' for Active; 'I' for Inactive)
REMARK    1  A    between atoms: C_1  and  C_2
REMARK    2  A    between atoms: C_4  and  C_5
REMARK    3  A    between atoms: C_6  and  N_7
REMARK    4  A    between atoms: C_8  and  S_9
REMARK    5  A    between atoms: S_9  and  C_10
REMARK    6  A    between atoms: C_10  and  C_11
REMARK    7  A    between atoms: C_11  and  C_12
REMARK    8  A    between atoms: C_12  and  C_13
REMARK    9  A    between atoms: C_13  and  O_15
REMARK   10  A    between atoms: C_23  and  C_24
REMARK                            x       y       z     vdW  Elec       q    Type
REMARK                         _______ _______ _______ _____ _____    ______ ____
ROOT
ATOM      1  N   UNL     1       4.473   5.665  18.092  0.00  0.00    +0.000 N 
ATOM      2  C   UNL     1       4.317   4.925  19.286  0.00  0.00    +0.000 A 
ATOM      3  N   UNL     1       3.400   5.430  20.089  0.00  0.00    +0.000 NA
ATOM      4  C   UNL     1       2.946   6.546  19.456  0.00  0.00    +0.000 A 
ATOM      5  C   UNL     1       1.939   7.447  19.828  0.00  0.00    +0.000 A 
ATOM      6  C   UNL     1       1.651   8.491  18.950  0.00  0.00    +0.000 A 
ATOM      7  C   UNL     1       2.415   8.627  17.800  0.00  0.00    +0.000 A 
ATOM      8  N   UNL     1       3.435   7.816  17.438  0.00  0.00    +0.000 NA
ATOM      9  C   UNL     1       3.618   6.756  18.257  0.00  0.00    +0.000 A 
ENDROOT
BRANCH   1  15
ATOM     10  C   UNL     1       7.455   4.641  13.208  0.00  0.00    +0.000 C 
ATOM     11  C   UNL     1       6.705   4.892  14.480  0.00  0.00    +0.000 A 
ATOM     12  C   UNL     1       7.219   5.720  15.468  0.00  0.00    +0.000 A 
ATOM     13  C   UNL     1       6.516   5.989  16.666  0.00  0.00    +0.000 A 
ATOM     14  C   UNL     1       7.239   6.957  17.573  0.00  0.00    +0.000 C 
ATOM     15  C   UNL     1       5.258   5.350  16.910  0.00  0.00    +0.000 A 
ATOM     16  C   UNL     1       4.792   4.420  15.938  0.00  0.00    +0.000 A 
ATOM     17  C   UNL     1       3.643   3.453  16.088  0.00  0.00    +0.000 C 
ATOM     18  C   UNL     1       5.497   4.253  14.725  0.00  0.00    +0.000 A 
ENDBRANCH   1  15
BRANCH   2  19
ATOM     19  S   UNL     1       5.060   3.394  19.624  0.00  0.00    +0.000 S 
BRANCH  19  20
ATOM     20  C   UNL     1       3.664   2.372  20.184  0.00  0.00    +0.000 C 
BRANCH  20  21
ATOM     21  C   UNL     1       2.902   1.775  19.005  0.00  0.00    +0.000 C 
BRANCH  21  22
ATOM     22  C   UNL     1       1.386   1.907  19.144  0.00  0.00    +0.000 C 
BRANCH  22  23
ATOM     23  C   UNL     1       0.944   3.331  18.984  0.00  0.00    +0.000 C 
ATOM     24  O   UNL     1       0.975   3.938  17.924  0.00  0.00    +0.000 OA
BRANCH  23  25
ATOM     25  O   UNL     1       0.552   3.913  20.144  0.00  0.00    +0.000 OA
ATOM     26  H   UNL     1       1.296   4.248  20.676  0.00  0.00    +0.000 HD
ENDBRANCH  23  25
ENDBRANCH  22  23
ENDBRANCH  21  22
ENDBRANCH  20  21
ENDBRANCH  19  20
ENDBRANCH   2  19
TORSDOF 7
ENDMDL
MODEL 4
REMARK VINA RESULT:      -6.7      0.634      1.952
REMARK  Name = 
REMARK  10 active torsions:
REMARK  status: ('A' for Active; 'I' for Inactive)
REMARK    1  A    between atoms: C_1  and  C_2
REMARK    2  A    between atoms: C_4  and  C_5
REMARK    3  A    between atoms: C_6  and  N_7
REMARK    4  A    between atoms: C_8  and  S_9
REMARK    5  A    between atoms: S_9  and  C_10
REMARK    6  A    between atoms: C_10  and  C_11
REMARK    7  A    between atoms: C_11  and  C_12
REMARK    8  A    between atoms: C_12  and  C_13
REMARK    9  A    between atoms: C_13  and  O_15
REMARK   10  A    between atoms: C_23  and  C_24
REMARK                            x       y       z     vdW  Elec       q    Type
REMARK                         _______ _______ _______ _____ _____    ______ ____
ROOT
ATOM      1  N   UNL     1       3.474   5.203  19.026  0.00  0.00    +0.000 N 
ATOM      2  C   UNL     1       4.812   4.769  19.158  0.00  0.00    +0.000 A 
ATOM      3  N   UNL     1       4.942   3.460  19.065  0.00  0.00    +0.000 NA
ATOM      4  C   UNL     1       3.676   2.986  18.899  0.00  0.00    +0.000 A 
ATOM      5  C   UNL     1       3.222   1.676  18.702  0.00  0.00    +0.000 A 
ATOM      6  C   UNL     1       1.853   1.489  18.515  0.00  0.00    +0.000 A 
ATOM      7  C   UNL     1       1.010   2.586  18.605  0.00  0.00    +0.000 A 
ATOM      8  N   UNL     1       1.403   3.856  18.855  0.00  0.00    +0.000 NA
ATOM      9  C   UNL     1       2.743   4.017  18.927  0.00  0.00    +0.000 A 
ENDROOT
BRANCH   1  15
ATOM     10  C   UNL     1       1.120  10.487  18.454  0.00  0.00    +0.000 C 
ATOM     11  C   UNL     1       1.743   9.135  18.621  0.00  0.00    +0.000 A 
ATOM     12  C   UNL     1       1.576   8.404  19.788  0.00  0.00    +0.000 A 
ATOM     13  C   UNL     1       2.135   7.115  19.956  0.00  0.00    +0.000 A 
ATOM     14  C   UNL     1       1.784   6.484  21.282  0.00  0.00    +0.000 C 
ATOM     15  C   UNL     1       2.950   6.555  18.920  0.00  0.00    +0.000 A 
ATOM     16  C   UNL     1       3.202   7.358  17.772  0.00  0.00    +0.000 A 
ATOM     17  C   UNL     1       4.215   7.092  16.684  0.00  0.00    +0.000 C 
ATOM     18  C   UNL     1       2.551   8.604  17.625  0.00  0.00    +0.000 A 
ENDBRANCH   1  15
BRANCH   2  19
ATOM     19  S   UNL     1       6.203   5.805  19.221  0.00  0.00    +0.000 S 
BRANCH  19  20
ATOM     20  C   UNL     1       7.352   5.026  18.046  0.00  0.00    +0.000 C 
BRANCH  20  21
ATOM     21  C   UNL     1       7.087   5.491  16.618  0.00  0.00    +0.000 C 
BRANCH  21  22
ATOM     22  C   UNL     1       7.191   4.361  15.594  0.00  0.00    +0.000 C 
BRANCH  22  23
ATOM     23  C   UNL     1       5.862   4.074  14.959  0.00  0.00    +0.000 C 
ATOM     24  O   UNL     1       5.679   4.041  13.751  0.00  0.00    +0.000 OA
BRANCH  23  25
ATOM     25  O   UNL     1       4.857   3.906  15.853  0.00  0.00    +0.000 OA
ATOM     26  H   UNL     1       3.974   4.064  15.472  0.00  0.00    +0.000 HD
ENDBRANCH  23  25
ENDBRANCH  22  23
ENDBRANCH  21  22
ENDBRANCH  20  21
ENDBRANCH  19  20
ENDBRANCH   2  19
TORSDOF 7
ENDMDL
MODEL 5
REMARK VINA RESULT:      -6.7      2.694      4.751
REMARK  Name = 
REMARK  10 active torsions:
REMARK  status: ('A' for Active; 'I' for Inactive)
REMARK    1  A    between atoms: C_1  and  C_2
REMARK    2  A    between atoms: C_4  and  C_5
REMARK    3  A    between atoms: C_6  and  N_7
REMARK    4  A    between atoms: C_8  and  S_9
REMARK    5  A    between atoms: S_9  and  C_10
REMARK    6  A    between atoms: C_10  and  C_11
REMARK    7  A    between atoms: C_11  and  C_12
REMARK    8  A    between atoms: C_12  and  C_13
REMARK    9  A    between atoms: C_13  and  O_15
REMARK   10  A    between atoms: C_23  and  C_24
REMARK                            x       y       z     vdW  Elec       q    Type
REMARK                         _______ _______ _______ _____ _____    ______ ____
ROOT
ATOM      1  N   UNL     1       3.250   5.923  18.078  0.00  0.00    +0.000 N 
ATOM      2  C   UNL     1       2.800   4.717  17.493  0.00  0.00    +0.000 A 
ATOM      3  N   UNL     1       3.751   4.074  16.843  0.00  0.00    +0.000 NA
ATOM      4  C   UNL     1       4.856   4.861  16.956  0.00  0.00    +0.000 A 
ATOM      5  C   UNL     1       6.164   4.650  16.498  0.00  0.00    +0.000 A 
ATOM      6  C   UNL     1       7.117   5.621  16.802  0.00  0.00    +0.000 A 
ATOM      7  C   UNL     1       6.715   6.767  17.470  0.00  0.00    +0.000 A 
ATOM      8  N   UNL     1       5.452   7.035  17.873  0.00  0.00    +0.000 NA
ATOM      9  C   UNL     1       4.576   6.028  17.656  0.00  0.00    +0.000 A 
ENDROOT
BRANCH   1  15
ATOM     10  C   UNL     1       0.190   9.401  21.590  0.00  0.00    +0.000 C 
ATOM     11  C   UNL     1       0.999   8.508  20.701  0.00  0.00    +0.000 A 
ATOM     12  C   UNL     1       1.452   7.272  21.141  0.00  0.00    +0.000 A 
ATOM     13  C   UNL     1       2.197   6.403  20.309  0.00  0.00    +0.000 A 
ATOM     14  C   UNL     1       2.539   5.092  20.976  0.00  0.00    +0.000 C 
ATOM     15  C   UNL     1       2.554   6.820  18.986  0.00  0.00    +0.000 A 
ATOM     16  C   UNL     1       2.176   8.132  18.584  0.00  0.00    +0.000 A 
ATOM     17  C   UNL     1       2.648   8.876  17.357  0.00  0.00    +0.000 C 
ATOM     18  C   UNL     1       1.364   8.923  19.428  0.00  0.00    +0.000 A 
ENDBRANCH   1  15
BRANCH   2  19
ATOM     19  S   UNL     1       1.241   3.999  17.743  0.00  0.00    +0.000 S 
BRANCH  19  20
ATOM     20  C   UNL     1       1.638   2.255  18.075  0.00  0.00    +0.000 C 
BRANCH  20  21
ATOM     21  C   UNL     1       2.406   2.099  19.384  0.00  0.00    +0.000 C 
BRANCH  21  22
ATOM     22  C   UNL     1       3.771   1.436  19.200  0.00  0.00    +0.000 C 
BRANCH  22  23
ATOM     23  C   UNL     1       4.807   2.058  20.088  0.00  0.00    +0.000 C 
ATOM     24  O   UNL     1       5.112   1.618  21.187  0.00  0.00    +0.000 OA
BRANCH  23  25
ATOM     25  O   UNL     1       5.343   3.196  19.585  0.00  0.00    +0.000 OA
ATOM     26  H   UNL     1       4.686   3.773  19.154  0.00  0.00    +0.000 HD
ENDBRANCH  23  25
ENDBRANCH  22  23
ENDBRANCH  21  22
ENDBRANCH  20  21
ENDBRANCH  19  20
ENDBRANCH   2  19
TORSDOF 7
ENDMDL
MODEL 6
REMARK VINA RESULT:      -6.5      5.575      9.144
REMARK  Name = 
REMARK  10 active torsions:
REMARK  status: ('A' for Active; 'I' for Inactive)
REMARK    1  A    between atoms: C_1  and  C_2
REMARK    2  A    between atoms: C_4  and  C_5
REMARK    3  A    between atoms: C_6  and  N_7
REMARK    4  A    between atoms: C_8  and  S_9
REMARK    5  A    between atoms: S_9  and  C_10
REMARK    6  A    between atoms: C_10  and  C_11
REMARK    7  A    between atoms: C_11  and  C_12
REMARK    8  A    between atoms: C_12  and  C_13
REMARK    9  A    between atoms: C_13  and  O_15
REMARK   10  A    between atoms: C_23  and  C_24
REMARK                            x       y       z     vdW  Elec       q    Type
REMARK                         _______ _______ _______ _____ _____    ______ ____
ROOT
ATOM      1  N   UNL     1       0.211  10.893  19.600  0.00  0.00    +0.000 N 
ATOM      2  C   UNL     1      -0.911  11.295  18.842  0.00  0.00    +0.000 A 
ATOM      3  N   UNL     1      -0.988  12.603  18.689  0.00  0.00    +0.000 NA
ATOM      4  C   UNL     1       0.073  13.107  19.377  0.00  0.00    +0.000 A 
ATOM      5  C   UNL     1       0.510  14.430  19.519  0.00  0.00    +0.000 A 
ATOM      6  C   UNL     1       1.673  14.650  20.256  0.00  0.00    +0.000 A 
ATOM      7  C   UNL     1       2.293  13.569  20.865  0.00  0.00    +0.000 A 
ATOM      8  N   UNL     1       1.868  12.286  20.803  0.00  0.00    +0.000 NA
ATOM      9  C   UNL     1       0.799  12.096  19.996  0.00  0.00    +0.000 A 
ENDROOT
BRANCH   1  15
ATOM     10  C   UNL     1       2.502   5.676  20.750  0.00  0.00    +0.000 C 
ATOM     11  C   UNL     1       1.888   7.008  20.451  0.00  0.00    +0.000 A 
ATOM     12  C   UNL     1       0.974   7.592  21.318  0.00  0.00    +0.000 A 
ATOM     13  C   UNL     1       0.401   8.861  21.066  0.00  0.00    +0.000 A 
ATOM     14  C   UNL     1      -0.524   9.323  22.166  0.00  0.00    +0.000 C 
ATOM     15  C   UNL     1       0.719   9.554  19.854  0.00  0.00    +0.000 A 
ATOM     16  C   UNL     1       1.573   8.899  18.923  0.00  0.00    +0.000 A 
ATOM     17  C   UNL     1       1.844   9.310  17.496  0.00  0.00    +0.000 C 
ATOM     18  C   UNL     1       2.179   7.669  19.266  0.00  0.00    +0.000 A 
ENDBRANCH   1  15
BRANCH   2  19
ATOM     19  S   UNL     1      -1.988  10.229  17.995  0.00  0.00    +0.000 S 
BRANCH  19  20
ATOM     20  C   UNL     1      -3.032  11.371  17.040  0.00  0.00    +0.000 C 
BRANCH  20  21
ATOM     21  C   UNL     1      -3.686  10.668  15.854  0.00  0.00    +0.000 C 
BRANCH  21  22
ATOM     22  C   UNL     1      -2.671  10.026  14.909  0.00  0.00    +0.000 C 
BRANCH  22  23
ATOM     23  C   UNL     1      -3.243   9.842  13.535  0.00  0.00    +0.000 C 
ATOM     24  O   UNL     1      -4.439   9.884  13.284  0.00  0.00    +0.000 OA
BRANCH  23  25
ATOM     25  O   UNL     1      -2.312   9.565  12.589  0.00  0.00    +0.000 OA
ATOM     26  H   UNL     1      -1.994   8.645  12.622  0.00  0.00    +0.000 HD
ENDBRANCH  23  25
ENDBRANCH  22  23
ENDBRANCH  21  22
ENDBRANCH  20  21
ENDBRANCH  19  20
ENDBRANCH   2  19
TORSDOF 7
ENDMDL
MODEL 7
REMARK VINA RESULT:      -6.5      3.569      5.483
REMARK  Name = 
REMARK  10 active torsions:
REMARK  status: ('A' for Active; 'I' for Inactive)
REMARK    1  A    between atoms: C_1  and  C_2
REMARK    2  A    between atoms: C_4  and  C_5
REMARK    3  A    between atoms: C_6  and  N_7
REMARK    4  A    between atoms: C_8  and  S_9
REMARK    5  A    between atoms: S_9  and  C_10
REMARK    6  A    between atoms: C_10  and  C_11
REMARK    7  A    between atoms: C_11  and  C_12
REMARK    8  A    between atoms: C_12  and  C_13
REMARK    9  A    between atoms: C_13  and  O_15
REMARK   10  A    between atoms: C_23  and  C_24
REMARK                            x       y       z     vdW  Elec       q    Type
REMARK                         _______ _______ _______ _____ _____    ______ ____
ROOT
ATOM      1  N   UNL     1       5.603   4.954  16.592  0.00  0.00    +0.000 N 
ATOM      2  C   UNL     1       6.872   5.533  16.818  0.00  0.00    +0.000 A 
ATOM      3  N   UNL     1       7.645   5.515  15.749  0.00  0.00    +0.000 NA
ATOM      4  C   UNL     1       6.911   4.889  14.788  0.00  0.00    +0.000 A 
ATOM      5  C   UNL     1       7.215   4.633  13.445  0.00  0.00    +0.000 A 
ATOM      6  C   UNL     1       6.241   4.004  12.671  0.00  0.00    +0.000 A 
ATOM      7  C   UNL     1       5.061   3.602  13.279  0.00  0.00    +0.000 A 
ATOM      8  N   UNL     1       4.756   3.775  14.586  0.00  0.00    +0.000 NA
ATOM      9  C   UNL     1       5.677   4.480  15.281  0.00  0.00    +0.000 A 
ENDROOT
BRANCH   1  15
ATOM     10  C   UNL     1       1.142   4.875  20.318  0.00  0.00    +0.000 C 
ATOM     11  C   UNL     1       2.274   4.900  19.338  0.00  0.00    +0.000 A 
ATOM     12  C   UNL     1       2.629   6.067  18.676  0.00  0.00    +0.000 A 
ATOM     13  C   UNL     1       3.710   6.118  17.765  0.00  0.00    +0.000 A 
ATOM     14  C   UNL     1       3.948   7.499  17.203  0.00  0.00    +0.000 C 
ATOM     15  C   UNL     1       4.438   4.923  17.461  0.00  0.00    +0.000 A 
ATOM     16  C   UNL     1       3.998   3.711  18.064  0.00  0.00    +0.000 A 
ATOM     17  C   UNL     1       4.437   2.310  17.710  0.00  0.00    +0.000 C 
ATOM     18  C   UNL     1       2.964   3.736  19.027  0.00  0.00    +0.000 A 
ENDBRANCH   1  15
BRANCH   2  19
ATOM     19  S   UNL     1       7.349   6.383  18.254  0.00  0.00    +0.000 S 
BRANCH  19  20
ATOM     20  C   UNL     1       7.815   8.025  17.626  0.00  0.00    +0.000 C 
BRANCH  20  21
ATOM     21  C   UNL     1       8.578   8.826  18.676  0.00  0.00    +0.000 C 
BRANCH  21  22
ATOM     22  C   UNL     1       8.879  10.257  18.232  0.00  0.00    +0.000 C 
BRANCH  22  23
ATOM     23  C   UNL     1       9.427  11.078  19.361  0.00  0.00    +0.000 C 
ATOM     24  O   UNL     1       9.828  12.226  19.236  0.00  0.00    +0.000 OA
BRANCH  23  25
ATOM     25  O   UNL     1       9.493  10.408  20.539  0.00  0.00    +0.000 OA
ATOM     26  H   UNL     1      10.231   9.773  20.579  0.00  0.00    +0.000 HD
ENDBRANCH  23  25
ENDBRANCH  22  23
ENDBRANCH  21  22
ENDBRANCH  20  21
ENDBRANCH  19  20
ENDBRANCH   2  19
TORSDOF 7
ENDMDL
MODEL 8
REMARK VINA RESULT:      -6.3      2.640      5.788
REMARK  Name = 
REMARK  10 active torsions:
REMARK  status: ('A' for Active; 'I' for Inactive)
REMARK    1  A    between atoms: C_1  and  C_2
REMARK    2  A    between atoms: C_4  and  C_5
REMARK    3  A    between atoms: C_6  and  N_7
REMARK    4  A    between atoms: C_8  and  S_9
REMARK    5  A    between atoms: S_9  and  C_10
REMARK    6  A    between atoms: C_10  and  C_11
REMARK    7  A    between atoms: C_11  and  C_12
REMARK    8  A    between atoms: C_12  and  C_13
REMARK    9  A    between atoms: C_13  and  O_15
REMARK   10  A    between atoms: C_23  and  C_24
REMARK                            x       y       z     vdW  Elec       q    Type
REMARK                         _______ _______ _______ _____ _____    ______ ____
ROOT
ATOM      1  N   UNL     1       4.397   5.731  18.123  0.00  0.00    +0.000 N 
ATOM      2  C   UNL     1       4.310   4.943  19.294  0.00  0.00    +0.000 A 
ATOM      3  N   UNL     1       3.416   5.393  20.152  0.00  0.00    +0.000 NA
ATOM      4  C   UNL     1       2.906   6.519  19.581  0.00  0.00    +0.000 A 
ATOM      5  C   UNL     1       1.892   7.377  20.027  0.00  0.00    +0.000 A 
ATOM      6  C   UNL     1       1.541   8.444  19.201  0.00  0.00    +0.000 A 
ATOM      7  C   UNL     1       2.252   8.643  18.027  0.00  0.00    +0.000 A 
ATOM      8  N   UNL     1       3.276   7.874  17.593  0.00  0.00    +0.000 NA
ATOM      9  C   UNL     1       3.521   6.791  18.364  0.00  0.00    +0.000 A 
ENDROOT
BRANCH   1  15
ATOM     10  C   UNL     1       7.541   4.511  13.389  0.00  0.00    +0.000 C 
ATOM     11  C   UNL     1       6.712   4.836  14.593  0.00  0.00    +0.000 A 
ATOM     12  C   UNL     1       5.487   4.222  14.812  0.00  0.00    +0.000 A 
ATOM     13  C   UNL     1       4.701   4.497  15.955  0.00  0.00    +0.000 A 
ATOM     14  C   UNL     1       3.433   3.678  16.014  0.00  0.00    +0.000 C 
ATOM     15  C   UNL     1       5.140   5.481  16.899  0.00  0.00    +0.000 A 
ATOM     16  C   UNL     1       6.345   6.181  16.609  0.00  0.00    +0.000 A 
ATOM     17  C   UNL     1       6.869   7.412  17.308  0.00  0.00    +0.000 C 
ATOM     18  C   UNL     1       7.129   5.806  15.494  0.00  0.00    +0.000 A 
ENDBRANCH   1  15
BRANCH   2  19
ATOM     19  S   UNL     1       5.107   3.422  19.544  0.00  0.00    +0.000 S 
BRANCH  19  20
ATOM     20  C   UNL     1       3.765   2.345  20.133  0.00  0.00    +0.000 C 
BRANCH  20  21
ATOM     21  C   UNL     1       2.937   1.802  18.973  0.00  0.00    +0.000 C 
BRANCH  21  22
ATOM     22  C   UNL     1       1.432   1.905  19.215  0.00  0.00    +0.000 C 
BRANCH  22  23
ATOM     23  C   UNL     1       0.942   3.311  19.033  0.00  0.00    +0.000 C 
ATOM     24  O   UNL     1       0.944   3.899  17.962  0.00  0.00    +0.000 OA
BRANCH  23  25
ATOM     25  O   UNL     1       0.542   3.901  20.187  0.00  0.00    +0.000 OA
ATOM     26  H   UNL     1       0.038   3.304  20.769  0.00  0.00    +0.000 HD
ENDBRANCH  23  25
ENDBRANCH  22  23
ENDBRANCH  21  22
ENDBRANCH  20  21
ENDBRANCH  19  20
ENDBRANCH   2  19
TORSDOF 7
ENDMDL
MODEL 9
REMARK VINA RESULT:      -6.3      2.689      4.523
REMARK  Name = 
REMARK  10 active torsions:
REMARK  status: ('A' for Active; 'I' for Inactive)
REMARK    1  A    between atoms: C_1  and  C_2
REMARK    2  A    between atoms: C_4  and  C_5
REMARK    3  A    between atoms: C_6  and  N_7
REMARK    4  A    between atoms: C_8  and  S_9
REMARK    5  A    between atoms: S_9  and  C_10
REMARK    6  A    between atoms: C_10  and  C_11
REMARK    7  A    between atoms: C_11  and  C_12
REMARK    8  A    between atoms: C_12  and  C_13
REMARK    9  A    between atoms: C_13  and  O_15
REMARK   10  A    between atoms: C_23  and  C_24
REMARK                            x       y       z     vdW  Elec       q    Type
REMARK                         _______ _______ _______ _____ _____    ______ ____
ROOT
ATOM      1  N   UNL     1       3.241   5.932  18.075  0.00  0.00    +0.000 N 
ATOM      2  C   UNL     1       2.847   4.734  17.439  0.00  0.00    +0.000 A 
ATOM      3  N   UNL     1       3.824   4.167  16.758  0.00  0.00    +0.000 NA
ATOM      4  C   UNL     1       4.891   5.001  16.900  0.00  0.00    +0.000 A 
ATOM      5  C   UNL     1       6.204   4.875  16.429  0.00  0.00    +0.000 A 
ATOM      6  C   UNL     1       7.111   5.876  16.771  0.00  0.00    +0.000 A 
ATOM      7  C   UNL     1       6.658   6.971  17.491  0.00  0.00    +0.000 A 
ATOM      8  N   UNL     1       5.386   7.159  17.911  0.00  0.00    +0.000 NA
ATOM      9  C   UNL     1       4.559   6.121  17.653  0.00  0.00    +0.000 A 
ENDROOT
BRANCH   1  15
ATOM     10  C   UNL     1       0.596   9.332  21.979  0.00  0.00    +0.000 C 
ATOM     11  C   UNL     1       1.255   8.454  20.960  0.00  0.00    +0.000 A 
ATOM     12  C   UNL     1       1.430   8.877  19.650  0.00  0.00    +0.000 A 
ATOM     13  C   UNL     1       2.071   8.073  18.678  0.00  0.00    +0.000 A 
ATOM     14  C   UNL     1       2.199   8.753  17.335  0.00  0.00    +0.000 C 
ATOM     15  C   UNL     1       2.509   6.754  19.025  0.00  0.00    +0.000 A 
ATOM     16  C   UNL     1       2.228   6.291  20.341  0.00  0.00    +0.000 A 
ATOM     17  C   UNL     1       2.362   4.877  20.852  0.00  0.00    +0.000 C 
ATOM     18  C   UNL     1       1.657   7.168  21.292  0.00  0.00    +0.000 A 
ENDBRANCH   1  15
BRANCH   2  19
ATOM     19  S   UNL     1       1.326   3.930  17.663  0.00  0.00    +0.000 S 
BRANCH  19  20
ATOM     20  C   UNL     1       1.792   2.399  18.528  0.00  0.00    +0.000 C 
BRANCH  20  21
ATOM     21  C   UNL     1       3.083   1.813  17.965  0.00  0.00    +0.000 C 
BRANCH  21  22
ATOM     22  C   UNL     1       3.912   1.076  19.017  0.00  0.00    +0.000 C 
BRANCH  22  23
ATOM     23  C   UNL     1       4.541   2.033  19.986  0.00  0.00    +0.000 C 
ATOM     24  O   UNL     1       4.397   1.966  21.198  0.00  0.00    +0.000 OA
BRANCH  23  25
ATOM     25  O   UNL     1       5.249   3.024  19.391  0.00  0.00    +0.000 OA
ATOM     26  H   UNL     1       4.804   3.890  19.431  0.00  0.00    +0.000 HD
ENDBRANCH  23  25
ENDBRANCH  22  23
ENDBRANCH  21  22
ENDBRANCH  20  21
ENDBRANCH  19  20
ENDBRANCH   2  19
TORSDOF 7
ENDMDL
