MODEL 1
REMARK VINA RESULT:      -8.4      0.000      0.000
REMARK  Name = 
REMARK  8 active torsions:
REMARK  status: ('A' for Active; 'I' for Inactive)
REMARK    1  A    between atoms: C_1  and  N_2
REMARK    2  A    between atoms: N_2  and  C_3
REMARK    3  A    between atoms: C_3  and  C_4
REMARK    4  A    between atoms: C_4  and  C_5
REMARK    5  A    between atoms: C_5  and  N_6
REMARK    6  A    between atoms: C_12  and  N_13
REMARK    7  A    between atoms: C_24  and  O_25
REMARK    8  A    between atoms: O_25  and  C_26
REMARK                            x       y       z     vdW  Elec       q    Type
REMARK                         _______ _______ _______ _____ _____    ______ ____
ROOT
ATOM      1  N   UNL     1       3.124   5.404  19.789  0.00  0.00    +0.000 N 
ATOM      2  C   UNL     1       2.665   6.668  19.418  0.00  0.00    +0.000 A 
ATOM      3  C   UNL     1       3.055   7.249  18.270  0.00  0.00    +0.000 A 
ATOM      4  C   UNL     1       3.990   6.629  17.363  0.00  0.00    +0.000 A 
ATOM      5  C   UNL     1       4.514   7.320  16.264  0.00  0.00    +0.000 A 
ATOM      6  C   UNL     1       5.383   6.688  15.384  0.00  0.00    +0.000 A 
ATOM      7  C   UNL     1       5.709   5.344  15.591  0.00  0.00    +0.000 A 
ATOM      8  C   UNL     1       5.207   4.643  16.703  0.00  0.00    +0.000 A 
ATOM      9  C   UNL     1       4.360   5.303  17.611  0.00  0.00    +0.000 A 
ATOM     10  C   UNL     1       3.858   4.625  18.853  0.00  0.00    +0.000 A 
ATOM     11  O   UNL     1       4.126   3.431  18.981  0.00  0.00    +0.000 OA
ATOM     12  C   UNL     1       2.367   8.540  18.107  0.00  0.00    +0.000 C 
ATOM     13  O   UNL     1       2.423   9.324  17.183  0.00  0.00    +0.000 OA
ATOM     14  C   UNL     1       1.554   8.707  19.277  0.00  0.00    +0.000 A 
ATOM     15  C   UNL     1       0.748   9.775  19.603  0.00  0.00    +0.000 A 
ATOM     16  C   UNL     1       0.078   9.691  20.810  0.00  0.00    +0.000 A 
ATOM     17  C   UNL     1       0.265   8.526  21.578  0.00  0.00    +0.000 A 
ATOM     18  N   UNL     1       1.068   7.461  21.240  0.00  0.00    +0.000 NA
ATOM     19  C   UNL     1       1.714   7.590  20.073  0.00  0.00    +0.000 A 
ENDROOT
BRANCH   7  20
ATOM     20  N   UNL     1       6.585   4.677  14.619  0.00  0.00    +0.000 N 
ATOM     21  O   UNL     1       6.166   3.641  14.082  0.00  0.00    +0.000 OA
ATOM     22  O   UNL     1       7.690   5.186  14.394  0.00  0.00    +0.000 OA
ENDBRANCH   7  20
BRANCH  16  23
ATOM     23  O   UNL     1      -0.749  10.656  21.311  0.00  0.00    +0.000 OA
ATOM     24  C   UNL     1      -0.793  10.769  22.736  0.00  0.00    +0.000 C 
ENDBRANCH  16  23
BRANCH   1  25
ATOM     25  C   UNL     1       2.631   4.776  21.035  0.00  0.00    +0.000 C 
BRANCH  25  26
ATOM     26  C   UNL     1       1.315   3.980  20.956  0.00  0.00    +0.000 C 
BRANCH  26  27
ATOM     27  C   UNL     1       1.536   2.457  21.017  0.00  0.00    +0.000 C 
BRANCH  27  29
ATOM     28  C   UNL     1       0.764   2.430  18.722  0.00  0.00    +0.000 C 
ATOM     29  N   UNL     1       1.714   1.885  19.681  0.00  0.00    +0.000 NA
ATOM     30  H   UNL     1       2.656   2.070  19.342  0.00  0.00    +0.000 HD
ENDBRANCH  27  29
ENDBRANCH  26  27
ENDBRANCH  25  26
ENDBRANCH   1  25
TORSDOF 6
ENDMDL
MODEL 2
REMARK VINA RESULT:      -7.5      0.722      1.089
REMARK  Name = 
REMARK  8 active torsions:
REMARK  status: ('A' for Active; 'I' for Inactive)
REMARK    1  A    between atoms: C_1  and  N_2
REMARK    2  A    between atoms: N_2  and  C_3
REMARK    3  A    between atoms: C_3  and  C_4
REMARK    4  A    between atoms: C_4  and  C_5
REMARK    5  A    between atoms: C_5  and  N_6
REMARK    6  A    between atoms: C_12  and  N_13
REMARK    7  A    between atoms: C_24  and  O_25
REMARK    8  A    between atoms: O_25  and  C_26
REMARK                            x       y       z     vdW  Elec       q    Type
REMARK                         _______ _______ _______ _____ _____    ______ ____
ROOT
ATOM      1  N   UNL     1       2.863   5.541  19.762  0.00  0.00    +0.000 N 
ATOM      2  C   UNL     1       2.478   6.831  19.396  0.00  0.00    +0.000 A 
ATOM      3  C   UNL     1       2.933   7.409  18.271  0.00  0.00    +0.000 A 
ATOM      4  C   UNL     1       3.867   6.758  17.385  0.00  0.00    +0.000 A 
ATOM      5  C   UNL     1       4.460   7.439  16.315  0.00  0.00    +0.000 A 
ATOM      6  C   UNL     1       5.326   6.778  15.453  0.00  0.00    +0.000 A 
ATOM      7  C   UNL     1       5.581   5.417  15.650  0.00  0.00    +0.000 A 
ATOM      8  C   UNL     1       5.009   4.726  16.733  0.00  0.00    +0.000 A 
ATOM      9  C   UNL     1       4.165   5.413  17.624  0.00  0.00    +0.000 A 
ATOM     10  C   UNL     1       3.590   4.741  18.838  0.00  0.00    +0.000 A 
ATOM     11  O   UNL     1       3.796   3.534  18.955  0.00  0.00    +0.000 OA
ATOM     12  C   UNL     1       2.313   8.734  18.106  0.00  0.00    +0.000 C 
ATOM     13  O   UNL     1       2.437   9.527  17.197  0.00  0.00    +0.000 OA
ATOM     14  C   UNL     1       1.470   8.923  19.252  0.00  0.00    +0.000 A 
ATOM     15  C   UNL     1       0.706  10.024  19.568  0.00  0.00    +0.000 A 
ATOM     16  C   UNL     1      -0.008   9.955  20.751  0.00  0.00    +0.000 A 
ATOM     17  C   UNL     1       0.099   8.771  21.507  0.00  0.00    +0.000 A 
ATOM     18  N   UNL     1       0.860   7.673  21.178  0.00  0.00    +0.000 NA
ATOM     19  C   UNL     1       1.551   7.788  20.035  0.00  0.00    +0.000 A 
ENDROOT
BRANCH   7  20
ATOM     20  N   UNL     1       6.457   4.723  14.696  0.00  0.00    +0.000 N 
ATOM     21  O   UNL     1       7.563   5.229  14.458  0.00  0.00    +0.000 OA
ATOM     22  O   UNL     1       6.039   3.676  14.186  0.00  0.00    +0.000 OA
ENDBRANCH   7  20
BRANCH  16  23
ATOM     23  O   UNL     1      -0.804  10.951  21.240  0.00  0.00    +0.000 OA
ATOM     24  C   UNL     1      -0.916  11.025  22.664  0.00  0.00    +0.000 C 
ENDBRANCH  16  23
BRANCH   1  25
ATOM     25  C   UNL     1       2.300   4.920  20.981  0.00  0.00    +0.000 C 
BRANCH  25  26
ATOM     26  C   UNL     1       1.155   3.906  20.796  0.00  0.00    +0.000 C 
BRANCH  26  27
ATOM     27  C   UNL     1       1.526   2.495  21.290  0.00  0.00    +0.000 C 
BRANCH  27  29
ATOM     28  C   UNL     1       3.805   1.677  21.273  0.00  0.00    +0.000 C 
ATOM     29  N   UNL     1       2.820   2.487  21.975  0.00  0.00    +0.000 NA
ATOM     30  H   UNL     1       3.181   3.435  22.055  0.00  0.00    +0.000 HD
ENDBRANCH  27  29
ENDBRANCH  26  27
ENDBRANCH  25  26
ENDBRANCH   1  25
TORSDOF 6
ENDMDL
MODEL 3
REMARK VINA RESULT:      -7.1      2.216      6.994
REMARK  Name = 
REMARK  8 active torsions:
REMARK  status: ('A' for Active; 'I' for Inactive)
REMARK    1  A    between atoms: C_1  and  N_2
REMARK    2  A    between atoms: N_2  and  C_3
REMARK    3  A    between atoms: C_3  and  C_4
REMARK    4  A    between atoms: C_4  and  C_5
REMARK    5  A    between atoms: C_5  and  N_6
REMARK    6  A    between atoms: C_12  and  N_13
REMARK    7  A    between atoms: C_24  and  O_25
REMARK    8  A    between atoms: O_25  and  C_26
REMARK                            x       y       z     vdW  Elec       q    Type
REMARK                         _______ _______ _______ _____ _____    ______ ____
ROOT
ATOM      1  N   UNL     1       3.159   4.235  19.295  0.00  0.00    +0.000 N 
ATOM      2  C   UNL     1       3.646   5.004  18.239  0.00  0.00    +0.000 A 
ATOM      3  C   UNL     1       3.362   6.314  18.132  0.00  0.00    +0.000 A 
ATOM      4  C   UNL     1       2.515   7.004  19.075  0.00  0.00    +0.000 A 
ATOM      5  C   UNL     1       2.092   8.321  18.853  0.00  0.00    +0.000 A 
ATOM      6  C   UNL     1       1.310   8.977  19.795  0.00  0.00    +0.000 A 
ATOM      7  C   UNL     1       0.969   8.318  20.981  0.00  0.00    +0.000 A 
ATOM      8  C   UNL     1       1.370   6.988  21.207  0.00  0.00    +0.000 A 
ATOM      9  C   UNL     1       2.128   6.319  20.230  0.00  0.00    +0.000 A 
ATOM     10  C   UNL     1       2.516   4.876  20.388  0.00  0.00    +0.000 A 
ATOM     11  O   UNL     1       2.241   4.342  21.461  0.00  0.00    +0.000 OA
ATOM     12  C   UNL     1       4.058   6.882  16.966  0.00  0.00    +0.000 C 
ATOM     13  O   UNL     1       4.085   8.031  16.578  0.00  0.00    +0.000 OA
ATOM     14  C   UNL     1       4.760   5.791  16.353  0.00  0.00    +0.000 A 
ATOM     15  C   UNL     1       5.529   5.815  15.211  0.00  0.00    +0.000 A 
ATOM     16  C   UNL     1       6.087   4.610  14.824  0.00  0.00    +0.000 A 
ATOM     17  C   UNL     1       5.833   3.485  15.633  0.00  0.00    +0.000 A 
ATOM     18  N   UNL     1       5.067   3.474  16.776  0.00  0.00    +0.000 NA
ATOM     19  C   UNL     1       4.531   4.657  17.107  0.00  0.00    +0.000 A 
ENDROOT
BRANCH   7  20
ATOM     20  N   UNL     1       0.188   9.047  21.988  0.00  0.00    +0.000 N 
ATOM     21  O   UNL     1      -0.853   8.516  22.403  0.00  0.00    +0.000 OA
ATOM     22  O   UNL     1       0.612  10.147  22.362  0.00  0.00    +0.000 OA
ENDBRANCH   7  20
BRANCH  16  23
ATOM     23  O   UNL     1       6.862   4.431  13.713  0.00  0.00    +0.000 OA
ATOM     24  C   UNL     1       6.288   3.644  12.666  0.00  0.00    +0.000 C 
ENDBRANCH  16  23
BRANCH   1  25
ATOM     25  C   UNL     1       3.538   2.808  19.404  0.00  0.00    +0.000 C 
BRANCH  25  26
ATOM     26  C   UNL     1       4.858   2.478  20.125  0.00  0.00    +0.000 C 
BRANCH  26  27
ATOM     27  C   UNL     1       4.757   1.217  21.003  0.00  0.00    +0.000 C 
BRANCH  27  29
ATOM     28  C   UNL     1       6.273  -0.279  22.155  0.00  0.00    +0.000 C 
ATOM     29  N   UNL     1       5.895   1.107  21.918  0.00  0.00    +0.000 NA
ATOM     30  H   UNL     1       6.701   1.601  21.539  0.00  0.00    +0.000 HD
ENDBRANCH  27  29
ENDBRANCH  26  27
ENDBRANCH  25  26
ENDBRANCH   1  25
TORSDOF 6
ENDMDL
MODEL 4
REMARK VINA RESULT:      -6.7      1.633      6.813
REMARK  Name = 
REMARK  8 active torsions:
REMARK  status: ('A' for Active; 'I' for Inactive)
REMARK    1  A    between atoms: C_1  and  N_2
REMARK    2  A    between atoms: N_2  and  C_3
REMARK    3  A    between atoms: C_3  and  C_4
REMARK    4  A    between atoms: C_4  and  C_5
REMARK    5  A    between atoms: C_5  and  N_6
REMARK    6  A    between atoms: C_12  and  N_13
REMARK    7  A    between atoms: C_24  and  O_25
REMARK    8  A    between atoms: O_25  and  C_26
REMARK                            x       y       z     vdW  Elec       q    Type
REMARK                         _______ _______ _______ _____ _____    ______ ____
ROOT
ATOM      1  N   UNL     1       3.452   4.497  19.298  0.00  0.00    +0.000 N 
ATOM      2  C   UNL     1       3.871   5.162  18.145  0.00  0.00    +0.000 A 
ATOM      3  C   UNL     1       3.520   6.437  17.902  0.00  0.00    +0.000 A 
ATOM      4  C   UNL     1       2.670   7.192  18.789  0.00  0.00    +0.000 A 
ATOM      5  C   UNL     1       2.177   8.455  18.436  0.00  0.00    +0.000 A 
ATOM      6  C   UNL     1       1.392   9.178  19.324  0.00  0.00    +0.000 A 
ATOM      7  C   UNL     1       1.119   8.645  20.587  0.00  0.00    +0.000 A 
ATOM      8  C   UNL     1       1.590   7.369  20.948  0.00  0.00    +0.000 A 
ATOM      9  C   UNL     1       2.350   6.627  20.027  0.00  0.00    +0.000 A 
ATOM     10  C   UNL     1       2.812   5.230  20.334  0.00  0.00    +0.000 A 
ATOM     11  O   UNL     1       2.594   4.810  21.469  0.00  0.00    +0.000 OA
ATOM     12  C   UNL     1       4.154   6.898  16.656  0.00  0.00    +0.000 C 
ATOM     13  O   UNL     1       4.114   7.995  16.139  0.00  0.00    +0.000 OA
ATOM     14  C   UNL     1       4.889   5.777  16.145  0.00  0.00    +0.000 A 
ATOM     15  C   UNL     1       5.622   5.704  14.982  0.00  0.00    +0.000 A 
ATOM     16  C   UNL     1       6.226   4.488  14.714  0.00  0.00    +0.000 A 
ATOM     17  C   UNL     1       6.050   3.453  15.653  0.00  0.00    +0.000 A 
ATOM     18  N   UNL     1       5.320   3.539  16.817  0.00  0.00    +0.000 NA
ATOM     19  C   UNL     1       4.737   4.727  17.030  0.00  0.00    +0.000 A 
ENDROOT
BRANCH   7  20
ATOM     20  N   UNL     1       0.333   9.449  21.533  0.00  0.00    +0.000 N 
ATOM     21  O   UNL     1       0.748   9.534  22.698  0.00  0.00    +0.000 OA
ATOM     22  O   UNL     1      -0.696   9.991  21.112  0.00  0.00    +0.000 OA
ENDBRANCH   7  20
BRANCH  16  23
ATOM     23  O   UNL     1       6.975   4.218  13.604  0.00  0.00    +0.000 OA
ATOM     24  C   UNL     1       6.302   3.540  12.540  0.00  0.00    +0.000 C 
ENDBRANCH  16  23
BRANCH   1  25
ATOM     25  C   UNL     1       3.902   3.111  19.555  0.00  0.00    +0.000 C 
BRANCH  25  26
ATOM     26  C   UNL     1       2.890   1.978  19.301  0.00  0.00    +0.000 C 
BRANCH  26  27
ATOM     27  C   UNL     1       2.081   2.182  18.007  0.00  0.00    +0.000 C 
BRANCH  27  29
ATOM     28  C   UNL     1       0.418   2.677  19.696  0.00  0.00    +0.000 C 
ATOM     29  N   UNL     1       0.660   2.392  18.289  0.00  0.00    +0.000 NA
ATOM     30  H   UNL     1       0.302   3.169  17.736  0.00  0.00    +0.000 HD
ENDBRANCH  27  29
ENDBRANCH  26  27
ENDBRANCH  25  26
ENDBRANCH   1  25
TORSDOF 6
ENDMDL
MODEL 5
REMARK VINA RESULT:      -6.5      1.694      6.645
REMARK  Name = 
REMARK  8 active torsions:
REMARK  status: ('A' for Active; 'I' for Inactive)
REMARK    1  A    between atoms: C_1  and  N_2
REMARK    2  A    between atoms: N_2  and  C_3
REMARK    3  A    between atoms: C_3  and  C_4
REMARK    4  A    between atoms: C_4  and  C_5
REMARK    5  A    between atoms: C_5  and  N_6
REMARK    6  A    between atoms: C_12  and  N_13
REMARK    7  A    between atoms: C_24  and  O_25
REMARK    8  A    between atoms: O_25  and  C_26
REMARK                            x       y       z     vdW  Elec       q    Type
REMARK                         _______ _______ _______ _____ _____    ______ ____
ROOT
ATOM      1  N   UNL     1       1.983   6.301  20.259  0.00  0.00    +0.000 N 
ATOM      2  C   UNL     1       2.686   6.419  19.060  0.00  0.00    +0.000 A 
ATOM      3  C   UNL     1       2.671   7.557  18.344  0.00  0.00    +0.000 A 
ATOM      4  C   UNL     1       1.910   8.716  18.743  0.00  0.00    +0.000 A 
ATOM      5  C   UNL     1       1.769   9.827  17.902  0.00  0.00    +0.000 A 
ATOM      6  C   UNL     1       1.064  10.945  18.326  0.00  0.00    +0.000 A 
ATOM      7  C   UNL     1       0.517  10.963  19.613  0.00  0.00    +0.000 A 
ATOM      8  C   UNL     1       0.633   9.847  20.461  0.00  0.00    +0.000 A 
ATOM      9  C   UNL     1       1.314   8.703  20.008  0.00  0.00    +0.000 A 
ATOM     10  C   UNL     1       1.401   7.458  20.844  0.00  0.00    +0.000 A 
ATOM     11  O   UNL     1       0.950   7.524  21.987  0.00  0.00    +0.000 OA
ATOM     12  C   UNL     1       3.547   7.419  17.170  0.00  0.00    +0.000 C 
ATOM     13  O   UNL     1       3.826   8.242  16.323  0.00  0.00    +0.000 OA
ATOM     14  C   UNL     1       4.065   6.081  17.216  0.00  0.00    +0.000 A 
ATOM     15  C   UNL     1       4.904   5.467  16.314  0.00  0.00    +0.000 A 
ATOM     16  C   UNL     1       5.242   4.154  16.588  0.00  0.00    +0.000 A 
ATOM     17  C   UNL     1       4.716   3.578  17.761  0.00  0.00    +0.000 A 
ATOM     18  N   UNL     1       3.883   4.204  18.660  0.00  0.00    +0.000 NA
ATOM     19  C   UNL     1       3.565   5.468  18.348  0.00  0.00    +0.000 A 
ENDROOT
BRANCH   7  20
ATOM     20  N   UNL     1      -0.178  12.177  20.062  0.00  0.00    +0.000 N 
ATOM     21  O   UNL     1      -0.986  12.065  20.997  0.00  0.00    +0.000 OA
ATOM     22  O   UNL     1       0.081  13.239  19.482  0.00  0.00    +0.000 OA
ENDBRANCH   7  20
BRANCH  16  23
ATOM     23  O   UNL     1       6.046   3.376  15.804  0.00  0.00    +0.000 OA
ATOM     24  C   UNL     1       6.332   3.884  14.498  0.00  0.00    +0.000 C 
ENDBRANCH  16  23
BRANCH   1  25
ATOM     25  C   UNL     1       2.068   5.049  21.043  0.00  0.00    +0.000 C 
BRANCH  25  26
ATOM     26  C   UNL     1       1.023   3.956  20.750  0.00  0.00    +0.000 C 
BRANCH  26  27
ATOM     27  C   UNL     1       1.596   2.533  20.886  0.00  0.00    +0.000 C 
BRANCH  27  29
ATOM     28  C   UNL     1       0.895   2.342  18.577  0.00  0.00    +0.000 C 
ATOM     29  N   UNL     1       1.870   1.936  19.578  0.00  0.00    +0.000 NA
ATOM     30  H   UNL     1       2.797   2.207  19.255  0.00  0.00    +0.000 HD
ENDBRANCH  27  29
ENDBRANCH  26  27
ENDBRANCH  25  26
ENDBRANCH   1  25
TORSDOF 6
ENDMDL
MODEL 6
REMARK VINA RESULT:      -6.5      3.056      6.338
REMARK  Name = 
REMARK  8 active torsions:
REMARK  status: ('A' for Active; 'I' for Inactive)
REMARK    1  A    between atoms: C_1  and  N_2
REMARK    2  A    between atoms: N_2  and  C_3
REMARK    3  A    between atoms: C_3  and  C_4
REMARK    4  A    between atoms: C_4  and  C_5
REMARK    5  A    between atoms: C_5  and  N_6
REMARK    6  A    between atoms: C_12  and  N_13
REMARK    7  A    between atoms: C_24  and  O_25
REMARK    8  A    between atoms: O_25  and  C_26
REMARK                            x       y       z     vdW  Elec       q    Type
REMARK                         _______ _______ _______ _____ _____    ______ ____
ROOT
ATOM      1  N   UNL     1       0.375  10.919  18.968  0.00  0.00    +0.000 N 
ATOM      2  C   UNL     1      -0.071  10.724  20.274  0.00  0.00    +0.000 A 
ATOM      3  C   UNL     1       0.251   9.620  20.972  0.00  0.00    +0.000 A 
ATOM      4  C   UNL     1       1.048   8.554  20.414  0.00  0.00    +0.000 A 
ATOM      5  C   UNL     1       1.229   7.342  21.091  0.00  0.00    +0.000 A 
ATOM      6  C   UNL     1       2.032   6.347  20.550  0.00  0.00    +0.000 A 
ATOM      7  C   UNL     1       2.682   6.577  19.334  0.00  0.00    +0.000 A 
ATOM      8  C   UNL     1       2.494   7.782  18.633  0.00  0.00    +0.000 A 
ATOM      9  C   UNL     1       1.646   8.768  19.168  0.00  0.00    +0.000 A 
ATOM     10  C   UNL     1       1.351  10.039  18.424  0.00  0.00    +0.000 A 
ATOM     11  O   UNL     1       1.974  10.230  17.381  0.00  0.00    +0.000 OA
ATOM     12  C   UNL     1      -0.299   9.713  22.334  0.00  0.00    +0.000 C 
ATOM     13  O   UNL     1      -0.178   8.939  23.260  0.00  0.00    +0.000 OA
ATOM     14  C   UNL     1      -1.016  10.954  22.389  0.00  0.00    +0.000 A 
ATOM     15  C   UNL     1      -1.733  11.472  23.444  0.00  0.00    +0.000 A 
ATOM     16  C   UNL     1      -2.349  12.691  23.228  0.00  0.00    +0.000 A 
ATOM     17  C   UNL     1      -2.174  13.292  21.966  0.00  0.00    +0.000 A 
ATOM     18  N   UNL     1      -1.450  12.769  20.919  0.00  0.00    +0.000 NA
ATOM     19  C   UNL     1      -0.885  11.579  21.164  0.00  0.00    +0.000 A 
ENDROOT
BRANCH   7  20
ATOM     20  N   UNL     1       3.572   5.534  18.805  0.00  0.00    +0.000 N 
ATOM     21  O   UNL     1       4.554   5.214  19.491  0.00  0.00    +0.000 OA
ATOM     22  O   UNL     1       3.290   5.037  17.708  0.00  0.00    +0.000 OA
ENDBRANCH   7  20
BRANCH  16  23
ATOM     23  O   UNL     1      -3.115  13.351  24.146  0.00  0.00    +0.000 OA
ATOM     24  C   UNL     1      -4.279  12.660  24.606  0.00  0.00    +0.000 C 
ENDBRANCH  16  23
BRANCH   1  25
ATOM     25  C   UNL     1       0.042  12.171  18.253  0.00  0.00    +0.000 C 
BRANCH  25  26
ATOM     26  C   UNL     1      -1.420  12.368  17.811  0.00  0.00    +0.000 C 
BRANCH  26  27
ATOM     27  C   UNL     1      -2.053  11.078  17.256  0.00  0.00    +0.000 C 
BRANCH  27  29
ATOM     28  C   UNL     1      -3.698  10.686  15.523  0.00  0.00    +0.000 C 
ATOM     29  N   UNL     1      -2.374  11.205  15.833  0.00  0.00    +0.000 NA
ATOM     30  H   UNL     1      -2.337  12.183  15.550  0.00  0.00    +0.000 HD
ENDBRANCH  27  29
ENDBRANCH  26  27
ENDBRANCH  25  26
ENDBRANCH   1  25
TORSDOF 6
ENDMDL
MODEL 7
REMARK VINA RESULT:      -6.4      7.811      9.524
REMARK  Name = 
REMARK  8 active torsions:
REMARK  status: ('A' for Active; 'I' for Inactive)
REMARK    1  A    between atoms: C_1  and  N_2
REMARK    2  A    between atoms: N_2  and  C_3
REMARK    3  A    between atoms: C_3  and  C_4
REMARK    4  A    between atoms: C_4  and  C_5
REMARK    5  A    between atoms: C_5  and  N_6
REMARK    6  A    between atoms: C_12  and  N_13
REMARK    7  A    between atoms: C_24  and  O_25
REMARK    8  A    between atoms: O_25  and  C_26
REMARK                            x       y       z     vdW  Elec       q    Type
REMARK                         _______ _______ _______ _____ _____    ______ ____
ROOT
ATOM      1  N   UNL     1      -5.162  12.615  19.416  0.00  0.00    +0.000 N 
ATOM      2  C   UNL     1      -3.872  12.577  19.945  0.00  0.00    +0.000 A 
ATOM      3  C   UNL     1      -2.846  12.041  19.261  0.00  0.00    +0.000 A 
ATOM      4  C   UNL     1      -3.009  11.444  17.957  0.00  0.00    +0.000 A 
ATOM      5  C   UNL     1      -1.969  10.740  17.337  0.00  0.00    +0.000 A 
ATOM      6  C   UNL     1      -2.139  10.208  16.066  0.00  0.00    +0.000 A 
ATOM      7  C   UNL     1      -3.352  10.405  15.398  0.00  0.00    +0.000 A 
ATOM      8  C   UNL     1      -4.412  11.092  16.017  0.00  0.00    +0.000 A 
ATOM      9  C   UNL     1      -4.245  11.592  17.320  0.00  0.00    +0.000 A 
ATOM     10  C   UNL     1      -5.369  12.266  18.054  0.00  0.00    +0.000 A 
ATOM     11  O   UNL     1      -6.406  12.463  17.421  0.00  0.00    +0.000 OA
ATOM     12  C   UNL     1      -1.600  12.197  20.028  0.00  0.00    +0.000 C 
ATOM     13  O   UNL     1      -0.469  11.884  19.719  0.00  0.00    +0.000 OA
ATOM     14  C   UNL     1      -1.967  12.842  21.256  0.00  0.00    +0.000 A 
ATOM     15  C   UNL     1      -1.153  13.172  22.316  0.00  0.00    +0.000 A 
ATOM     16  C   UNL     1      -1.768  13.778  23.395  0.00  0.00    +0.000 A 
ATOM     17  C   UNL     1      -3.154  14.015  23.306  0.00  0.00    +0.000 A 
ATOM     18  N   UNL     1      -3.958  13.687  22.238  0.00  0.00    +0.000 NA
ATOM     19  C   UNL     1      -3.327  13.084  21.221  0.00  0.00    +0.000 A 
ENDROOT
BRANCH   7  20
ATOM     20  N   UNL     1      -3.493   9.882  14.032  0.00  0.00    +0.000 N 
ATOM     21  O   UNL     1      -4.639   9.640  13.625  0.00  0.00    +0.000 OA
ATOM     22  O   UNL     1      -2.462   9.712  13.370  0.00  0.00    +0.000 OA
ENDBRANCH   7  20
BRANCH  16  23
ATOM     23  O   UNL     1      -1.131  14.161  24.542  0.00  0.00    +0.000 OA
ATOM     24  C   UNL     1      -1.209  15.550  24.871  0.00  0.00    +0.000 C 
ENDBRANCH  16  23
BRANCH   1  25
ATOM     25  C   UNL     1      -6.253  13.261  20.179  0.00  0.00    +0.000 C 
BRANCH  25  26
ATOM     26  C   UNL     1      -7.553  12.459  20.375  0.00  0.00    +0.000 C 
BRANCH  26  27
ATOM     27  C   UNL     1      -7.301  11.043  20.926  0.00  0.00    +0.000 C 
BRANCH  27  29
ATOM     28  C   UNL     1      -7.621   8.679  20.517  0.00  0.00    +0.000 C 
ATOM     29  N   UNL     1      -7.635  10.015  19.940  0.00  0.00    +0.000 NA
ATOM     30  H   UNL     1      -8.559  10.188  19.550  0.00  0.00    +0.000 HD
ENDBRANCH  27  29
ENDBRANCH  26  27
ENDBRANCH  25  26
ENDBRANCH   1  25
TORSDOF 6
ENDMDL
MODEL 8
REMARK VINA RESULT:      -6.4      3.249      6.959
REMARK  Name = 
REMARK  8 active torsions:
REMARK  status: ('A' for Active; 'I' for Inactive)
REMARK    1  A    between atoms: C_1  and  N_2
REMARK    2  A    between atoms: N_2  and  C_3
REMARK    3  A    between atoms: C_3  and  C_4
REMARK    4  A    between atoms: C_4  and  C_5
REMARK    5  A    between atoms: C_5  and  N_6
REMARK    6  A    between atoms: C_12  and  N_13
REMARK    7  A    between atoms: C_24  and  O_25
REMARK    8  A    between atoms: O_25  and  C_26
REMARK                            x       y       z     vdW  Elec       q    Type
REMARK                         _______ _______ _______ _____ _____    ______ ____
ROOT
ATOM      1  N   UNL     1       0.584  11.107  18.984  0.00  0.00    +0.000 N 
ATOM      2  C   UNL     1       0.079  10.931  20.272  0.00  0.00    +0.000 A 
ATOM      3  C   UNL     1       0.286   9.795  20.961  0.00  0.00    +0.000 A 
ATOM      4  C   UNL     1       1.012   8.675  20.412  0.00  0.00    +0.000 A 
ATOM      5  C   UNL     1       1.070   7.443  21.074  0.00  0.00    +0.000 A 
ATOM      6  C   UNL     1       1.808   6.393  20.543  0.00  0.00    +0.000 A 
ATOM      7  C   UNL     1       2.516   6.586  19.353  0.00  0.00    +0.000 A 
ATOM      8  C   UNL     1       2.450   7.812  18.666  0.00  0.00    +0.000 A 
ATOM      9  C   UNL     1       1.668   8.856  19.190  0.00  0.00    +0.000 A 
ATOM     10  C   UNL     1       1.502  10.158  18.458  0.00  0.00    +0.000 A 
ATOM     11  O   UNL     1       2.174  10.311  17.439  0.00  0.00    +0.000 OA
ATOM     12  C   UNL     1      -0.300   9.913  22.306  0.00  0.00    +0.000 C 
ATOM     13  O   UNL     1      -0.274   9.119  23.222  0.00  0.00    +0.000 OA
ATOM     14  C   UNL     1      -0.916  11.208  22.358  0.00  0.00    +0.000 A 
ATOM     15  C   UNL     1      -1.623  11.768  23.398  0.00  0.00    +0.000 A 
ATOM     16  C   UNL     1      -2.130  13.036  23.182  0.00  0.00    +0.000 A 
ATOM     17  C   UNL     1      -1.865  13.639  21.937  0.00  0.00    +0.000 A 
ATOM     18  N   UNL     1      -1.150  13.073  20.906  0.00  0.00    +0.000 NA
ATOM     19  C   UNL     1      -0.693  11.837  21.149  0.00  0.00    +0.000 A 
ENDROOT
BRANCH   7  20
ATOM     20  N   UNL     1       3.335   5.481  18.836  0.00  0.00    +0.000 N 
ATOM     21  O   UNL     1       3.592   4.546  19.609  0.00  0.00    +0.000 OA
ATOM     22  O   UNL     1       3.721   5.549  17.663  0.00  0.00    +0.000 OA
ENDBRANCH   7  20
BRANCH  16  23
ATOM     23  O   UNL     1      -2.871  13.744  24.085  0.00  0.00    +0.000 OA
ATOM     24  C   UNL     1      -4.219  13.307  24.272  0.00  0.00    +0.000 C 
ENDBRANCH  16  23
BRANCH   1  25
ATOM     25  C   UNL     1       0.378  12.392  18.280  0.00  0.00    +0.000 C 
BRANCH  25  26
ATOM     26  C   UNL     1       1.526  13.417  18.324  0.00  0.00    +0.000 C 
BRANCH  26  27
ATOM     27  C   UNL     1       1.080  14.788  18.867  0.00  0.00    +0.000 C 
BRANCH  27  29
ATOM     28  C   UNL     1      -0.795  16.282  19.208  0.00  0.00    +0.000 C 
ATOM     29  N   UNL     1      -0.359  14.995  18.687  0.00  0.00    +0.000 NA
ATOM     30  H   UNL     1      -0.600  14.948  17.699  0.00  0.00    +0.000 HD
ENDBRANCH  27  29
ENDBRANCH  26  27
ENDBRANCH  25  26
ENDBRANCH   1  25
TORSDOF 6
ENDMDL
MODEL 9
REMARK VINA RESULT:      -6.3      5.953      8.087
REMARK  Name = 
REMARK  8 active torsions:
REMARK  status: ('A' for Active; 'I' for Inactive)
REMARK    1  A    between atoms: C_1  and  N_2
REMARK    2  A    between atoms: N_2  and  C_3
REMARK    3  A    between atoms: C_3  and  C_4
REMARK    4  A    between atoms: C_4  and  C_5
REMARK    5  A    between atoms: C_5  and  N_6
REMARK    6  A    between atoms: C_12  and  N_13
REMARK    7  A    between atoms: C_24  and  O_25
REMARK    8  A    between atoms: O_25  and  C_26
REMARK                            x       y       z     vdW  Elec       q    Type
REMARK                         _______ _______ _______ _____ _____    ______ ____
ROOT
ATOM      1  N   UNL     1      -0.584  11.090  19.482  0.00  0.00    +0.000 N 
ATOM      2  C   UNL     1      -1.679  11.757  20.029  0.00  0.00    +0.000 A 
ATOM      3  C   UNL     1      -2.819  11.926  19.335  0.00  0.00    +0.000 A 
ATOM      4  C   UNL     1      -2.978  11.463  17.978  0.00  0.00    +0.000 A 
ATOM      5  C   UNL     1      -4.105  11.798  17.216  0.00  0.00    +0.000 A 
ATOM      6  C   UNL     1      -4.253  11.306  15.926  0.00  0.00    +0.000 A 
ATOM      7  C   UNL     1      -3.278  10.451  15.403  0.00  0.00    +0.000 A 
ATOM      8  C   UNL     1      -2.132  10.122  16.149  0.00  0.00    +0.000 A 
ATOM      9  C   UNL     1      -1.971  10.657  17.440  0.00  0.00    +0.000 A 
ATOM     10  C   UNL     1      -0.731  10.400  18.248  0.00  0.00    +0.000 A 
ATOM     11  O   UNL     1       0.084   9.607  17.778  0.00  0.00    +0.000 OA
ATOM     12  C   UNL     1      -3.820  12.601  20.178  0.00  0.00    +0.000 C 
ATOM     13  O   UNL     1      -4.972  12.880  19.920  0.00  0.00    +0.000 OA
ATOM     14  C   UNL     1      -3.173  12.860  21.432  0.00  0.00    +0.000 A 
ATOM     15  C   UNL     1      -3.690  13.504  22.534  0.00  0.00    +0.000 A 
ATOM     16  C   UNL     1      -2.842  13.637  23.619  0.00  0.00    +0.000 A 
ATOM     17  C   UNL     1      -1.548  13.094  23.504  0.00  0.00    +0.000 A 
ATOM     18  N   UNL     1      -1.043  12.446  22.399  0.00  0.00    +0.000 NA
ATOM     19  C   UNL     1      -1.889  12.355  21.364  0.00  0.00    +0.000 A 
ENDROOT
BRANCH   7  20
ATOM     20  N   UNL     1      -3.480   9.897  14.057  0.00  0.00    +0.000 N 
ATOM     21  O   UNL     1      -2.473   9.690  13.363  0.00  0.00    +0.000 OA
ATOM     22  O   UNL     1      -4.641   9.673  13.694  0.00  0.00    +0.000 OA
ENDBRANCH   7  20
BRANCH  16  23
ATOM     23  O   UNL     1      -3.168  14.260  24.790  0.00  0.00    +0.000 OA
ATOM     24  C   UNL     1      -3.719  15.574  24.672  0.00  0.00    +0.000 C 
ENDBRANCH  16  23
BRANCH   1  25
ATOM     25  C   UNL     1       0.634  10.879  20.297  0.00  0.00    +0.000 C 
BRANCH  25  26
ATOM     26  C   UNL     1       0.923   9.447  20.783  0.00  0.00    +0.000 C 
BRANCH  26  27
ATOM     27  C   UNL     1       1.486   9.407  22.216  0.00  0.00    +0.000 C 
BRANCH  27  29
ATOM     28  C   UNL     1      -0.730   9.181  23.166  0.00  0.00    +0.000 C 
ATOM     29  N   UNL     1       0.521   9.925  23.187  0.00  0.00    +0.000 NA
ATOM     30  H   UNL     1       0.908   9.877  24.128  0.00  0.00    +0.000 HD
ENDBRANCH  27  29
ENDBRANCH  26  27
ENDBRANCH  25  26
ENDBRANCH   1  25
TORSDOF 6
ENDMDL
