MODEL 1
REMARK VINA RESULT:      -7.7      0.000      0.000
REMARK  Name = 
REMARK  7 active torsions:
REMARK  status: ('A' for Active; 'I' for Inactive)
REMARK    1  A    between atoms: C_1  and  C_2
REMARK    2  A    between atoms: C_2  and  C_3
REMARK    3  A    between atoms: C_3  and  N_4
REMARK    4  A    between atoms: C_5  and  S_6
REMARK    5  A    between atoms: S_6  and  C_7
REMARK    6  A    between atoms: C_7  and  C_8
REMARK    7  A    between atoms: N_23  and  C_24
REMARK                            x       y       z     vdW  Elec       q    Type
REMARK                         _______ _______ _______ _____ _____    ______ ____
ROOT
ATOM      1  N   UNL     1       2.922   5.648  17.918  0.00  0.00    +0.000 N 
ATOM      2  C   UNL     1       3.137   7.009  18.055  0.00  0.00    +0.000 A 
ATOM      3  N   UNL     1       4.397   7.335  17.826  0.00  0.00    +0.000 NA
ATOM      4  C   UNL     1       5.007   6.149  17.545  0.00  0.00    +0.000 A 
ATOM      5  C   UNL     1       4.136   5.098  17.570  0.00  0.00    +0.000 A 
ATOM      6  C   UNL     1       4.554   3.759  17.301  0.00  0.00    +0.000 A 
ATOM      7  O   UNL     1       3.827   2.771  17.302  0.00  0.00    +0.000 OA
ATOM      8  N   UNL     1       5.899   3.663  17.030  0.00  0.00    +0.000 N 
ATOM      9  C   UNL     1       6.822   4.686  17.006  0.00  0.00    +0.000 A 
ATOM     10  O   UNL     1       8.000   4.424  16.768  0.00  0.00    +0.000 OA
ATOM     11  N   UNL     1       6.351   5.971  17.265  0.00  0.00    +0.000 N 
ATOM     12  C   UNL     1       7.265   7.096  17.278  0.00  0.00    +0.000 C 
ATOM     13  H   UNL     1       6.258   2.741  16.843  0.00  0.00    +0.000 HD
ENDROOT
BRANCH   1  14
ATOM     14  C   UNL     1       1.703   4.907  18.188  0.00  0.00    +0.000 C 
BRANCH  14  16
ATOM     15  C   UNL     1       0.942   2.989  19.629  0.00  0.00    +0.000 C 
ATOM     16  C   UNL     1       1.608   4.358  19.611  0.00  0.00    +0.000 C 
ENDBRANCH  14  16
ENDBRANCH   1  14
BRANCH   2  17
ATOM     17  S   UNL     1       1.884   8.135  18.500  0.00  0.00    +0.000 S 
BRANCH  17  18
ATOM     18  C   UNL     1       1.815   7.943  20.307  0.00  0.00    +0.000 C 
BRANCH  18  19
ATOM     19  C   UNL     1       0.938   8.991  20.970  0.00  0.00    +0.000 A 
ATOM     20  C   UNL     1       0.561   8.871  22.320  0.00  0.00    +0.000 A 
ATOM     21  C   UNL     1      -0.226   9.849  22.934  0.00  0.00    +0.000 A 
ATOM     22  C   UNL     1      -0.651  10.960  22.206  0.00  0.00    +0.000 A 
ATOM     23 CL   UNL     1      -1.613  12.167  22.965  0.00  0.00    +0.000 Cl
ATOM     24  C   UNL     1      -0.294  11.094  20.867  0.00  0.00    +0.000 A 
ATOM     25  C   UNL     1       0.492  10.115  20.252  0.00  0.00    +0.000 A 
ENDBRANCH  18  19
ENDBRANCH  17  18
ENDBRANCH   2  17
TORSDOF 5
ENDMDL
MODEL 2
REMARK VINA RESULT:      -7.6      3.768      6.473
REMARK  Name = 
REMARK  7 active torsions:
REMARK  status: ('A' for Active; 'I' for Inactive)
REMARK    1  A    between atoms: C_1  and  C_2
REMARK    2  A    between atoms: C_2  and  C_3
REMARK    3  A    between atoms: C_3  and  N_4
REMARK    4  A    between atoms: C_5  and  S_6
REMARK    5  A    between atoms: S_6  and  C_7
REMARK    6  A    between atoms: C_7  and  C_8
REMARK    7  A    between atoms: N_23  and  C_24
REMARK                            x       y       z     vdW  Elec       q    Type
REMARK                         _______ _______ _______ _____ _____    ______ ____
ROOT
ATOM      1  N   UNL     1       3.603   4.425  18.669  0.00  0.00    +0.000 N 
ATOM      2  C   UNL     1       3.994   5.055  17.499  0.00  0.00    +0.000 A 
ATOM      3  N   UNL     1       3.604   6.316  17.462  0.00  0.00    +0.000 NA
ATOM      4  C   UNL     1       2.934   6.497  18.635  0.00  0.00    +0.000 A 
ATOM      5  C   UNL     1       2.930   5.372  19.410  0.00  0.00    +0.000 A 
ATOM      6  C   UNL     1       2.291   5.331  20.687  0.00  0.00    +0.000 A 
ATOM      7  O   UNL     1       2.252   4.359  21.434  0.00  0.00    +0.000 OA
ATOM      8  N   UNL     1       1.694   6.523  21.024  0.00  0.00    +0.000 N 
ATOM      9  C   UNL     1       1.656   7.681  20.276  0.00  0.00    +0.000 A 
ATOM     10  O   UNL     1       1.055   8.659  20.717  0.00  0.00    +0.000 OA
ATOM     11  N   UNL     1       2.308   7.661  19.045  0.00  0.00    +0.000 N 
ATOM     12  C   UNL     1       2.295   8.833  18.192  0.00  0.00    +0.000 C 
ATOM     13  H   UNL     1       1.215   6.555  21.909  0.00  0.00    +0.000 HD
ENDROOT
BRANCH   1  14
ATOM     14  C   UNL     1       3.757   3.025  19.022  0.00  0.00    +0.000 C 
BRANCH  14  16
ATOM     15  C   UNL     1       1.370   2.341  18.616  0.00  0.00    +0.000 C 
ATOM     16  C   UNL     1       2.827   2.082  18.260  0.00  0.00    +0.000 C 
ENDBRANCH  14  16
ENDBRANCH   1  14
BRANCH   2  17
ATOM     17  S   UNL     1       4.878   4.250  16.230  0.00  0.00    +0.000 S 
BRANCH  17  18
ATOM     18  C   UNL     1       6.533   4.074  16.961  0.00  0.00    +0.000 C 
BRANCH  18  19
ATOM     19  C   UNL     1       7.096   5.397  17.449  0.00  0.00    +0.000 A 
ATOM     20  C   UNL     1       7.710   5.502  18.710  0.00  0.00    +0.000 A 
ATOM     21  C   UNL     1       8.250   6.715  19.147  0.00  0.00    +0.000 A 
ATOM     22  C   UNL     1       8.180   7.843  18.329  0.00  0.00    +0.000 A 
ATOM     23 CL   UNL     1       8.850   9.334  18.864  0.00  0.00    +0.000 Cl
ATOM     24  C   UNL     1       7.571   7.762  17.080  0.00  0.00    +0.000 A 
ATOM     25  C   UNL     1       7.029   6.549  16.644  0.00  0.00    +0.000 A 
ENDBRANCH  18  19
ENDBRANCH  17  18
ENDBRANCH   2  17
TORSDOF 5
ENDMDL
MODEL 3
REMARK VINA RESULT:      -7.5      1.897      2.328
REMARK  Name = 
REMARK  7 active torsions:
REMARK  status: ('A' for Active; 'I' for Inactive)
REMARK    1  A    between atoms: C_1  and  C_2
REMARK    2  A    between atoms: C_2  and  C_3
REMARK    3  A    between atoms: C_3  and  N_4
REMARK    4  A    between atoms: C_5  and  S_6
REMARK    5  A    between atoms: S_6  and  C_7
REMARK    6  A    between atoms: C_7  and  C_8
REMARK    7  A    between atoms: N_23  and  C_24
REMARK                            x       y       z     vdW  Elec       q    Type
REMARK                         _______ _______ _______ _____ _____    ______ ____
ROOT
ATOM      1  N   UNL     1       2.961   5.398  19.423  0.00  0.00    +0.000 N 
ATOM      2  C   UNL     1       2.820   6.695  18.959  0.00  0.00    +0.000 A 
ATOM      3  N   UNL     1       3.468   6.886  17.824  0.00  0.00    +0.000 NA
ATOM      4  C   UNL     1       4.050   5.682  17.560  0.00  0.00    +0.000 A 
ATOM      5  C   UNL     1       3.747   4.741  18.502  0.00  0.00    +0.000 A 
ATOM      6  C   UNL     1       4.243   3.403  18.426  0.00  0.00    +0.000 A 
ATOM      7  O   UNL     1       4.008   2.509  19.232  0.00  0.00    +0.000 OA
ATOM      8  N   UNL     1       5.043   3.192  17.328  0.00  0.00    +0.000 N 
ATOM      9  C   UNL     1       5.392   4.107  16.358  0.00  0.00    +0.000 A 
ATOM     10  O   UNL     1       6.143   3.758  15.448  0.00  0.00    +0.000 OA
ATOM     11  N   UNL     1       4.867   5.391  16.481  0.00  0.00    +0.000 N 
ATOM     12  C   UNL     1       5.205   6.415  15.512  0.00  0.00    +0.000 C 
ATOM     13  H   UNL     1       5.435   2.270  17.224  0.00  0.00    +0.000 HD
ENDROOT
BRANCH   1  14
ATOM     14  C   UNL     1       2.484   4.844  20.678  0.00  0.00    +0.000 C 
BRANCH  14  16
ATOM     15  C   UNL     1       1.253   2.751  21.337  0.00  0.00    +0.000 C 
ATOM     16  C   UNL     1       1.180   4.056  20.558  0.00  0.00    +0.000 C 
ENDBRANCH  14  16
ENDBRANCH   1  14
BRANCH   2  17
ATOM     17  S   UNL     1       1.908   7.918  19.801  0.00  0.00    +0.000 S 
BRANCH  17  18
ATOM     18  C   UNL     1       1.549   9.114  18.479  0.00  0.00    +0.000 C 
BRANCH  18  19
ATOM     19  C   UNL     1       0.334   9.970  18.784  0.00  0.00    +0.000 A 
ATOM     20  C   UNL     1      -0.738  10.055  17.877  0.00  0.00    +0.000 A 
ATOM     21  C   UNL     1      -1.867  10.824  18.171  0.00  0.00    +0.000 A 
ATOM     22  C   UNL     1      -1.939  11.525  19.374  0.00  0.00    +0.000 A 
ATOM     23 CL   UNL     1      -3.332  12.467  19.738  0.00  0.00    +0.000 Cl
ATOM     24  C   UNL     1      -0.886  11.460  20.283  0.00  0.00    +0.000 A 
ATOM     25  C   UNL     1       0.245  10.691  19.988  0.00  0.00    +0.000 A 
ENDBRANCH  18  19
ENDBRANCH  17  18
ENDBRANCH   2  17
TORSDOF 5
ENDMDL
MODEL 4
REMARK VINA RESULT:      -7.4      1.565      1.789
REMARK  Name = 
REMARK  7 active torsions:
REMARK  status: ('A' for Active; 'I' for Inactive)
REMARK    1  A    between atoms: C_1  and  C_2
REMARK    2  A    between atoms: C_2  and  C_3
REMARK    3  A    between atoms: C_3  and  N_4
REMARK    4  A    between atoms: C_5  and  S_6
REMARK    5  A    between atoms: S_6  and  C_7
REMARK    6  A    between atoms: C_7  and  C_8
REMARK    7  A    between atoms: N_23  and  C_24
REMARK                            x       y       z     vdW  Elec       q    Type
REMARK                         _______ _______ _______ _____ _____    ______ ____
ROOT
ATOM      1  N   UNL     1       2.850   4.836  20.368  0.00  0.00    +0.000 N 
ATOM      2  C   UNL     1       2.385   6.088  20.002  0.00  0.00    +0.000 A 
ATOM      3  N   UNL     1       3.082   6.601  19.004  0.00  0.00    +0.000 NA
ATOM      4  C   UNL     1       4.026   5.656  18.730  0.00  0.00    +0.000 A 
ATOM      5  C   UNL     1       3.905   4.554  19.527  0.00  0.00    +0.000 A 
ATOM      6  C   UNL     1       4.784   3.434  19.414  0.00  0.00    +0.000 A 
ATOM      7  O   UNL     1       4.729   2.414  20.093  0.00  0.00    +0.000 OA
ATOM      8  N   UNL     1       5.740   3.602  18.441  0.00  0.00    +0.000 N 
ATOM      9  C   UNL     1       5.916   4.696  17.621  0.00  0.00    +0.000 A 
ATOM     10  O   UNL     1       6.844   4.695  16.813  0.00  0.00    +0.000 OA
ATOM     11  N   UNL     1       5.020   5.751  17.771  0.00  0.00    +0.000 N 
ATOM     12  C   UNL     1       5.152   6.945  16.959  0.00  0.00    +0.000 C 
ATOM     13  H   UNL     1       6.400   2.850  18.320  0.00  0.00    +0.000 HD
ENDROOT
BRANCH   1  14
ATOM     14  C   UNL     1       2.409   4.012  21.480  0.00  0.00    +0.000 C 
BRANCH  14  16
ATOM     15  C   UNL     1       0.656   3.109  19.918  0.00  0.00    +0.000 C 
ATOM     16  C   UNL     1       1.601   2.783  21.065  0.00  0.00    +0.000 C 
ENDBRANCH  14  16
ENDBRANCH   1  14
BRANCH   2  17
ATOM     17  S   UNL     1       1.052   6.882  20.795  0.00  0.00    +0.000 S 
BRANCH  17  18
ATOM     18  C   UNL     1       1.427   8.640  20.518  0.00  0.00    +0.000 C 
BRANCH  18  19
ATOM     19  C   UNL     1       0.445   9.561  21.218  0.00  0.00    +0.000 A 
ATOM     20  C   UNL     1       0.076   9.343  22.558  0.00  0.00    +0.000 A 
ATOM     21  C   UNL     1      -0.809  10.208  23.208  0.00  0.00    +0.000 A 
ATOM     22  C   UNL     1      -1.342  11.301  22.526  0.00  0.00    +0.000 A 
ATOM     23 CL   UNL     1      -2.426  12.368  23.329  0.00  0.00    +0.000 Cl
ATOM     24  C   UNL     1      -0.995  11.531  21.197  0.00  0.00    +0.000 A 
ATOM     25  C   UNL     1      -0.110  10.666  20.546  0.00  0.00    +0.000 A 
ENDBRANCH  18  19
ENDBRANCH  17  18
ENDBRANCH   2  17
TORSDOF 5
ENDMDL
MODEL 5
REMARK VINA RESULT:      -7.3      1.391      1.527
REMARK  Name = 
REMARK  7 active torsions:
REMARK  status: ('A' for Active; 'I' for Inactive)
REMARK    1  A    between atoms: C_1  and  C_2
REMARK    2  A    between atoms: C_2  and  C_3
REMARK    3  A    between atoms: C_3  and  N_4
REMARK    4  A    between atoms: C_5  and  S_6
REMARK    5  A    between atoms: S_6  and  C_7
REMARK    6  A    between atoms: C_7  and  C_8
REMARK    7  A    between atoms: N_23  and  C_24
REMARK                            x       y       z     vdW  Elec       q    Type
REMARK                         _______ _______ _______ _____ _____    ______ ____
ROOT
ATOM      1  N   UNL     1       2.832   4.473  19.529  0.00  0.00    +0.000 N 
ATOM      2  C   UNL     1       2.698   5.851  19.523  0.00  0.00    +0.000 A 
ATOM      3  N   UNL     1       3.357   6.406  18.522  0.00  0.00    +0.000 NA
ATOM      4  C   UNL     1       3.939   5.357  17.876  0.00  0.00    +0.000 A 
ATOM      5  C   UNL     1       3.625   4.156  18.447  0.00  0.00    +0.000 A 
ATOM      6  C   UNL     1       4.118   2.918  17.934  0.00  0.00    +0.000 A 
ATOM      7  O   UNL     1       3.874   1.808  18.394  0.00  0.00    +0.000 OA
ATOM      8  N   UNL     1       4.928   3.080  16.835  0.00  0.00    +0.000 N 
ATOM      9  C   UNL     1       5.288   4.265  16.228  0.00  0.00    +0.000 A 
ATOM     10  O   UNL     1       6.046   4.236  15.260  0.00  0.00    +0.000 OA
ATOM     11  N   UNL     1       4.765   5.438  16.768  0.00  0.00    +0.000 N 
ATOM     12  C   UNL     1       5.114   6.724  16.199  0.00  0.00    +0.000 C 
ATOM     13  H   UNL     1       5.319   2.244  16.433  0.00  0.00    +0.000 HD
ENDROOT
BRANCH   1  14
ATOM     14  C   UNL     1       2.342   3.534  20.523  0.00  0.00    +0.000 C 
BRANCH  14  16
ATOM     15  C   UNL     1       0.610   2.466  19.044  0.00  0.00    +0.000 C 
ATOM     16  C   UNL     1       0.866   3.172  20.367  0.00  0.00    +0.000 C 
ENDBRANCH  14  16
ENDBRANCH   1  14
BRANCH   2  17
ATOM     17  S   UNL     1       1.781   6.728  20.718  0.00  0.00    +0.000 S 
BRANCH  17  18
ATOM     18  C   UNL     1       1.584   8.358  19.935  0.00  0.00    +0.000 C 
BRANCH  18  19
ATOM     19  C   UNL     1       0.718   9.295  20.757  0.00  0.00    +0.000 A 
ATOM     20  C   UNL     1       0.466   9.044  22.117  0.00  0.00    +0.000 A 
ATOM     21  C   UNL     1      -0.311   9.923  22.877  0.00  0.00    +0.000 A 
ATOM     22  C   UNL     1      -0.853  11.063  22.286  0.00  0.00    +0.000 A 
ATOM     23 CL   UNL     1      -1.805  12.147  23.223  0.00  0.00    +0.000 Cl
ATOM     24  C   UNL     1      -0.622  11.327  20.938  0.00  0.00    +0.000 A 
ATOM     25  C   UNL     1       0.155  10.448  20.178  0.00  0.00    +0.000 A 
ENDBRANCH  18  19
ENDBRANCH  17  18
ENDBRANCH   2  17
TORSDOF 5
ENDMDL
MODEL 6
REMARK VINA RESULT:      -7.2      1.199      1.376
REMARK  Name = 
REMARK  7 active torsions:
REMARK  status: ('A' for Active; 'I' for Inactive)
REMARK    1  A    between atoms: C_1  and  C_2
REMARK    2  A    between atoms: C_2  and  C_3
REMARK    3  A    between atoms: C_3  and  N_4
REMARK    4  A    between atoms: C_5  and  S_6
REMARK    5  A    between atoms: S_6  and  C_7
REMARK    6  A    between atoms: C_7  and  C_8
REMARK    7  A    between atoms: N_23  and  C_24
REMARK                            x       y       z     vdW  Elec       q    Type
REMARK                         _______ _______ _______ _____ _____    ______ ____
ROOT
ATOM      1  N   UNL     1       3.008   5.801  18.312  0.00  0.00    +0.000 N 
ATOM      2  C   UNL     1       3.182   7.130  17.963  0.00  0.00    +0.000 A 
ATOM      3  N   UNL     1       4.445   7.410  17.699  0.00  0.00    +0.000 NA
ATOM      4  C   UNL     1       5.101   6.232  17.896  0.00  0.00    +0.000 A 
ATOM      5  C   UNL     1       4.255   5.219  18.250  0.00  0.00    +0.000 A 
ATOM      6  C   UNL     1       4.721   3.893  18.501  0.00  0.00    +0.000 A 
ATOM      7  O   UNL     1       4.019   2.938  18.818  0.00  0.00    +0.000 OA
ATOM      8  N   UNL     1       6.083   3.768  18.354  0.00  0.00    +0.000 N 
ATOM      9  C   UNL     1       6.982   4.756  18.014  0.00  0.00    +0.000 A 
ATOM     10  O   UNL     1       8.179   4.481  17.948  0.00  0.00    +0.000 OA
ATOM     11  N   UNL     1       6.464   6.027  17.770  0.00  0.00    +0.000 N 
ATOM     12  C   UNL     1       7.348   7.123  17.427  0.00  0.00    +0.000 C 
ATOM     13  H   UNL     1       6.476   2.858  18.530  0.00  0.00    +0.000 HD
ENDROOT
BRANCH   1  14
ATOM     14  C   UNL     1       1.792   5.151  18.765  0.00  0.00    +0.000 C 
BRANCH  14  16
ATOM     15  C   UNL     1       1.208   3.713  20.746  0.00  0.00    +0.000 C 
ATOM     16  C   UNL     1       1.641   5.097  20.285  0.00  0.00    +0.000 C 
ENDBRANCH  14  16
ENDBRANCH   1  14
BRANCH   2  17
ATOM     17  S   UNL     1       1.875   8.282  17.907  0.00  0.00    +0.000 S 
BRANCH  17  18
ATOM     18  C   UNL     1       1.644   8.691  19.664  0.00  0.00    +0.000 C 
BRANCH  18  19
ATOM     19  C   UNL     1       0.622   9.793  19.875  0.00  0.00    +0.000 A 
ATOM     20  C   UNL     1       0.585  10.527  21.074  0.00  0.00    +0.000 A 
ATOM     21  C   UNL     1      -0.342  11.558  21.256  0.00  0.00    +0.000 A 
ATOM     22  C   UNL     1      -1.249  11.866  20.242  0.00  0.00    +0.000 A 
ATOM     23 CL   UNL     1      -2.385  13.139  20.464  0.00  0.00    +0.000 Cl
ATOM     24  C   UNL     1      -1.234  11.147  19.050  0.00  0.00    +0.000 A 
ATOM     25  C   UNL     1      -0.308  10.115  18.869  0.00  0.00    +0.000 A 
ENDBRANCH  18  19
ENDBRANCH  17  18
ENDBRANCH   2  17
TORSDOF 5
ENDMDL
MODEL 7
REMARK VINA RESULT:      -7.2      1.348      1.777
REMARK  Name = 
REMARK  7 active torsions:
REMARK  status: ('A' for Active; 'I' for Inactive)
REMARK    1  A    between atoms: C_1  and  C_2
REMARK    2  A    between atoms: C_2  and  C_3
REMARK    3  A    between atoms: C_3  and  N_4
REMARK    4  A    between atoms: C_5  and  S_6
REMARK    5  A    between atoms: S_6  and  C_7
REMARK    6  A    between atoms: C_7  and  C_8
REMARK    7  A    between atoms: N_23  and  C_24
REMARK                            x       y       z     vdW  Elec       q    Type
REMARK                         _______ _______ _______ _____ _____    ______ ____
ROOT
ATOM      1  N   UNL     1       2.200   4.588  19.270  0.00  0.00    +0.000 N 
ATOM      2  C   UNL     1       2.460   5.894  19.649  0.00  0.00    +0.000 A 
ATOM      3  N   UNL     1       3.554   6.365  19.078  0.00  0.00    +0.000 NA
ATOM      4  C   UNL     1       4.014   5.329  18.322  0.00  0.00    +0.000 A 
ATOM      5  C   UNL     1       3.203   4.232  18.395  0.00  0.00    +0.000 A 
ATOM      6  C   UNL     1       3.485   3.029  17.679  0.00  0.00    +0.000 A 
ATOM      7  O   UNL     1       2.801   2.011  17.696  0.00  0.00    +0.000 OA
ATOM      8  N   UNL     1       4.641   3.107  16.938  0.00  0.00    +0.000 N 
ATOM      9  C   UNL     1       5.501   4.180  16.840  0.00  0.00    +0.000 A 
ATOM     10  O   UNL     1       6.512   4.077  16.147  0.00  0.00    +0.000 OA
ATOM     11  N   UNL     1       5.165   5.329  17.553  0.00  0.00    +0.000 N 
ATOM     12  C   UNL     1       6.029   6.492  17.517  0.00  0.00    +0.000 C 
ATOM     13  H   UNL     1       4.903   2.285  16.419  0.00  0.00    +0.000 HD
ENDROOT
BRANCH   1  14
ATOM     14  C   UNL     1       1.155   3.708  19.764  0.00  0.00    +0.000 C 
BRANCH  14  16
ATOM     15  C   UNL     1       2.612   2.542  21.452  0.00  0.00    +0.000 C 
ATOM     16  C   UNL     1       1.316   3.308  21.230  0.00  0.00    +0.000 C 
ENDBRANCH  14  16
ENDBRANCH   1  14
BRANCH   2  17
ATOM     17  S   UNL     1       1.459   6.782  20.766  0.00  0.00    +0.000 S 
BRANCH  17  18
ATOM     18  C   UNL     1       1.506   8.464  20.075  0.00  0.00    +0.000 C 
BRANCH  18  19
ATOM     19  C   UNL     1       0.706   9.454  20.901  0.00  0.00    +0.000 A 
ATOM     20  C   UNL     1       0.496  10.770  20.451  0.00  0.00    +0.000 A 
ATOM     21  C   UNL     1      -0.262  11.673  21.202  0.00  0.00    +0.000 A 
ATOM     22  C   UNL     1      -0.819  11.274  22.417  0.00  0.00    +0.000 A 
ATOM     23 CL   UNL     1      -1.758  12.383  23.337  0.00  0.00    +0.000 Cl
ATOM     24  C   UNL     1      -0.618   9.977  22.884  0.00  0.00    +0.000 A 
ATOM     25  C   UNL     1       0.142   9.075  22.133  0.00  0.00    +0.000 A 
ENDBRANCH  18  19
ENDBRANCH  17  18
ENDBRANCH   2  17
TORSDOF 5
ENDMDL
MODEL 8
REMARK VINA RESULT:      -7.2      2.008      2.283
REMARK  Name = 
REMARK  7 active torsions:
REMARK  status: ('A' for Active; 'I' for Inactive)
REMARK    1  A    between atoms: C_1  and  C_2
REMARK    2  A    between atoms: C_2  and  C_3
REMARK    3  A    between atoms: C_3  and  N_4
REMARK    4  A    between atoms: C_5  and  S_6
REMARK    5  A    between atoms: S_6  and  C_7
REMARK    6  A    between atoms: C_7  and  C_8
REMARK    7  A    between atoms: N_23  and  C_24
REMARK                            x       y       z     vdW  Elec       q    Type
REMARK                         _______ _______ _______ _____ _____    ______ ____
ROOT
ATOM      1  N   UNL     1       2.925   5.427  19.397  0.00  0.00    +0.000 N 
ATOM      2  C   UNL     1       2.794   6.716  18.908  0.00  0.00    +0.000 A 
ATOM      3  N   UNL     1       3.457   6.886  17.779  0.00  0.00    +0.000 NA
ATOM      4  C   UNL     1       4.039   5.677  17.543  0.00  0.00    +0.000 A 
ATOM      5  C   UNL     1       3.721   4.753  18.497  0.00  0.00    +0.000 A 
ATOM      6  C   UNL     1       4.214   3.413  18.451  0.00  0.00    +0.000 A 
ATOM      7  O   UNL     1       3.967   2.534  19.270  0.00  0.00    +0.000 OA
ATOM      8  N   UNL     1       5.028   3.180  17.367  0.00  0.00    +0.000 N 
ATOM      9  C   UNL     1       5.391   4.077  16.386  0.00  0.00    +0.000 A 
ATOM     10  O   UNL     1       6.152   3.711  15.492  0.00  0.00    +0.000 OA
ATOM     11  N   UNL     1       4.868   5.365  16.479  0.00  0.00    +0.000 N 
ATOM     12  C   UNL     1       5.220   6.370  15.497  0.00  0.00    +0.000 C 
ATOM     13  H   UNL     1       5.418   2.255  17.285  0.00  0.00    +0.000 HD
ENDROOT
BRANCH   1  14
ATOM     14  C   UNL     1       2.432   4.897  20.655  0.00  0.00    +0.000 C 
BRANCH  14  16
ATOM     15  C   UNL     1       1.241   2.793  21.356  0.00  0.00    +0.000 C 
ATOM     16  C   UNL     1       1.156   4.066  20.525  0.00  0.00    +0.000 C 
ENDBRANCH  14  16
ENDBRANCH   1  14
BRANCH   2  17
ATOM     17  S   UNL     1       1.874   7.956  19.718  0.00  0.00    +0.000 S 
BRANCH  17  18
ATOM     18  C   UNL     1       1.613   9.173  18.391  0.00  0.00    +0.000 C 
BRANCH  18  19
ATOM     19  C   UNL     1       0.835  10.388  18.863  0.00  0.00    +0.000 A 
ATOM     20  C   UNL     1       1.394  11.677  18.794  0.00  0.00    +0.000 A 
ATOM     21  C   UNL     1       0.666  12.797  19.205  0.00  0.00    +0.000 A 
ATOM     22  C   UNL     1      -0.630  12.645  19.696  0.00  0.00    +0.000 A 
ATOM     23 CL   UNL     1      -1.527  14.024  20.196  0.00  0.00    +0.000 Cl
ATOM     24  C   UNL     1      -1.200  11.376  19.779  0.00  0.00    +0.000 A 
ATOM     25  C   UNL     1      -0.471  10.255  19.369  0.00  0.00    +0.000 A 
ENDBRANCH  18  19
ENDBRANCH  17  18
ENDBRANCH   2  17
TORSDOF 5
ENDMDL
MODEL 9
REMARK VINA RESULT:      -7.2      1.095      1.497
REMARK  Name = 
REMARK  7 active torsions:
REMARK  status: ('A' for Active; 'I' for Inactive)
REMARK    1  A    between atoms: C_1  and  C_2
REMARK    2  A    between atoms: C_2  and  C_3
REMARK    3  A    between atoms: C_3  and  N_4
REMARK    4  A    between atoms: C_5  and  S_6
REMARK    5  A    between atoms: S_6  and  C_7
REMARK    6  A    between atoms: C_7  and  C_8
REMARK    7  A    between atoms: N_23  and  C_24
REMARK                            x       y       z     vdW  Elec       q    Type
REMARK                         _______ _______ _______ _____ _____    ______ ____
ROOT
ATOM      1  N   UNL     1       3.083   5.671  19.413  0.00  0.00    +0.000 N 
ATOM      2  C   UNL     1       2.973   6.912  18.807  0.00  0.00    +0.000 A 
ATOM      3  N   UNL     1       3.997   7.166  18.014  0.00  0.00    +0.000 NA
ATOM      4  C   UNL     1       4.792   6.064  18.123  0.00  0.00    +0.000 A 
ATOM      5  C   UNL     1       4.258   5.119  18.952  0.00  0.00    +0.000 A 
ATOM      6  C   UNL     1       4.915   3.878  19.212  0.00  0.00    +0.000 A 
ATOM      7  O   UNL     1       4.492   2.985  19.939  0.00  0.00    +0.000 OA
ATOM      8  N   UNL     1       6.116   3.760  18.552  0.00  0.00    +0.000 N 
ATOM      9  C   UNL     1       6.706   4.686  17.718  0.00  0.00    +0.000 A 
ATOM     10  O   UNL     1       7.803   4.432  17.223  0.00  0.00    +0.000 OA
ATOM     11  N   UNL     1       6.010   5.872  17.495  0.00  0.00    +0.000 N 
ATOM     12  C   UNL     1       6.575   6.903  16.647  0.00  0.00    +0.000 C 
ATOM     13  H   UNL     1       6.634   2.911  18.704  0.00  0.00    +0.000 HD
ENDROOT
BRANCH   1  14
ATOM     14  C   UNL     1       2.212   5.091  20.420  0.00  0.00    +0.000 C 
BRANCH  14  16
ATOM     15  C   UNL     1       1.108   2.848  20.709  0.00  0.00    +0.000 C 
ATOM     16  C   UNL     1       1.179   4.112  19.863  0.00  0.00    +0.000 C 
ENDBRANCH  14  16
ENDBRANCH   1  14
BRANCH   2  17
ATOM     17  S   UNL     1       1.641   7.999  19.091  0.00  0.00    +0.000 S 
BRANCH  17  18
ATOM     18  C   UNL     1       1.611   8.110  20.906  0.00  0.00    +0.000 C 
BRANCH  18  19
ATOM     19  C   UNL     1       0.672   9.192  21.407  0.00  0.00    +0.000 A 
ATOM     20  C   UNL     1       0.211  10.206  20.548  0.00  0.00    +0.000 A 
ATOM     21  C   UNL     1      -0.674  11.187  21.006  0.00  0.00    +0.000 A 
ATOM     22  C   UNL     1      -1.106  11.171  22.332  0.00  0.00    +0.000 A 
ATOM     23 CL   UNL     1      -2.199  12.375  22.893  0.00  0.00    +0.000 Cl
ATOM     24  C   UNL     1      -0.656  10.180  23.201  0.00  0.00    +0.000 A 
ATOM     25  C   UNL     1       0.229   9.199  22.743  0.00  0.00    +0.000 A 
ENDBRANCH  18  19
ENDBRANCH  17  18
ENDBRANCH   2  17
TORSDOF 5
ENDMDL
