MODEL 1
REMARK VINA RESULT:      -7.5      0.000      0.000
REMARK  Name = 
REMARK  6 active torsions:
REMARK  status: ('A' for Active; 'I' for Inactive)
REMARK    1  A    between atoms: C_1  and  C_2
REMARK    2  A    between atoms: C_2  and  O_3
REMARK    3  A    between atoms: O_3  and  C_4
REMARK    4  A    between atoms: C_4  and  C_5
REMARK    5  A    between atoms: N_11  and  C_12
REMARK    6  A    between atoms: C_12  and  C_13
REMARK                            x       y       z     vdW  Elec       q    Type
REMARK                         _______ _______ _______ _____ _____    ______ ____
ROOT
ATOM      1  C   UNL     1       6.547   5.315  16.362  0.00  0.00    +0.000 C 
ATOM      2  C   UNL     1       7.265   6.646  16.671  0.00  0.00    +0.000 C 
ATOM      3  O   UNL     1       7.552   6.712  18.076  0.00  0.00    +0.000 OA
ATOM      4  C   UNL     1       7.749   5.360  18.498  0.00  0.00    +0.000 C 
ATOM      5  C   UNL     1       6.712   4.588  17.702  0.00  0.00    +0.000 C 
ATOM      6  C   UNL     1       5.378   4.821  18.446  0.00  0.00    +0.000 C 
ATOM      7  N   UNL     1       4.327   5.019  17.455  0.00  0.00    +0.000 NA
ATOM      8  C   UNL     1       5.012   5.240  16.176  0.00  0.00    +0.000 C 
ENDROOT
BRANCH   1   9
ATOM      9  C   UNL     1       7.092   4.853  14.986  0.00  0.00    +0.000 C 
BRANCH   9  10
ATOM     10  O   UNL     1       6.246   4.029  14.204  0.00  0.00    +0.000 OA
BRANCH  10  12
ATOM     11  C   UNL     1       5.652   3.103  12.100  0.00  0.00    +0.000 C 
ATOM     12  C   UNL     1       6.656   3.951  12.850  0.00  0.00    +0.000 C 
ENDBRANCH  10  12
ENDBRANCH   9  10
ENDBRANCH   1   9
BRANCH   7  13
ATOM     13  C   UNL     1       3.378   3.892  17.401  0.00  0.00    +0.000 C 
BRANCH  13  14
ATOM     14  C   UNL     1       2.707   3.577  18.719  0.00  0.00    +0.000 A 
ATOM     15  C   UNL     1       1.374   3.939  18.956  0.00  0.00    +0.000 A 
ATOM     16  C   UNL     1       0.754   3.641  20.184  0.00  0.00    +0.000 A 
ATOM     17  C   UNL     1       1.474   2.955  21.156  0.00  0.00    +0.000 A 
ATOM     18  F   UNL     1       0.878   2.663  22.320  0.00  0.00    +0.000 F 
ATOM     19  C   UNL     1       2.786   2.581  20.932  0.00  0.00    +0.000 A 
ATOM     20  F   UNL     1       3.478   1.919  21.875  0.00  0.00    +0.000 F 
ATOM     21  C   UNL     1       3.413   2.882  19.723  0.00  0.00    +0.000 A 
ENDBRANCH  13  14
ENDBRANCH   7  13
TORSDOF 5
ENDMDL
MODEL 2
REMARK VINA RESULT:      -7.4      3.578      6.177
REMARK  Name = 
REMARK  6 active torsions:
REMARK  status: ('A' for Active; 'I' for Inactive)
REMARK    1  A    between atoms: C_1  and  C_2
REMARK    2  A    between atoms: C_2  and  O_3
REMARK    3  A    between atoms: O_3  and  C_4
REMARK    4  A    between atoms: C_4  and  C_5
REMARK    5  A    between atoms: N_11  and  C_12
REMARK    6  A    between atoms: C_12  and  C_13
REMARK                            x       y       z     vdW  Elec       q    Type
REMARK                         _______ _______ _______ _____ _____    ______ ____
ROOT
ATOM      1  C   UNL     1       2.370   4.648  19.751  0.00  0.00    +0.000 C 
ATOM      2  C   UNL     1       1.016   4.281  20.392  0.00  0.00    +0.000 C 
ATOM      3  O   UNL     1       1.106   2.968  20.965  0.00  0.00    +0.000 OA
ATOM      4  C   UNL     1       2.468   2.812  21.371  0.00  0.00    +0.000 C 
ATOM      5  C   UNL     1       3.247   3.498  20.264  0.00  0.00    +0.000 C 
ATOM      6  C   UNL     1       3.282   2.478  19.104  0.00  0.00    +0.000 C 
ATOM      7  N   UNL     1       3.082   3.199  17.852  0.00  0.00    +0.000 NA
ATOM      8  C   UNL     1       2.608   4.537  18.224  0.00  0.00    +0.000 C 
ENDROOT
BRANCH   1   9
ATOM      9  C   UNL     1       2.572   6.160  20.029  0.00  0.00    +0.000 C 
BRANCH   9  10
ATOM     10  O   UNL     1       2.698   7.009  18.904  0.00  0.00    +0.000 OA
BRANCH  10  12
ATOM     11  C   UNL     1       2.012   8.958  17.733  0.00  0.00    +0.000 C 
ATOM     12  C   UNL     1       2.011   8.238  19.063  0.00  0.00    +0.000 C 
ENDBRANCH  10  12
ENDBRANCH   9  10
ENDBRANCH   1   9
BRANCH   7  13
ATOM     13  C   UNL     1       4.299   3.242  17.021  0.00  0.00    +0.000 C 
BRANCH  13  14
ATOM     14  C   UNL     1       5.125   4.498  17.190  0.00  0.00    +0.000 A 
ATOM     15  C   UNL     1       4.849   5.650  16.441  0.00  0.00    +0.000 A 
ATOM     16  C   UNL     1       5.621   6.816  16.604  0.00  0.00    +0.000 A 
ATOM     17  C   UNL     1       6.648   6.822  17.542  0.00  0.00    +0.000 A 
ATOM     18  F   UNL     1       7.374   7.937  17.702  0.00  0.00    +0.000 F 
ATOM     19  C   UNL     1       6.924   5.696  18.296  0.00  0.00    +0.000 A 
ATOM     20  F   UNL     1       7.918   5.707  19.199  0.00  0.00    +0.000 F 
ATOM     21  C   UNL     1       6.173   4.533  18.134  0.00  0.00    +0.000 A 
ENDBRANCH  13  14
ENDBRANCH   7  13
TORSDOF 5
ENDMDL
MODEL 3
REMARK VINA RESULT:      -7.3      1.480      1.697
REMARK  Name = 
REMARK  6 active torsions:
REMARK  status: ('A' for Active; 'I' for Inactive)
REMARK    1  A    between atoms: C_1  and  C_2
REMARK    2  A    between atoms: C_2  and  O_3
REMARK    3  A    between atoms: O_3  and  C_4
REMARK    4  A    between atoms: C_4  and  C_5
REMARK    5  A    between atoms: N_11  and  C_12
REMARK    6  A    between atoms: C_12  and  C_13
REMARK                            x       y       z     vdW  Elec       q    Type
REMARK                         _______ _______ _______ _____ _____    ______ ____
ROOT
ATOM      1  C   UNL     1       5.686   5.447  16.110  0.00  0.00    +0.000 C 
ATOM      2  C   UNL     1       7.203   5.721  16.063  0.00  0.00    +0.000 C 
ATOM      3  O   UNL     1       7.771   5.450  17.354  0.00  0.00    +0.000 OA
ATOM      4  C   UNL     1       6.970   4.411  17.922  0.00  0.00    +0.000 C 
ATOM      5  C   UNL     1       5.562   4.770  17.481  0.00  0.00    +0.000 C 
ATOM      6  C   UNL     1       5.115   5.895  18.440  0.00  0.00    +0.000 C 
ATOM      7  N   UNL     1       4.385   6.895  17.668  0.00  0.00    +0.000 NA
ATOM      8  C   UNL     1       4.653   6.593  16.257  0.00  0.00    +0.000 C 
ENDROOT
BRANCH   1   9
ATOM      9  C   UNL     1       5.328   4.825  14.736  0.00  0.00    +0.000 C 
BRANCH   9  10
ATOM     10  O   UNL     1       6.121   3.736  14.298  0.00  0.00    +0.000 OA
BRANCH  10  12
ATOM     11  C   UNL     1       5.353   3.177  12.122  0.00  0.00    +0.000 C 
ATOM     12  C   UNL     1       6.461   3.822  12.925  0.00  0.00    +0.000 C 
ENDBRANCH  10  12
ENDBRANCH   9  10
ENDBRANCH   1   9
BRANCH   7  13
ATOM     13  C   UNL     1       2.945   6.912  17.978  0.00  0.00    +0.000 C 
BRANCH  13  14
ATOM     14  C   UNL     1       2.428   5.640  18.614  0.00  0.00    +0.000 A 
ATOM     15  C   UNL     1       1.862   4.622  17.836  0.00  0.00    +0.000 A 
ATOM     16  C   UNL     1       1.384   3.440  18.434  0.00  0.00    +0.000 A 
ATOM     17  C   UNL     1       1.508   3.281  19.810  0.00  0.00    +0.000 A 
ATOM     18  F   UNL     1       1.062   2.150  20.374  0.00  0.00    +0.000 F 
ATOM     19  C   UNL     1       2.075   4.272  20.588  0.00  0.00    +0.000 A 
ATOM     20  F   UNL     1       2.190   4.114  21.918  0.00  0.00    +0.000 F 
ATOM     21  C   UNL     1       2.540   5.451  20.008  0.00  0.00    +0.000 A 
ENDBRANCH  13  14
ENDBRANCH   7  13
TORSDOF 5
ENDMDL
MODEL 4
REMARK VINA RESULT:      -7.3      1.711      2.038
REMARK  Name = 
REMARK  6 active torsions:
REMARK  status: ('A' for Active; 'I' for Inactive)
REMARK    1  A    between atoms: C_1  and  C_2
REMARK    2  A    between atoms: C_2  and  O_3
REMARK    3  A    between atoms: O_3  and  C_4
REMARK    4  A    between atoms: C_4  and  C_5
REMARK    5  A    between atoms: N_11  and  C_12
REMARK    6  A    between atoms: C_12  and  C_13
REMARK                            x       y       z     vdW  Elec       q    Type
REMARK                         _______ _______ _______ _____ _____    ______ ____
ROOT
ATOM      1  C   UNL     1       5.706   5.216  16.184  0.00  0.00    +0.000 C 
ATOM      2  C   UNL     1       7.237   5.392  16.130  0.00  0.00    +0.000 C 
ATOM      3  O   UNL     1       7.772   5.281  17.457  0.00  0.00    +0.000 OA
ATOM      4  C   UNL     1       6.903   4.384  18.154  0.00  0.00    +0.000 C 
ATOM      5  C   UNL     1       5.525   4.755  17.636  0.00  0.00    +0.000 C 
ATOM      6  C   UNL     1       5.134   6.032  18.412  0.00  0.00    +0.000 C 
ATOM      7  N   UNL     1       4.475   6.948  17.487  0.00  0.00    +0.000 NA
ATOM      8  C   UNL     1       4.742   6.427  16.141  0.00  0.00    +0.000 C 
ENDROOT
BRANCH   1   9
ATOM      9  C   UNL     1       5.328   4.420  14.908  0.00  0.00    +0.000 C 
BRANCH   9  10
ATOM     10  O   UNL     1       6.359   3.674  14.287  0.00  0.00    +0.000 OA
BRANCH  10  12
ATOM     11  C   UNL     1       5.657   3.050  12.107  0.00  0.00    +0.000 C 
ATOM     12  C   UNL     1       6.519   3.994  12.916  0.00  0.00    +0.000 C 
ENDBRANCH  10  12
ENDBRANCH   9  10
ENDBRANCH   1   9
BRANCH   7  13
ATOM     13  C   UNL     1       3.035   7.093  17.761  0.00  0.00    +0.000 C 
BRANCH  13  14
ATOM     14  C   UNL     1       2.442   5.977  18.593  0.00  0.00    +0.000 A 
ATOM     15  C   UNL     1       2.327   6.097  19.985  0.00  0.00    +0.000 A 
ATOM     16  C   UNL     1       1.772   5.056  20.753  0.00  0.00    +0.000 A 
ATOM     17  C   UNL     1       1.312   3.912  20.110  0.00  0.00    +0.000 A 
ATOM     18  F   UNL     1       0.775   2.927  20.844  0.00  0.00    +0.000 F 
ATOM     19  C   UNL     1       1.409   3.785  18.738  0.00  0.00    +0.000 A 
ATOM     20  F   UNL     1       0.964   2.677  18.122  0.00  0.00    +0.000 F 
ATOM     21  C   UNL     1       1.966   4.805  17.969  0.00  0.00    +0.000 A 
ENDBRANCH  13  14
ENDBRANCH   7  13
TORSDOF 5
ENDMDL
MODEL 5
REMARK VINA RESULT:      -7.3      3.528      6.270
REMARK  Name = 
REMARK  6 active torsions:
REMARK  status: ('A' for Active; 'I' for Inactive)
REMARK    1  A    between atoms: C_1  and  C_2
REMARK    2  A    between atoms: C_2  and  O_3
REMARK    3  A    between atoms: O_3  and  C_4
REMARK    4  A    between atoms: C_4  and  C_5
REMARK    5  A    between atoms: N_11  and  C_12
REMARK    6  A    between atoms: C_12  and  C_13
REMARK                            x       y       z     vdW  Elec       q    Type
REMARK                         _______ _______ _______ _____ _____    ______ ____
ROOT
ATOM      1  C   UNL     1       2.974   4.805  18.928  0.00  0.00    +0.000 C 
ATOM      2  C   UNL     1       1.520   4.394  19.239  0.00  0.00    +0.000 C 
ATOM      3  O   UNL     1       1.485   2.998  19.570  0.00  0.00    +0.000 OA
ATOM      4  C   UNL     1       2.747   2.710  20.180  0.00  0.00    +0.000 C 
ATOM      5  C   UNL     1       3.725   3.544  19.373  0.00  0.00    +0.000 C 
ATOM      6  C   UNL     1       3.960   2.743  18.073  0.00  0.00    +0.000 C 
ATOM      7  N   UNL     1       4.005   3.681  16.956  0.00  0.00    +0.000 NA
ATOM      8  C   UNL     1       3.488   4.953  17.474  0.00  0.00    +0.000 C 
ENDROOT
BRANCH   1   9
ATOM      9  C   UNL     1       3.140   6.234  19.507  0.00  0.00    +0.000 C 
BRANCH   9  10
ATOM     10  O   UNL     1       2.056   6.753  20.256  0.00  0.00    +0.000 OA
BRANCH  10  12
ATOM     11  C   UNL     1       2.132   8.292  18.449  0.00  0.00    +0.000 C 
ATOM     12  C   UNL     1       1.724   8.082  19.890  0.00  0.00    +0.000 C 
ENDBRANCH  10  12
ENDBRANCH   9  10
ENDBRANCH   1   9
BRANCH   7  13
ATOM     13  C   UNL     1       5.354   3.813  16.379  0.00  0.00    +0.000 C 
BRANCH  13  14
ATOM     14  C   UNL     1       6.193   4.910  16.997  0.00  0.00    +0.000 A 
ATOM     15  C   UNL     1       6.173   6.212  16.480  0.00  0.00    +0.000 A 
ATOM     16  C   UNL     1       6.954   7.229  17.060  0.00  0.00    +0.000 A 
ATOM     17  C   UNL     1       7.728   6.934  18.177  0.00  0.00    +0.000 A 
ATOM     18  F   UNL     1       8.462   7.907  18.734  0.00  0.00    +0.000 F 
ATOM     19  C   UNL     1       7.748   5.656  18.705  0.00  0.00    +0.000 A 
ATOM     20  F   UNL     1       8.499   5.376  19.784  0.00  0.00    +0.000 F 
ATOM     21  C   UNL     1       6.988   4.639  18.131  0.00  0.00    +0.000 A 
ENDBRANCH  13  14
ENDBRANCH   7  13
TORSDOF 5
ENDMDL
MODEL 6
REMARK VINA RESULT:      -7.3      3.757      6.622
REMARK  Name = 
REMARK  6 active torsions:
REMARK  status: ('A' for Active; 'I' for Inactive)
REMARK    1  A    between atoms: C_1  and  C_2
REMARK    2  A    between atoms: C_2  and  O_3
REMARK    3  A    between atoms: O_3  and  C_4
REMARK    4  A    between atoms: C_4  and  C_5
REMARK    5  A    between atoms: N_11  and  C_12
REMARK    6  A    between atoms: C_12  and  C_13
REMARK                            x       y       z     vdW  Elec       q    Type
REMARK                         _______ _______ _______ _____ _____    ______ ____
ROOT
ATOM      1  C   UNL     1       2.380   4.670  19.625  0.00  0.00    +0.000 C 
ATOM      2  C   UNL     1       1.049   4.263  20.290  0.00  0.00    +0.000 C 
ATOM      3  O   UNL     1       1.202   2.973  20.900  0.00  0.00    +0.000 OA
ATOM      4  C   UNL     1       2.573   2.889  21.297  0.00  0.00    +0.000 C 
ATOM      5  C   UNL     1       3.311   3.577  20.162  0.00  0.00    +0.000 C 
ATOM      6  C   UNL     1       3.381   2.525  19.033  0.00  0.00    +0.000 C 
ATOM      7  N   UNL     1       3.138   3.199  17.762  0.00  0.00    +0.000 NA
ATOM      8  C   UNL     1       2.608   4.525  18.100  0.00  0.00    +0.000 C 
ENDROOT
BRANCH   1   9
ATOM      9  C   UNL     1       2.516   6.197  19.857  0.00  0.00    +0.000 C 
BRANCH   9  10
ATOM     10  O   UNL     1       1.602   6.794  20.759  0.00  0.00    +0.000 OA
BRANCH  10  12
ATOM     11  C   UNL     1       1.211   8.828  21.920  0.00  0.00    +0.000 C 
ATOM     12  C   UNL     1       1.484   8.194  20.574  0.00  0.00    +0.000 C 
ENDBRANCH  10  12
ENDBRANCH   9  10
ENDBRANCH   1   9
BRANCH   7  13
ATOM     13  C   UNL     1       4.345   3.271  16.918  0.00  0.00    +0.000 C 
BRANCH  13  14
ATOM     14  C   UNL     1       5.179   4.516  17.127  0.00  0.00    +0.000 A 
ATOM     15  C   UNL     1       4.886   5.704  16.445  0.00  0.00    +0.000 A 
ATOM     16  C   UNL     1       5.665   6.860  16.646  0.00  0.00    +0.000 A 
ATOM     17  C   UNL     1       6.717   6.817  17.554  0.00  0.00    +0.000 A 
ATOM     18  F   UNL     1       7.450   7.921  17.750  0.00  0.00    +0.000 F 
ATOM     19  C   UNL     1       7.010   5.655  18.242  0.00  0.00    +0.000 A 
ATOM     20  F   UNL     1       8.029   5.618  19.118  0.00  0.00    +0.000 F 
ATOM     21  C   UNL     1       6.252   4.502  18.042  0.00  0.00    +0.000 A 
ENDBRANCH  13  14
ENDBRANCH   7  13
TORSDOF 5
ENDMDL
MODEL 7
REMARK VINA RESULT:      -7.2      0.811      1.406
REMARK  Name = 
REMARK  6 active torsions:
REMARK  status: ('A' for Active; 'I' for Inactive)
REMARK    1  A    between atoms: C_1  and  C_2
REMARK    2  A    between atoms: C_2  and  O_3
REMARK    3  A    between atoms: O_3  and  C_4
REMARK    4  A    between atoms: C_4  and  C_5
REMARK    5  A    between atoms: N_11  and  C_12
REMARK    6  A    between atoms: C_12  and  C_13
REMARK                            x       y       z     vdW  Elec       q    Type
REMARK                         _______ _______ _______ _____ _____    ______ ____
ROOT
ATOM      1  C   UNL     1       6.620   5.354  16.247  0.00  0.00    +0.000 C 
ATOM      2  C   UNL     1       7.354   6.653  16.639  0.00  0.00    +0.000 C 
ATOM      3  O   UNL     1       7.603   6.644  18.053  0.00  0.00    +0.000 OA
ATOM      4  C   UNL     1       7.762   5.269  18.413  0.00  0.00    +0.000 C 
ATOM      5  C   UNL     1       6.733   4.558  17.553  0.00  0.00    +0.000 C 
ATOM      6  C   UNL     1       5.384   4.783  18.272  0.00  0.00    +0.000 C 
ATOM      7  N   UNL     1       4.364   5.051  17.264  0.00  0.00    +0.000 NA
ATOM      8  C   UNL     1       5.088   5.320  16.016  0.00  0.00    +0.000 C 
ENDROOT
BRANCH   1   9
ATOM      9  C   UNL     1       7.193   4.948  14.864  0.00  0.00    +0.000 C 
BRANCH   9  10
ATOM     10  O   UNL     1       6.260   4.593  13.861  0.00  0.00    +0.000 OA
BRANCH  10  12
ATOM     11  C   UNL     1       5.827   3.088  12.076  0.00  0.00    +0.000 C 
ATOM     12  C   UNL     1       6.865   3.959  12.748  0.00  0.00    +0.000 C 
ENDBRANCH  10  12
ENDBRANCH   9  10
ENDBRANCH   1   9
BRANCH   7  13
ATOM     13  C   UNL     1       3.396   3.948  17.129  0.00  0.00    +0.000 C 
BRANCH  13  14
ATOM     14  C   UNL     1       2.674   3.591  18.409  0.00  0.00    +0.000 A 
ATOM     15  C   UNL     1       2.766   2.304  18.955  0.00  0.00    +0.000 A 
ATOM     16  C   UNL     1       2.093   1.978  20.148  0.00  0.00    +0.000 A 
ATOM     17  C   UNL     1       1.355   2.961  20.798  0.00  0.00    +0.000 A 
ATOM     18  F   UNL     1       0.724   2.651  21.939  0.00  0.00    +0.000 F 
ATOM     19  C   UNL     1       1.266   4.239  20.278  0.00  0.00    +0.000 A 
ATOM     20  F   UNL     1       0.550   5.184  20.909  0.00  0.00    +0.000 F 
ATOM     21  C   UNL     1       1.918   4.568  19.091  0.00  0.00    +0.000 A 
ENDBRANCH  13  14
ENDBRANCH   7  13
TORSDOF 5
ENDMDL
MODEL 8
REMARK VINA RESULT:      -7.2      1.388      1.503
REMARK  Name = 
REMARK  6 active torsions:
REMARK  status: ('A' for Active; 'I' for Inactive)
REMARK    1  A    between atoms: C_1  and  C_2
REMARK    2  A    between atoms: C_2  and  O_3
REMARK    3  A    between atoms: O_3  and  C_4
REMARK    4  A    between atoms: C_4  and  C_5
REMARK    5  A    between atoms: N_11  and  C_12
REMARK    6  A    between atoms: C_12  and  C_13
REMARK                            x       y       z     vdW  Elec       q    Type
REMARK                         _______ _______ _______ _____ _____    ______ ____
ROOT
ATOM      1  C   UNL     1       5.872   5.098  16.962  0.00  0.00    +0.000 C 
ATOM      2  C   UNL     1       7.217   5.853  16.922  0.00  0.00    +0.000 C 
ATOM      3  O   UNL     1       7.585   6.231  18.257  0.00  0.00    +0.000 OA
ATOM      4  C   UNL     1       7.042   5.221  19.112  0.00  0.00    +0.000 C 
ATOM      5  C   UNL     1       5.702   4.903  18.474  0.00  0.00    +0.000 C 
ATOM      6  C   UNL     1       4.763   6.047  18.918  0.00  0.00    +0.000 C 
ATOM      7  N   UNL     1       3.926   6.422  17.783  0.00  0.00    +0.000 NA
ATOM      8  C   UNL     1       4.535   5.793  16.605  0.00  0.00    +0.000 C 
ENDROOT
BRANCH   1   9
ATOM      9  C   UNL     1       5.985   3.981  15.893  0.00  0.00    +0.000 C 
BRANCH   9  10
ATOM     10  O   UNL     1       5.503   4.283  14.596  0.00  0.00    +0.000 OA
BRANCH  10  12
ATOM     11  C   UNL     1       5.721   3.352  12.422  0.00  0.00    +0.000 C 
ATOM     12  C   UNL     1       6.449   3.999  13.580  0.00  0.00    +0.000 C 
ENDBRANCH  10  12
ENDBRANCH   9  10
ENDBRANCH   1   9
BRANCH   7  13
ATOM     13  C   UNL     1       2.516   6.035  17.965  0.00  0.00    +0.000 C 
BRANCH  13  14
ATOM     14  C   UNL     1       2.291   4.973  19.019  0.00  0.00    +0.000 A 
ATOM     15  C   UNL     1       2.228   5.307  20.378  0.00  0.00    +0.000 A 
ATOM     16  C   UNL     1       2.017   4.314  21.354  0.00  0.00    +0.000 A 
ATOM     17  C   UNL     1       1.841   2.995  20.949  0.00  0.00    +0.000 A 
ATOM     18  F   UNL     1       1.629   2.054  21.880  0.00  0.00    +0.000 F 
ATOM     19  C   UNL     1       1.889   2.653  19.611  0.00  0.00    +0.000 A 
ATOM     20  F   UNL     1       1.721   1.377  19.226  0.00  0.00    +0.000 F 
ATOM     21  C   UNL     1       2.110   3.627  18.638  0.00  0.00    +0.000 A 
ENDBRANCH  13  14
ENDBRANCH   7  13
TORSDOF 5
ENDMDL
MODEL 9
REMARK VINA RESULT:      -7.2      1.526      1.887
REMARK  Name = 
REMARK  6 active torsions:
REMARK  status: ('A' for Active; 'I' for Inactive)
REMARK    1  A    between atoms: C_1  and  C_2
REMARK    2  A    between atoms: C_2  and  O_3
REMARK    3  A    between atoms: O_3  and  C_4
REMARK    4  A    between atoms: C_4  and  C_5
REMARK    5  A    between atoms: N_11  and  C_12
REMARK    6  A    between atoms: C_12  and  C_13
REMARK                            x       y       z     vdW  Elec       q    Type
REMARK                         _______ _______ _______ _____ _____    ______ ____
ROOT
ATOM      1  C   UNL     1       5.587   6.094  16.755  0.00  0.00    +0.000 C 
ATOM      2  C   UNL     1       7.041   6.530  17.032  0.00  0.00    +0.000 C 
ATOM      3  O   UNL     1       7.494   5.914  18.247  0.00  0.00    +0.000 OA
ATOM      4  C   UNL     1       6.802   4.665  18.333  0.00  0.00    +0.000 C 
ATOM      5  C   UNL     1       5.415   4.995  17.811  0.00  0.00    +0.000 C 
ATOM      6  C   UNL     1       4.695   5.687  18.990  0.00  0.00    +0.000 C 
ATOM      7  N   UNL     1       3.914   6.800  18.462  0.00  0.00    +0.000 NA
ATOM      8  C   UNL     1       4.382   7.009  17.087  0.00  0.00    +0.000 C 
ENDROOT
BRANCH   1   9
ATOM      9  C   UNL     1       5.486   5.922  15.217  0.00  0.00    +0.000 C 
BRANCH   9  10
ATOM     10  O   UNL     1       6.611   5.372  14.557  0.00  0.00    +0.000 OA
BRANCH  10  12
ATOM     11  C   UNL     1       5.780   3.725  13.062  0.00  0.00    +0.000 C 
ATOM     12  C   UNL     1       6.505   3.972  14.366  0.00  0.00    +0.000 C 
ENDBRANCH  10  12
ENDBRANCH   9  10
ENDBRANCH   1   9
BRANCH   7  13
ATOM     13  C   UNL     1       2.462   6.559  18.533  0.00  0.00    +0.000 C 
BRANCH  13  14
ATOM     14  C   UNL     1       2.081   5.118  18.797  0.00  0.00    +0.000 A 
ATOM     15  C   UNL     1       2.048   4.178  17.758  0.00  0.00    +0.000 A 
ATOM     16  C   UNL     1       1.695   2.839  18.011  0.00  0.00    +0.000 A 
ATOM     17  C   UNL     1       1.404   2.450  19.314  0.00  0.00    +0.000 A 
ATOM     18  F   UNL     1       1.078   1.173  19.552  0.00  0.00    +0.000 F 
ATOM     19  C   UNL     1       1.444   3.365  20.350  0.00  0.00    +0.000 A 
ATOM     20  F   UNL     1       1.160   2.984  21.607  0.00  0.00    +0.000 F 
ATOM     21  C   UNL     1       1.781   4.695  20.109  0.00  0.00    +0.000 A 
ENDBRANCH  13  14
ENDBRANCH   7  13
TORSDOF 5
ENDMDL
