MODEL 1
REMARK VINA RESULT:      -8.8      0.000      0.000
REMARK  Name = 
REMARK  11 active torsions:
REMARK  status: ('A' for Active; 'I' for Inactive)
REMARK    1  A    between atoms: C_1  and  C_2
REMARK    2  A    between atoms: C_2  and  C_3
REMARK    3  A    between atoms: C_2  and  N_30
REMARK    4  A    between atoms: C_3  and  C_4
REMARK    5  A    between atoms: C_3  and  N_25
REMARK    6  A    between atoms: C_9  and  O_10
REMARK    7  A    between atoms: O_10  and  C_11
REMARK    8  A    between atoms: C_11  and  C_12
REMARK    9  A    between atoms: C_16  and  C_17
REMARK   10  A    between atoms: N_30  and  C_31
REMARK   11  A    between atoms: N_30  and  C_32
REMARK                            x       y       z     vdW  Elec       q    Type
REMARK                         _______ _______ _______ _____ _____    ______ ____
ROOT
ATOM      1  C   UNL     1       2.983   6.591  18.893  0.00  0.00    +0.000 A 
ATOM      2  C   UNL     1       2.984   7.488  17.812  0.00  0.00    +0.000 A 
ATOM      3  C   UNL     1       2.201   8.635  17.840  0.00  0.00    +0.000 A 
ATOM      4  C   UNL     1       1.446   8.941  18.973  0.00  0.00    +0.000 A 
ATOM      5  C   UNL     1       0.629  10.062  18.989  0.00  0.00    +0.000 A 
ATOM      6  C   UNL     1      -0.145  10.379  20.106  0.00  0.00    +0.000 A 
ATOM      7  C   UNL     1      -0.037   9.602  21.259  0.00  0.00    +0.000 A 
ATOM      8  C   UNL     1       0.775   8.465  21.256  0.00  0.00    +0.000 A 
ATOM      9  C   UNL     1       1.501   8.102  20.105  0.00  0.00    +0.000 A 
ATOM     10  C   UNL     1       2.254   6.928  20.047  0.00  0.00    +0.000 A 
ENDROOT
BRANCH   1  11
ATOM     11  C   UNL     1       3.698   5.246  18.814  0.00  0.00    +0.000 C 
BRANCH  11  12
ATOM     12  N   UNL     1       2.660   4.201  18.967  0.00  0.00    +0.000 N 
ATOM     13  C   UNL     1       1.609   3.963  18.116  0.00  0.00    +0.000 A 
ATOM     14  C   UNL     1       1.004   2.825  18.601  0.00  0.00    +0.000 A 
ATOM     15  N   UNL     1       1.611   2.402  19.750  0.00  0.00    +0.000 NA
ATOM     16  C   UNL     1       2.582   3.259  19.959  0.00  0.00    +0.000 A 
ENDBRANCH  11  12
BRANCH  11  18
ATOM     17  C   UNL     1       4.640   3.468  17.284  0.00  0.00    +0.000 C 
ATOM     18  C   UNL     1       4.647   4.997  17.560  0.00  0.00    +0.000 C 
BRANCH  18  19
ATOM     19  N   UNL     1       6.083   5.455  17.661  0.00  0.00    +0.000 NA
ATOM     20  C   UNL     1       6.564   5.460  19.056  0.00  0.00    +0.000 C 
ATOM     21  C   UNL     1       7.029   4.629  16.899  0.00  0.00    +0.000 C 
ENDBRANCH  18  19
ENDBRANCH  11  18
ENDBRANCH   1  11
BRANCH   6  22
ATOM     22  O   UNL     1      -1.017  11.429  20.136  0.00  0.00    +0.000 OA
BRANCH  22  23
ATOM     23  C   UNL     1      -1.114  12.133  18.887  0.00  0.00    +0.000 C 
BRANCH  23  24
ATOM     24  C   UNL     1      -2.401  11.801  18.182  0.00  0.00    +0.000 A 
ATOM     25  C   UNL     1      -3.628  11.953  18.831  0.00  0.00    +0.000 A 
ATOM     26  C   UNL     1      -4.812  11.583  18.197  0.00  0.00    +0.000 A 
ATOM     27  C   UNL     1      -4.779  11.042  16.910  0.00  0.00    +0.000 A 
ATOM     28  C   UNL     1      -3.557  10.862  16.250  0.00  0.00    +0.000 A 
ATOM     29  C   UNL     1      -2.372  11.239  16.896  0.00  0.00    +0.000 A 
BRANCH  28  30
ATOM     30  C   UNL     1      -3.446  10.279  14.882  0.00  0.00    +0.000 C 
ATOM     31  N   UNL     1      -4.594  10.013  14.191  0.00  0.00    +0.000 N 
ATOM     32  O   UNL     1      -2.357  10.034  14.375  0.00  0.00    +0.000 OA
ATOM     33  H   UNL     1      -5.529  10.145  14.541  0.00  0.00    +0.000 HD
ATOM     34  H   UNL     1      -4.487   9.605  13.271  0.00  0.00    +0.000 HD
ENDBRANCH  28  30
ENDBRANCH  23  24
ENDBRANCH  22  23
ENDBRANCH   6  22
TORSDOF 8
ENDMDL
MODEL 2
REMARK VINA RESULT:      -8.6      1.881      3.587
REMARK  Name = 
REMARK  11 active torsions:
REMARK  status: ('A' for Active; 'I' for Inactive)
REMARK    1  A    between atoms: C_1  and  C_2
REMARK    2  A    between atoms: C_2  and  C_3
REMARK    3  A    between atoms: C_2  and  N_30
REMARK    4  A    between atoms: C_3  and  C_4
REMARK    5  A    between atoms: C_3  and  N_25
REMARK    6  A    between atoms: C_9  and  O_10
REMARK    7  A    between atoms: O_10  and  C_11
REMARK    8  A    between atoms: C_11  and  C_12
REMARK    9  A    between atoms: C_16  and  C_17
REMARK   10  A    between atoms: N_30  and  C_31
REMARK   11  A    between atoms: N_30  and  C_32
REMARK                            x       y       z     vdW  Elec       q    Type
REMARK                         _______ _______ _______ _____ _____    ______ ____
ROOT
ATOM      1  C   UNL     1       3.180   6.097  18.746  0.00  0.00    +0.000 A 
ATOM      2  C   UNL     1       3.266   7.010  17.682  0.00  0.00    +0.000 A 
ATOM      3  C   UNL     1       2.599   8.227  17.736  0.00  0.00    +0.000 A 
ATOM      4  C   UNL     1       1.883   8.585  18.879  0.00  0.00    +0.000 A 
ATOM      5  C   UNL     1       1.181   9.781  18.921  0.00  0.00    +0.000 A 
ATOM      6  C   UNL     1       0.446  10.151  20.048  0.00  0.00    +0.000 A 
ATOM      7  C   UNL     1       0.482   9.345  21.186  0.00  0.00    +0.000 A 
ATOM      8  C   UNL     1       1.178   8.134  21.157  0.00  0.00    +0.000 A 
ATOM      9  C   UNL     1       1.860   7.723  19.994  0.00  0.00    +0.000 A 
ATOM     10  C   UNL     1       2.493   6.482  19.910  0.00  0.00    +0.000 A 
ENDROOT
BRANCH   1  11
ATOM     11  C   UNL     1       3.759   4.689  18.637  0.00  0.00    +0.000 C 
BRANCH  11  12
ATOM     12  N   UNL     1       5.207   4.843  18.375  0.00  0.00    +0.000 N 
ATOM     13  C   UNL     1       6.143   5.367  19.232  0.00  0.00    +0.000 A 
ATOM     14  C   UNL     1       7.353   5.181  18.603  0.00  0.00    +0.000 A 
ATOM     15  N   UNL     1       7.179   4.622  17.367  0.00  0.00    +0.000 NA
ATOM     16  C   UNL     1       5.884   4.454  17.247  0.00  0.00    +0.000 A 
ENDBRANCH  11  12
BRANCH  11  18
ATOM     17  C   UNL     1       4.299   2.404  19.573  0.00  0.00    +0.000 C 
ATOM     18  C   UNL     1       3.449   3.680  19.829  0.00  0.00    +0.000 C 
BRANCH  18  19
ATOM     19  N   UNL     1       2.014   3.261  20.044  0.00  0.00    +0.000 NA
ATOM     20  C   UNL     1       1.641   2.114  19.196  0.00  0.00    +0.000 C 
ATOM     21  C   UNL     1       1.705   2.872  21.426  0.00  0.00    +0.000 C 
ENDBRANCH  18  19
ENDBRANCH  11  18
ENDBRANCH   1  11
BRANCH   6  22
ATOM     22  O   UNL     1      -0.318  11.280  20.103  0.00  0.00    +0.000 OA
BRANCH  22  23
ATOM     23  C   UNL     1      -0.592  11.854  18.814  0.00  0.00    +0.000 C 
BRANCH  23  24
ATOM     24  C   UNL     1      -1.953  11.443  18.322  0.00  0.00    +0.000 A 
ATOM     25  C   UNL     1      -2.087  10.633  17.192  0.00  0.00    +0.000 A 
ATOM     26  C   UNL     1      -3.350  10.309  16.703  0.00  0.00    +0.000 A 
ATOM     27  C   UNL     1      -4.495  10.804  17.331  0.00  0.00    +0.000 A 
ATOM     28  C   UNL     1      -4.382  11.634  18.454  0.00  0.00    +0.000 A 
ATOM     29  C   UNL     1      -3.106  11.953  18.940  0.00  0.00    +0.000 A 
BRANCH  28  30
ATOM     30  C   UNL     1      -5.559  12.209  19.166  0.00  0.00    +0.000 C 
ATOM     31  N   UNL     1      -5.352  12.854  20.353  0.00  0.00    +0.000 N 
ATOM     32  O   UNL     1      -6.694  12.110  18.713  0.00  0.00    +0.000 OA
ATOM     33  H   UNL     1      -4.464  12.948  20.817  0.00  0.00    +0.000 HD
ATOM     34  H   UNL     1      -6.172  13.220  20.820  0.00  0.00    +0.000 HD
ENDBRANCH  28  30
ENDBRANCH  23  24
ENDBRANCH  22  23
ENDBRANCH   6  22
TORSDOF 8
ENDMDL
MODEL 3
REMARK VINA RESULT:      -8.6      1.020      2.976
REMARK  Name = 
REMARK  11 active torsions:
REMARK  status: ('A' for Active; 'I' for Inactive)
REMARK    1  A    between atoms: C_1  and  C_2
REMARK    2  A    between atoms: C_2  and  C_3
REMARK    3  A    between atoms: C_2  and  N_30
REMARK    4  A    between atoms: C_3  and  C_4
REMARK    5  A    between atoms: C_3  and  N_25
REMARK    6  A    between atoms: C_9  and  O_10
REMARK    7  A    between atoms: O_10  and  C_11
REMARK    8  A    between atoms: C_11  and  C_12
REMARK    9  A    between atoms: C_16  and  C_17
REMARK   10  A    between atoms: N_30  and  C_31
REMARK   11  A    between atoms: N_30  and  C_32
REMARK                            x       y       z     vdW  Elec       q    Type
REMARK                         _______ _______ _______ _____ _____    ______ ____
ROOT
ATOM      1  C   UNL     1       2.741   6.334  18.844  0.00  0.00    +0.000 A 
ATOM      2  C   UNL     1       2.798   7.307  17.832  0.00  0.00    +0.000 A 
ATOM      3  C   UNL     1       2.237   8.563  18.022  0.00  0.00    +0.000 A 
ATOM      4  C   UNL     1       1.662   8.896  19.248  0.00  0.00    +0.000 A 
ATOM      5  C   UNL     1       1.062  10.133  19.429  0.00  0.00    +0.000 A 
ATOM      6  C   UNL     1       0.468  10.481  20.643  0.00  0.00    +0.000 A 
ATOM      7  C   UNL     1       0.547   9.601  21.723  0.00  0.00    +0.000 A 
ATOM      8  C   UNL     1       1.139   8.348  21.555  0.00  0.00    +0.000 A 
ATOM      9  C   UNL     1       1.675   7.966  20.309  0.00  0.00    +0.000 A 
ATOM     10  C   UNL     1       2.198   6.690  20.090  0.00  0.00    +0.000 A 
ENDROOT
BRANCH   1  11
ATOM     11  C   UNL     1       3.194   4.898  18.597  0.00  0.00    +0.000 C 
BRANCH  11  12
ATOM     12  N   UNL     1       4.621   4.963  18.205  0.00  0.00    +0.000 N 
ATOM     13  C   UNL     1       5.670   5.349  19.001  0.00  0.00    +0.000 A 
ATOM     14  C   UNL     1       6.799   5.122  18.246  0.00  0.00    +0.000 A 
ATOM     15  N   UNL     1       6.467   4.673  16.998  0.00  0.00    +0.000 NA
ATOM     16  C   UNL     1       5.156   4.612  16.993  0.00  0.00    +0.000 A 
ENDBRANCH  11  12
BRANCH  11  18
ATOM     17  C   UNL     1       3.606   2.512  19.322  0.00  0.00    +0.000 C 
ATOM     18  C   UNL     1       2.917   3.837  19.751  0.00  0.00    +0.000 C 
BRANCH  18  19
ATOM     19  N   UNL     1       1.479   3.535  20.100  0.00  0.00    +0.000 NA
ATOM     20  C   UNL     1       0.824   2.707  19.069  0.00  0.00    +0.000 C 
ATOM     21  C   UNL     1       1.310   2.822  21.373  0.00  0.00    +0.000 C 
ENDBRANCH  18  19
ENDBRANCH  11  18
ENDBRANCH   1  11
BRANCH   6  22
ATOM     22  O   UNL     1      -0.197  11.657  20.839  0.00  0.00    +0.000 OA
BRANCH  22  23
ATOM     23  C   UNL     1      -0.385  12.420  19.635  0.00  0.00    +0.000 C 
BRANCH  23  24
ATOM     24  C   UNL     1      -1.743  12.160  19.042  0.00  0.00    +0.000 A 
ATOM     25  C   UNL     1      -2.902  12.400  19.784  0.00  0.00    +0.000 A 
ATOM     26  C   UNL     1      -4.153  12.097  19.254  0.00  0.00    +0.000 A 
ATOM     27  C   UNL     1      -4.259  11.535  17.979  0.00  0.00    +0.000 A 
ATOM     28  C   UNL     1      -3.108  11.268  17.227  0.00  0.00    +0.000 A 
ATOM     29  C   UNL     1      -1.852  11.579  17.769  0.00  0.00    +0.000 A 
BRANCH  28  30
ATOM     30  C   UNL     1      -3.144  10.659  15.867  0.00  0.00    +0.000 C 
ATOM     31  N   UNL     1      -2.904   9.319  15.745  0.00  0.00    +0.000 N 
ATOM     32  O   UNL     1      -3.381  11.331  14.869  0.00  0.00    +0.000 OA
ATOM     33  H   UNL     1      -2.664   8.700  16.501  0.00  0.00    +0.000 HD
ATOM     34  H   UNL     1      -2.921   8.938  14.808  0.00  0.00    +0.000 HD
ENDBRANCH  28  30
ENDBRANCH  23  24
ENDBRANCH  22  23
ENDBRANCH   6  22
TORSDOF 8
ENDMDL
MODEL 4
REMARK VINA RESULT:      -8.5      1.610      2.112
REMARK  Name = 
REMARK  11 active torsions:
REMARK  status: ('A' for Active; 'I' for Inactive)
REMARK    1  A    between atoms: C_1  and  C_2
REMARK    2  A    between atoms: C_2  and  C_3
REMARK    3  A    between atoms: C_2  and  N_30
REMARK    4  A    between atoms: C_3  and  C_4
REMARK    5  A    between atoms: C_3  and  N_25
REMARK    6  A    between atoms: C_9  and  O_10
REMARK    7  A    between atoms: O_10  and  C_11
REMARK    8  A    between atoms: C_11  and  C_12
REMARK    9  A    between atoms: C_16  and  C_17
REMARK   10  A    between atoms: N_30  and  C_31
REMARK   11  A    between atoms: N_30  and  C_32
REMARK                            x       y       z     vdW  Elec       q    Type
REMARK                         _______ _______ _______ _____ _____    ______ ____
ROOT
ATOM      1  C   UNL     1       3.097   6.669  18.786  0.00  0.00    +0.000 A 
ATOM      2  C   UNL     1       3.050   7.614  17.749  0.00  0.00    +0.000 A 
ATOM      3  C   UNL     1       2.210   8.717  17.830  0.00  0.00    +0.000 A 
ATOM      4  C   UNL     1       1.443   8.931  18.976  0.00  0.00    +0.000 A 
ATOM      5  C   UNL     1       0.570  10.007  19.044  0.00  0.00    +0.000 A 
ATOM      6  C   UNL     1      -0.217  10.231  20.175  0.00  0.00    +0.000 A 
ATOM      7  C   UNL     1      -0.066   9.408  21.290  0.00  0.00    +0.000 A 
ATOM      8  C   UNL     1       0.802   8.315  21.234  0.00  0.00    +0.000 A 
ATOM      9  C   UNL     1       1.543   8.044  20.067  0.00  0.00    +0.000 A 
ATOM     10  C   UNL     1       2.355   6.914  19.954  0.00  0.00    +0.000 A 
ENDROOT
BRANCH   1  11
ATOM     11  C   UNL     1       3.880   5.367  18.645  0.00  0.00    +0.000 C 
BRANCH  11  12
ATOM     12  N   UNL     1       2.884   4.272  18.606  0.00  0.00    +0.000 N 
ATOM     13  C   UNL     1       2.851   3.168  19.420  0.00  0.00    +0.000 A 
ATOM     14  C   UNL     1       1.683   2.515  19.096  0.00  0.00    +0.000 A 
ATOM     15  N   UNL     1       1.039   3.149  18.070  0.00  0.00    +0.000 NA
ATOM     16  C   UNL     1       1.793   4.183  17.780  0.00  0.00    +0.000 A 
ENDBRANCH  11  12
BRANCH  11  18
ATOM     17  C   UNL     1       4.636   3.975  16.675  0.00  0.00    +0.000 C 
ATOM     18  C   UNL     1       4.942   5.279  17.461  0.00  0.00    +0.000 C 
BRANCH  18  19
ATOM     19  N   UNL     1       6.407   5.282  17.828  0.00  0.00    +0.000 NA
ATOM     20  C   UNL     1       7.149   6.348  17.129  0.00  0.00    +0.000 C 
ATOM     21  C   UNL     1       6.663   5.471  19.263  0.00  0.00    +0.000 C 
ENDBRANCH  18  19
ENDBRANCH  11  18
ENDBRANCH   1  11
BRANCH   6  22
ATOM     22  O   UNL     1      -1.141  11.232  20.254  0.00  0.00    +0.000 OA
BRANCH  22  23
ATOM     23  C   UNL     1      -1.197  12.060  19.080  0.00  0.00    +0.000 C 
BRANCH  23  24
ATOM     24  C   UNL     1      -2.332  11.645  18.184  0.00  0.00    +0.000 A 
ATOM     25  C   UNL     1      -2.090  11.241  16.869  0.00  0.00    +0.000 A 
ATOM     26  C   UNL     1      -3.149  10.921  16.024  0.00  0.00    +0.000 A 
ATOM     27  C   UNL     1      -4.466  11.015  16.481  0.00  0.00    +0.000 A 
ATOM     28  C   UNL     1      -4.731  11.437  17.790  0.00  0.00    +0.000 A 
ATOM     29  C   UNL     1      -3.657  11.755  18.634  0.00  0.00    +0.000 A 
BRANCH  28  30
ATOM     30  C   UNL     1      -6.109  11.572  18.341  0.00  0.00    +0.000 C 
ATOM     31  N   UNL     1      -6.336  11.192  19.634  0.00  0.00    +0.000 N 
ATOM     32  O   UNL     1      -7.032  12.010  17.662  0.00  0.00    +0.000 OA
ATOM     33  H   UNL     1      -5.651  10.787  20.250  0.00  0.00    +0.000 HD
ATOM     34  H   UNL     1      -7.284  11.282  19.975  0.00  0.00    +0.000 HD
ENDBRANCH  28  30
ENDBRANCH  23  24
ENDBRANCH  22  23
ENDBRANCH   6  22
TORSDOF 8
ENDMDL
MODEL 5
REMARK VINA RESULT:      -8.5      3.104      5.028
REMARK  Name = 
REMARK  11 active torsions:
REMARK  status: ('A' for Active; 'I' for Inactive)
REMARK    1  A    between atoms: C_1  and  C_2
REMARK    2  A    between atoms: C_2  and  C_3
REMARK    3  A    between atoms: C_2  and  N_30
REMARK    4  A    between atoms: C_3  and  C_4
REMARK    5  A    between atoms: C_3  and  N_25
REMARK    6  A    between atoms: C_9  and  O_10
REMARK    7  A    between atoms: O_10  and  C_11
REMARK    8  A    between atoms: C_11  and  C_12
REMARK    9  A    between atoms: C_16  and  C_17
REMARK   10  A    between atoms: N_30  and  C_31
REMARK   11  A    between atoms: N_30  and  C_32
REMARK                            x       y       z     vdW  Elec       q    Type
REMARK                         _______ _______ _______ _____ _____    ______ ____
ROOT
ATOM      1  C   UNL     1       2.668   5.992  18.861  0.00  0.00    +0.000 A 
ATOM      2  C   UNL     1       2.150   5.974  20.167  0.00  0.00    +0.000 A 
ATOM      3  C   UNL     1       1.610   7.122  20.732  0.00  0.00    +0.000 A 
ATOM      4  C   UNL     1       1.519   8.296  19.984  0.00  0.00    +0.000 A 
ATOM      5  C   UNL     1       1.021   9.457  20.558  0.00  0.00    +0.000 A 
ATOM      6  C   UNL     1       0.935  10.646  19.832  0.00  0.00    +0.000 A 
ATOM      7  C   UNL     1       1.281  10.652  18.481  0.00  0.00    +0.000 A 
ATOM      8  C   UNL     1       1.793   9.494  17.891  0.00  0.00    +0.000 A 
ATOM      9  C   UNL     1       1.949   8.312  18.641  0.00  0.00    +0.000 A 
ATOM     10  C   UNL     1       2.534   7.166  18.100  0.00  0.00    +0.000 A 
ENDROOT
BRANCH   1  11
ATOM     11  C   UNL     1       3.418   4.796  18.284  0.00  0.00    +0.000 C 
BRANCH  11  12
ATOM     12  N   UNL     1       4.850   5.168  18.247  0.00  0.00    +0.000 N 
ATOM     13  C   UNL     1       5.579   5.505  17.134  0.00  0.00    +0.000 A 
ATOM     14  C   UNL     1       6.810   5.894  17.612  0.00  0.00    +0.000 A 
ATOM     15  N   UNL     1       6.875   5.743  18.969  0.00  0.00    +0.000 NA
ATOM     16  C   UNL     1       5.697   5.283  19.319  0.00  0.00    +0.000 A 
ENDBRANCH  11  12
BRANCH  11  18
ATOM     17  C   UNL     1       3.436   2.300  17.879  0.00  0.00    +0.000 C 
ATOM     18  C   UNL     1       3.164   3.378  18.965  0.00  0.00    +0.000 C 
BRANCH  18  19
ATOM     19  N   UNL     1       1.802   3.118  19.564  0.00  0.00    +0.000 NA
ATOM     20  C   UNL     1       0.956   2.299  18.676  0.00  0.00    +0.000 C 
ATOM     21  C   UNL     1       1.841   2.422  20.857  0.00  0.00    +0.000 C 
ENDBRANCH  18  19
ENDBRANCH  11  18
ENDBRANCH   1  11
BRANCH   6  22
ATOM     22  O   UNL     1       0.521  11.826  20.379  0.00  0.00    +0.000 OA
BRANCH  22  23
ATOM     23  C   UNL     1      -0.023  11.688  21.702  0.00  0.00    +0.000 C 
BRANCH  23  24
ATOM     24  C   UNL     1      -1.475  12.081  21.728  0.00  0.00    +0.000 A 
ATOM     25  C   UNL     1      -2.146  12.404  20.546  0.00  0.00    +0.000 A 
ATOM     26  C   UNL     1      -3.472  12.829  20.582  0.00  0.00    +0.000 A 
ATOM     27  C   UNL     1      -4.137  12.951  21.804  0.00  0.00    +0.000 A 
ATOM     28  C   UNL     1      -3.476  12.651  23.002  0.00  0.00    +0.000 A 
ATOM     29  C   UNL     1      -2.142  12.222  22.955  0.00  0.00    +0.000 A 
BRANCH  28  30
ATOM     30  C   UNL     1      -4.120  12.769  24.342  0.00  0.00    +0.000 C 
ATOM     31  N   UNL     1      -3.869  13.885  25.090  0.00  0.00    +0.000 N 
ATOM     32  O   UNL     1      -4.857  11.892  24.779  0.00  0.00    +0.000 OA
ATOM     33  H   UNL     1      -3.249  14.634  24.829  0.00  0.00    +0.000 HD
ATOM     34  H   UNL     1      -4.308  13.930  26.000  0.00  0.00    +0.000 HD
ENDBRANCH  28  30
ENDBRANCH  23  24
ENDBRANCH  22  23
ENDBRANCH   6  22
TORSDOF 8
ENDMDL
MODEL 6
REMARK VINA RESULT:      -8.4      3.150      5.081
REMARK  Name = 
REMARK  11 active torsions:
REMARK  status: ('A' for Active; 'I' for Inactive)
REMARK    1  A    between atoms: C_1  and  C_2
REMARK    2  A    between atoms: C_2  and  C_3
REMARK    3  A    between atoms: C_2  and  N_30
REMARK    4  A    between atoms: C_3  and  C_4
REMARK    5  A    between atoms: C_3  and  N_25
REMARK    6  A    between atoms: C_9  and  O_10
REMARK    7  A    between atoms: O_10  and  C_11
REMARK    8  A    between atoms: C_11  and  C_12
REMARK    9  A    between atoms: C_16  and  C_17
REMARK   10  A    between atoms: N_30  and  C_31
REMARK   11  A    between atoms: N_30  and  C_32
REMARK                            x       y       z     vdW  Elec       q    Type
REMARK                         _______ _______ _______ _____ _____    ______ ____
ROOT
ATOM      1  C   UNL     1       3.273   6.026  18.641  0.00  0.00    +0.000 A 
ATOM      2  C   UNL     1       3.412   6.902  17.551  0.00  0.00    +0.000 A 
ATOM      3  C   UNL     1       2.791   8.144  17.554  0.00  0.00    +0.000 A 
ATOM      4  C   UNL     1       2.068   8.564  18.672  0.00  0.00    +0.000 A 
ATOM      5  C   UNL     1       1.410   9.785  18.664  0.00  0.00    +0.000 A 
ATOM      6  C   UNL     1       0.670  10.217  19.765  0.00  0.00    +0.000 A 
ATOM      7  C   UNL     1       0.654   9.446  20.927  0.00  0.00    +0.000 A 
ATOM      8  C   UNL     1       1.304   8.210  20.948  0.00  0.00    +0.000 A 
ATOM      9  C   UNL     1       1.991   7.739  19.813  0.00  0.00    +0.000 A 
ATOM     10  C   UNL     1       2.579   6.473  19.779  0.00  0.00    +0.000 A 
ENDROOT
BRANCH   1  11
ATOM     11  C   UNL     1       3.800   4.596  18.587  0.00  0.00    +0.000 C 
BRANCH  11  12
ATOM     12  N   UNL     1       5.271   4.688  18.449  0.00  0.00    +0.000 N 
ATOM     13  C   UNL     1       6.017   4.290  17.368  0.00  0.00    +0.000 A 
ATOM     14  C   UNL     1       7.304   4.692  17.650  0.00  0.00    +0.000 A 
ATOM     15  N   UNL     1       7.375   5.263  18.890  0.00  0.00    +0.000 NA
ATOM     16  C   UNL     1       6.149   5.224  19.356  0.00  0.00    +0.000 A 
ENDBRANCH  11  12
BRANCH  11  18
ATOM     17  C   UNL     1       4.435   2.501  19.852  0.00  0.00    +0.000 C 
ATOM     18  C   UNL     1       3.348   3.607  19.751  0.00  0.00    +0.000 C 
BRANCH  18  19
ATOM     19  N   UNL     1       1.999   2.939  19.623  0.00  0.00    +0.000 NA
ATOM     20  C   UNL     1       1.040   3.437  20.627  0.00  0.00    +0.000 C 
ATOM     21  C   UNL     1       1.362   3.125  18.313  0.00  0.00    +0.000 C 
ENDBRANCH  18  19
ENDBRANCH  11  18
ENDBRANCH   1  11
BRANCH   6  22
ATOM     22  O   UNL     1      -0.052  11.376  19.770  0.00  0.00    +0.000 OA
BRANCH  22  23
ATOM     23  C   UNL     1      -1.327  11.257  20.423  0.00  0.00    +0.000 C 
BRANCH  23  24
ATOM     24  C   UNL     1      -1.470  12.285  21.511  0.00  0.00    +0.000 A 
ATOM     25  C   UNL     1      -0.456  13.216  21.749  0.00  0.00    +0.000 A 
ATOM     26  C   UNL     1      -0.564  14.124  22.799  0.00  0.00    +0.000 A 
ATOM     27  C   UNL     1      -1.684  14.100  23.635  0.00  0.00    +0.000 A 
ATOM     28  C   UNL     1      -2.702  13.162  23.426  0.00  0.00    +0.000 A 
ATOM     29  C   UNL     1      -2.585  12.253  22.365  0.00  0.00    +0.000 A 
BRANCH  28  30
ATOM     30  C   UNL     1      -3.917  13.071  24.285  0.00  0.00    +0.000 C 
ATOM     31  N   UNL     1      -4.471  14.227  24.757  0.00  0.00    +0.000 N 
ATOM     32  O   UNL     1      -4.420  11.990  24.574  0.00  0.00    +0.000 OA
ATOM     33  H   UNL     1      -4.105  15.152  24.604  0.00  0.00    +0.000 HD
ATOM     34  H   UNL     1      -5.286  14.133  25.349  0.00  0.00    +0.000 HD
ENDBRANCH  28  30
ENDBRANCH  23  24
ENDBRANCH  22  23
ENDBRANCH   6  22
TORSDOF 8
ENDMDL
MODEL 7
REMARK VINA RESULT:      -8.4      1.771      2.311
REMARK  Name = 
REMARK  11 active torsions:
REMARK  status: ('A' for Active; 'I' for Inactive)
REMARK    1  A    between atoms: C_1  and  C_2
REMARK    2  A    between atoms: C_2  and  C_3
REMARK    3  A    between atoms: C_2  and  N_30
REMARK    4  A    between atoms: C_3  and  C_4
REMARK    5  A    between atoms: C_3  and  N_25
REMARK    6  A    between atoms: C_9  and  O_10
REMARK    7  A    between atoms: O_10  and  C_11
REMARK    8  A    between atoms: C_11  and  C_12
REMARK    9  A    between atoms: C_16  and  C_17
REMARK   10  A    between atoms: N_30  and  C_31
REMARK   11  A    between atoms: N_30  and  C_32
REMARK                            x       y       z     vdW  Elec       q    Type
REMARK                         _______ _______ _______ _____ _____    ______ ____
ROOT
ATOM      1  C   UNL     1       2.959   6.639  18.850  0.00  0.00    +0.000 A 
ATOM      2  C   UNL     1       2.906   7.527  17.762  0.00  0.00    +0.000 A 
ATOM      3  C   UNL     1       2.119   8.669  17.816  0.00  0.00    +0.000 A 
ATOM      4  C   UNL     1       1.415   8.982  18.979  0.00  0.00    +0.000 A 
ATOM      5  C   UNL     1       0.594  10.099  19.024  0.00  0.00    +0.000 A 
ATOM      6  C   UNL     1      -0.130  10.422  20.172  0.00  0.00    +0.000 A 
ATOM      7  C   UNL     1       0.035   9.656  21.326  0.00  0.00    +0.000 A 
ATOM      8  C   UNL     1       0.852   8.523  21.295  0.00  0.00    +0.000 A 
ATOM      9  C   UNL     1       1.526   8.154  20.115  0.00  0.00    +0.000 A 
ATOM     10  C   UNL     1       2.282   6.983  20.032  0.00  0.00    +0.000 A 
ENDROOT
BRANCH   1  11
ATOM     11  C   UNL     1       3.677   5.297  18.749  0.00  0.00    +0.000 C 
BRANCH  11  12
ATOM     12  N   UNL     1       2.645   4.248  18.915  0.00  0.00    +0.000 N 
ATOM     13  C   UNL     1       1.562   4.031  18.099  0.00  0.00    +0.000 A 
ATOM     14  C   UNL     1       0.975   2.881  18.577  0.00  0.00    +0.000 A 
ATOM     15  N   UNL     1       1.627   2.428  19.691  0.00  0.00    +0.000 NA
ATOM     16  C   UNL     1       2.606   3.280  19.884  0.00  0.00    +0.000 A 
ENDBRANCH  11  12
BRANCH  11  18
ATOM     17  C   UNL     1       4.540   3.541  17.149  0.00  0.00    +0.000 C 
ATOM     18  C   UNL     1       4.604   5.058  17.476  0.00  0.00    +0.000 C 
BRANCH  18  19
ATOM     19  N   UNL     1       6.055   5.464  17.576  0.00  0.00    +0.000 NA
ATOM     20  C   UNL     1       6.545   5.424  18.967  0.00  0.00    +0.000 C 
ATOM     21  C   UNL     1       6.967   4.619  16.792  0.00  0.00    +0.000 C 
ENDBRANCH  18  19
ENDBRANCH  11  18
ENDBRANCH   1  11
BRANCH   6  22
ATOM     22  O   UNL     1      -1.005  11.468  20.233  0.00  0.00    +0.000 OA
BRANCH  22  23
ATOM     23  C   UNL     1      -1.276  12.069  18.956  0.00  0.00    +0.000 C 
BRANCH  23  24
ATOM     24  C   UNL     1      -2.673  11.750  18.498  0.00  0.00    +0.000 A 
ATOM     25  C   UNL     1      -2.899  11.192  17.237  0.00  0.00    +0.000 A 
ATOM     26  C   UNL     1      -4.198  10.960  16.792  0.00  0.00    +0.000 A 
ATOM     27  C   UNL     1      -5.287  11.298  17.599  0.00  0.00    +0.000 A 
ATOM     28  C   UNL     1      -5.082  11.877  18.857  0.00  0.00    +0.000 A 
ATOM     29  C   UNL     1      -3.771  12.105  19.297  0.00  0.00    +0.000 A 
BRANCH  28  30
ATOM     30  C   UNL     1      -6.197  12.274  19.765  0.00  0.00    +0.000 C 
ATOM     31  N   UNL     1      -6.195  11.801  21.046  0.00  0.00    +0.000 N 
ATOM     32  O   UNL     1      -7.105  13.006  19.384  0.00  0.00    +0.000 OA
ATOM     33  H   UNL     1      -5.515  11.167  21.432  0.00  0.00    +0.000 HD
ATOM     34  H   UNL     1      -6.972  12.076  21.634  0.00  0.00    +0.000 HD
ENDBRANCH  28  30
ENDBRANCH  23  24
ENDBRANCH  22  23
ENDBRANCH   6  22
TORSDOF 8
ENDMDL
MODEL 8
REMARK VINA RESULT:      -8.4      3.056      4.940
REMARK  Name = 
REMARK  11 active torsions:
REMARK  status: ('A' for Active; 'I' for Inactive)
REMARK    1  A    between atoms: C_1  and  C_2
REMARK    2  A    between atoms: C_2  and  C_3
REMARK    3  A    between atoms: C_2  and  N_30
REMARK    4  A    between atoms: C_3  and  C_4
REMARK    5  A    between atoms: C_3  and  N_25
REMARK    6  A    between atoms: C_9  and  O_10
REMARK    7  A    between atoms: O_10  and  C_11
REMARK    8  A    between atoms: C_11  and  C_12
REMARK    9  A    between atoms: C_16  and  C_17
REMARK   10  A    between atoms: N_30  and  C_31
REMARK   11  A    between atoms: N_30  and  C_32
REMARK                            x       y       z     vdW  Elec       q    Type
REMARK                         _______ _______ _______ _____ _____    ______ ____
ROOT
ATOM      1  C   UNL     1       3.182   6.050  18.716  0.00  0.00    +0.000 A 
ATOM      2  C   UNL     1       3.315   6.948  17.644  0.00  0.00    +0.000 A 
ATOM      3  C   UNL     1       2.691   8.188  17.674  0.00  0.00    +0.000 A 
ATOM      4  C   UNL     1       1.971   8.583  18.802  0.00  0.00    +0.000 A 
ATOM      5  C   UNL     1       1.310   9.802  18.821  0.00  0.00    +0.000 A 
ATOM      6  C   UNL     1       0.572  10.210  19.933  0.00  0.00    +0.000 A 
ATOM      7  C   UNL     1       0.563   9.416  21.080  0.00  0.00    +0.000 A 
ATOM      8  C   UNL     1       1.217   8.182  21.074  0.00  0.00    +0.000 A 
ATOM      9  C   UNL     1       1.901   7.735  19.927  0.00  0.00    +0.000 A 
ATOM     10  C   UNL     1       2.492   6.471  19.865  0.00  0.00    +0.000 A 
ENDROOT
BRANCH   1  11
ATOM     11  C   UNL     1       3.713   4.622  18.632  0.00  0.00    +0.000 C 
BRANCH  11  12
ATOM     12  N   UNL     1       5.182   4.722  18.474  0.00  0.00    +0.000 N 
ATOM     13  C   UNL     1       5.909   4.392  17.357  0.00  0.00    +0.000 A 
ATOM     14  C   UNL     1       7.200   4.775  17.641  0.00  0.00    +0.000 A 
ATOM     15  N   UNL     1       7.295   5.266  18.914  0.00  0.00    +0.000 NA
ATOM     16  C   UNL     1       6.077   5.198  19.397  0.00  0.00    +0.000 A 
ENDBRANCH  11  12
BRANCH  11  18
ATOM     17  C   UNL     1       4.074   2.297  19.556  0.00  0.00    +0.000 C 
ATOM     18  C   UNL     1       3.281   3.614  19.786  0.00  0.00    +0.000 C 
BRANCH  18  19
ATOM     19  N   UNL     1       1.815   3.272  19.911  0.00  0.00    +0.000 NA
ATOM     20  C   UNL     1       1.416   2.206  18.973  0.00  0.00    +0.000 C 
ATOM     21  C   UNL     1       1.420   2.815  21.250  0.00  0.00    +0.000 C 
ENDBRANCH  18  19
ENDBRANCH  11  18
ENDBRANCH   1  11
BRANCH   6  22
ATOM     22  O   UNL     1      -0.153  11.366  19.964  0.00  0.00    +0.000 OA
BRANCH  22  23
ATOM     23  C   UNL     1      -0.046  12.146  18.762  0.00  0.00    +0.000 C 
BRANCH  23  24
ATOM     24  C   UNL     1       0.422  13.543  19.069  0.00  0.00    +0.000 A 
ATOM     25  C   UNL     1      -0.309  14.366  19.929  0.00  0.00    +0.000 A 
ATOM     26  C   UNL     1       0.093  15.679  20.159  0.00  0.00    +0.000 A 
ATOM     27  C   UNL     1       1.224  16.189  19.518  0.00  0.00    +0.000 A 
ATOM     28  C   UNL     1       1.959  15.387  18.636  0.00  0.00    +0.000 A 
ATOM     29  C   UNL     1       1.548  14.066  18.413  0.00  0.00    +0.000 A 
BRANCH  28  30
ATOM     30  C   UNL     1       3.168  15.869  17.908  0.00  0.00    +0.000 C 
ATOM     31  N   UNL     1       4.031  14.944  17.391  0.00  0.00    +0.000 N 
ATOM     32  O   UNL     1       3.400  17.066  17.771  0.00  0.00    +0.000 OA
ATOM     33  H   UNL     1       3.941  13.946  17.489  0.00  0.00    +0.000 HD
ATOM     34  H   UNL     1       4.849  15.301  16.916  0.00  0.00    +0.000 HD
ENDBRANCH  28  30
ENDBRANCH  23  24
ENDBRANCH  22  23
ENDBRANCH   6  22
TORSDOF 8
ENDMDL
MODEL 9
REMARK VINA RESULT:      -8.4      1.208      2.871
REMARK  Name = 
REMARK  11 active torsions:
REMARK  status: ('A' for Active; 'I' for Inactive)
REMARK    1  A    between atoms: C_1  and  C_2
REMARK    2  A    between atoms: C_2  and  C_3
REMARK    3  A    between atoms: C_2  and  N_30
REMARK    4  A    between atoms: C_3  and  C_4
REMARK    5  A    between atoms: C_3  and  N_25
REMARK    6  A    between atoms: C_9  and  O_10
REMARK    7  A    between atoms: O_10  and  C_11
REMARK    8  A    between atoms: C_11  and  C_12
REMARK    9  A    between atoms: C_16  and  C_17
REMARK   10  A    between atoms: N_30  and  C_31
REMARK   11  A    between atoms: N_30  and  C_32
REMARK                            x       y       z     vdW  Elec       q    Type
REMARK                         _______ _______ _______ _____ _____    ______ ____
ROOT
ATOM      1  C   UNL     1       3.137   6.235  18.296  0.00  0.00    +0.000 A 
ATOM      2  C   UNL     1       3.160   7.371  17.469  0.00  0.00    +0.000 A 
ATOM      3  C   UNL     1       2.517   8.541  17.853  0.00  0.00    +0.000 A 
ATOM      4  C   UNL     1       1.890   8.621  19.097  0.00  0.00    +0.000 A 
ATOM      5  C   UNL     1       1.209   9.772  19.466  0.00  0.00    +0.000 A 
ATOM      6  C   UNL     1       0.563   9.868  20.699  0.00  0.00    +0.000 A 
ATOM      7  C   UNL     1       0.669   8.820  21.613  0.00  0.00    +0.000 A 
ATOM      8  C   UNL     1       1.343   7.650  21.253  0.00  0.00    +0.000 A 
ATOM      9  C   UNL     1       1.933   7.523  19.980  0.00  0.00    +0.000 A 
ATOM     10  C   UNL     1       2.540   6.337  19.564  0.00  0.00    +0.000 A 
ENDROOT
BRANCH   1  11
ATOM     11  C   UNL     1       3.686   4.893  17.822  0.00  0.00    +0.000 C 
BRANCH  11  12
ATOM     12  N   UNL     1       5.146   4.920  18.063  0.00  0.00    +0.000 N 
ATOM     13  C   UNL     1       6.130   4.598  17.161  0.00  0.00    +0.000 A 
ATOM     14  C   UNL     1       7.314   4.898  17.796  0.00  0.00    +0.000 A 
ATOM     15  N   UNL     1       7.086   5.331  19.073  0.00  0.00    +0.000 NA
ATOM     16  C   UNL     1       5.782   5.309  19.214  0.00  0.00    +0.000 A 
ENDBRANCH  11  12
BRANCH  11  18
ATOM     17  C   UNL     1       1.478   3.681  18.040  0.00  0.00    +0.000 C 
ATOM     18  C   UNL     1       2.989   3.578  18.389  0.00  0.00    +0.000 C 
BRANCH  18  19
ATOM     19  N   UNL     1       3.118   3.294  19.867  0.00  0.00    +0.000 NA
ATOM     20  C   UNL     1       1.850   2.819  20.451  0.00  0.00    +0.000 C 
ATOM     21  C   UNL     1       4.130   2.281  20.195  0.00  0.00    +0.000 C 
ENDBRANCH  18  19
ENDBRANCH  11  18
ENDBRANCH   1  11
BRANCH   6  22
ATOM     22  O   UNL     1      -0.179  10.952  21.070  0.00  0.00    +0.000 OA
BRANCH  22  23
ATOM     23  C   UNL     1      -0.287  11.954  20.046  0.00  0.00    +0.000 C 
BRANCH  23  24
ATOM     24  C   UNL     1      -1.682  11.998  19.484  0.00  0.00    +0.000 A 
ATOM     25  C   UNL     1      -2.754  12.426  20.272  0.00  0.00    +0.000 A 
ATOM     26  C   UNL     1      -4.052  12.403  19.768  0.00  0.00    +0.000 A 
ATOM     27  C   UNL     1      -4.295  11.937  18.474  0.00  0.00    +0.000 A 
ATOM     28  C   UNL     1      -3.237  11.484  17.675  0.00  0.00    +0.000 A 
ATOM     29  C   UNL     1      -1.933  11.513  18.191  0.00  0.00    +0.000 A 
BRANCH  28  30
ATOM     30  C   UNL     1      -3.423  10.962  16.291  0.00  0.00    +0.000 C 
ATOM     31  N   UNL     1      -2.340  10.451  15.634  0.00  0.00    +0.000 N 
ATOM     32  O   UNL     1      -4.518  10.987  15.738  0.00  0.00    +0.000 OA
ATOM     33  H   UNL     1      -1.400  10.427  15.994  0.00  0.00    +0.000 HD
ATOM     34  H   UNL     1      -2.495  10.118  14.692  0.00  0.00    +0.000 HD
ENDBRANCH  28  30
ENDBRANCH  23  24
ENDBRANCH  22  23
ENDBRANCH   6  22
TORSDOF 8
ENDMDL
