MODEL 1
REMARK VINA RESULT:      -8.8      0.000      0.000
REMARK  Name = 
REMARK  6 active torsions:
REMARK  status: ('A' for Active; 'I' for Inactive)
REMARK    1  A    between atoms: C_1  and  S_2
REMARK    2  A    between atoms: S_2  and  C_5
REMARK    3  A    between atoms: C_5  and  C_6
REMARK    4  A    between atoms: C_6  and  N_7
REMARK    5  A    between atoms: C_10  and  C_11
REMARK    6  A    between atoms: C_23  and  O_24
REMARK                            x       y       z     vdW  Elec       q    Type
REMARK                         _______ _______ _______ _____ _____    ______ ____
ROOT
ATOM      1  N   UNL     1       3.842   5.546  17.602  0.00  0.00    +0.000 N 
ATOM      2  C   UNL     1       3.361   6.714  18.184  0.00  0.00    +0.000 A 
ATOM      3  O   UNL     1       3.720   7.843  17.841  0.00  0.00    +0.000 OA
ATOM      4  C   UNL     1       2.347   6.600  19.264  0.00  0.00    +0.000 A 
ATOM      5  C   UNL     1       1.968   5.392  19.726  0.00  0.00    +0.000 A 
ATOM      6  C   UNL     1       2.550   4.163  19.146  0.00  0.00    +0.000 A 
ATOM      7  C   UNL     1       2.139   2.886  19.576  0.00  0.00    +0.000 A 
ATOM      8  C   UNL     1       2.670   1.724  19.009  0.00  0.00    +0.000 A 
ATOM      9  C   UNL     1       3.655   1.822  18.038  0.00  0.00    +0.000 A 
ATOM     10  C   UNL     1       4.089   3.080  17.620  0.00  0.00    +0.000 A 
ATOM     11  C   UNL     1       3.507   4.258  18.123  0.00  0.00    +0.000 A 
ENDROOT
BRANCH   4  12
ATOM     12  C   UNL     1       1.754   7.875  19.816  0.00  0.00    +0.000 C 
ATOM     13  N   UNL     1       1.690   7.957  21.113  0.00  0.00    +0.000 NA
ATOM     14  S   UNL     1       0.782   9.151  21.753  0.00  0.00    +0.000 S 
ATOM     15  O   UNL     1      -0.615   8.756  21.711  0.00  0.00    +0.000 OA
ATOM     16  O   UNL     1       1.399   9.544  23.004  0.00  0.00    +0.000 OA
ATOM     17  C   UNL     1       0.941  10.506  20.658  0.00  0.00    +0.000 A 
ATOM     18  C   UNL     1       0.814  11.828  21.105  0.00  0.00    +0.000 A 
ATOM     19  C   UNL     1       0.940  12.865  20.180  0.00  0.00    +0.000 A 
ATOM     20  C   UNL     1       1.180  12.570  18.836  0.00  0.00    +0.000 A 
ATOM     21  C   UNL     1       1.281  11.239  18.408  0.00  0.00    +0.000 A 
ATOM     22  C   UNL     1       1.157  10.188  19.324  0.00  0.00    +0.000 A 
ATOM     23  N   UNL     1       1.344   8.857  18.932  0.00  0.00    +0.000 N 
ATOM     24  H   UNL     1       0.764   8.546  18.151  0.00  0.00    +0.000 HD
ENDBRANCH   4  12
BRANCH   5  25
ATOM     25  O   UNL     1       1.061   5.189  20.746  0.00  0.00    +0.000 OA
ATOM     26  H   UNL     1       0.854   4.238  20.813  0.00  0.00    +0.000 HD
ENDBRANCH   5  25
BRANCH   1  27
ATOM     27  C   UNL     1       4.640   5.664  16.371  0.00  0.00    +0.000 C 
BRANCH  27  28
ATOM     28  C   UNL     1       6.095   6.025  16.656  0.00  0.00    +0.000 C 
BRANCH  28  30
ATOM     29  C   UNL     1       6.069   3.786  15.026  0.00  0.00    +0.000 C 
ATOM     30  S   UNL     1       7.191   4.926  15.796  0.00  0.00    +0.000 S 
ATOM     31  O   UNL     1       7.944   4.191  16.792  0.00  0.00    +0.000 OA
ATOM     32  O   UNL     1       7.856   5.680  14.751  0.00  0.00    +0.000 OA
ENDBRANCH  28  30
ENDBRANCH  27  28
ENDBRANCH   1  27
TORSDOF 5
ENDMDL
MODEL 2
REMARK VINA RESULT:      -8.8      2.733      7.684
REMARK  Name = 
REMARK  6 active torsions:
REMARK  status: ('A' for Active; 'I' for Inactive)
REMARK    1  A    between atoms: C_1  and  S_2
REMARK    2  A    between atoms: S_2  and  C_5
REMARK    3  A    between atoms: C_5  and  C_6
REMARK    4  A    between atoms: C_6  and  N_7
REMARK    5  A    between atoms: C_10  and  C_11
REMARK    6  A    between atoms: C_23  and  O_24
REMARK                            x       y       z     vdW  Elec       q    Type
REMARK                         _______ _______ _______ _____ _____    ______ ____
ROOT
ATOM      1  N   UNL     1       1.012  10.171  19.056  0.00  0.00    +0.000 N 
ATOM      2  C   UNL     1       1.661   9.083  18.484  0.00  0.00    +0.000 A 
ATOM      3  O   UNL     1       2.029   9.052  17.307  0.00  0.00    +0.000 OA
ATOM      4  C   UNL     1       1.945   7.900  19.337  0.00  0.00    +0.000 A 
ATOM      5  C   UNL     1       1.506   7.851  20.611  0.00  0.00    +0.000 A 
ATOM      6  C   UNL     1       0.750   8.988  21.177  0.00  0.00    +0.000 A 
ATOM      7  C   UNL     1       0.320   8.985  22.518  0.00  0.00    +0.000 A 
ATOM      8  C   UNL     1      -0.372  10.071  23.061  0.00  0.00    +0.000 A 
ATOM      9  C   UNL     1      -0.687  11.156  22.256  0.00  0.00    +0.000 A 
ATOM     10  C   UNL     1      -0.289  11.161  20.920  0.00  0.00    +0.000 A 
ATOM     11  C   UNL     1       0.478  10.112  20.381  0.00  0.00    +0.000 A 
ENDROOT
BRANCH   4  12
ATOM     12  C   UNL     1       2.742   6.767  18.734  0.00  0.00    +0.000 C 
ATOM     13  N   UNL     1       2.276   5.570  18.943  0.00  0.00    +0.000 NA
ATOM     14  S   UNL     1       3.248   4.307  18.598  0.00  0.00    +0.000 S 
ATOM     15  O   UNL     1       4.193   4.127  19.687  0.00  0.00    +0.000 OA
ATOM     16  O   UNL     1       2.402   3.212  18.168  0.00  0.00    +0.000 OA
ATOM     17  C   UNL     1       4.191   4.801  17.209  0.00  0.00    +0.000 A 
ATOM     18  C   UNL     1       4.686   3.866  16.291  0.00  0.00    +0.000 A 
ATOM     19  C   UNL     1       5.441   4.322  15.209  0.00  0.00    +0.000 A 
ATOM     20  C   UNL     1       5.694   5.688  15.067  0.00  0.00    +0.000 A 
ATOM     21  C   UNL     1       5.206   6.602  16.011  0.00  0.00    +0.000 A 
ATOM     22  C   UNL     1       4.448   6.161  17.100  0.00  0.00    +0.000 A 
ATOM     23  N   UNL     1       3.877   7.066  18.003  0.00  0.00    +0.000 N 
ATOM     24  H   UNL     1       4.530   7.724  18.434  0.00  0.00    +0.000 HD
ENDBRANCH   4  12
BRANCH   5  25
ATOM     25  O   UNL     1       1.691   6.784  21.466  0.00  0.00    +0.000 OA
ATOM     26  H   UNL     1       2.628   6.740  21.734  0.00  0.00    +0.000 HD
ENDBRANCH   5  25
BRANCH   1  27
ATOM     27  C   UNL     1       0.965  11.429  18.293  0.00  0.00    +0.000 C 
BRANCH  27  28
ATOM     28  C   UNL     1       2.222  12.272  18.487  0.00  0.00    +0.000 C 
BRANCH  28  30
ATOM     29  C   UNL     1       0.073  14.011  18.663  0.00  0.00    +0.000 C 
ATOM     30  S   UNL     1       1.800  13.899  19.059  0.00  0.00    +0.000 S 
ATOM     31  O   UNL     1       2.502  14.852  18.223  0.00  0.00    +0.000 OA
ATOM     32  O   UNL     1       1.934  13.917  20.502  0.00  0.00    +0.000 OA
ENDBRANCH  28  30
ENDBRANCH  27  28
ENDBRANCH   1  27
TORSDOF 5
ENDMDL
MODEL 3
REMARK VINA RESULT:      -8.6      2.774      7.619
REMARK  Name = 
REMARK  6 active torsions:
REMARK  status: ('A' for Active; 'I' for Inactive)
REMARK    1  A    between atoms: C_1  and  S_2
REMARK    2  A    between atoms: S_2  and  C_5
REMARK    3  A    between atoms: C_5  and  C_6
REMARK    4  A    between atoms: C_6  and  N_7
REMARK    5  A    between atoms: C_10  and  C_11
REMARK    6  A    between atoms: C_23  and  O_24
REMARK                            x       y       z     vdW  Elec       q    Type
REMARK                         _______ _______ _______ _____ _____    ______ ____
ROOT
ATOM      1  N   UNL     1       1.240   9.963  18.884  0.00  0.00    +0.000 N 
ATOM      2  C   UNL     1       1.852   8.864  18.293  0.00  0.00    +0.000 A 
ATOM      3  O   UNL     1       2.204   8.834  17.111  0.00  0.00    +0.000 OA
ATOM      4  C   UNL     1       2.115   7.665  19.131  0.00  0.00    +0.000 A 
ATOM      5  C   UNL     1       1.691   7.616  20.410  0.00  0.00    +0.000 A 
ATOM      6  C   UNL     1       0.974   8.767  20.997  0.00  0.00    +0.000 A 
ATOM      7  C   UNL     1       0.561   8.762  22.344  0.00  0.00    +0.000 A 
ATOM      8  C   UNL     1      -0.095   9.861  22.905  0.00  0.00    +0.000 A 
ATOM      9  C   UNL     1      -0.391  10.962  22.115  0.00  0.00    +0.000 A 
ATOM     10  C   UNL     1      -0.009  10.970  20.773  0.00  0.00    +0.000 A 
ATOM     11  C   UNL     1       0.722   9.906  20.215  0.00  0.00    +0.000 A 
ENDROOT
BRANCH   4  12
ATOM     12  C   UNL     1       2.873   6.517  18.508  0.00  0.00    +0.000 C 
ATOM     13  N   UNL     1       2.192   5.426  18.312  0.00  0.00    +0.000 NA
ATOM     14  S   UNL     1       3.021   4.071  17.945  0.00  0.00    +0.000 S 
ATOM     15  O   UNL     1       3.569   3.507  19.166  0.00  0.00    +0.000 OA
ATOM     16  O   UNL     1       2.183   3.270  17.076  0.00  0.00    +0.000 OA
ATOM     17  C   UNL     1       4.391   4.597  16.992  0.00  0.00    +0.000 A 
ATOM     18  C   UNL     1       4.987   3.758  16.040  0.00  0.00    +0.000 A 
ATOM     19  C   UNL     1       6.083   4.232  15.320  0.00  0.00    +0.000 A 
ATOM     20  C   UNL     1       6.569   5.518  15.563  0.00  0.00    +0.000 A 
ATOM     21  C   UNL     1       5.971   6.332  16.535  0.00  0.00    +0.000 A 
ATOM     22  C   UNL     1       4.870   5.871  17.266  0.00  0.00    +0.000 A 
ATOM     23  N   UNL     1       4.204   6.699  18.177  0.00  0.00    +0.000 N 
ATOM     24  H   UNL     1       4.794   7.119  18.898  0.00  0.00    +0.000 HD
ENDBRANCH   4  12
BRANCH   5  25
ATOM     25  O   UNL     1       1.859   6.536  21.253  0.00  0.00    +0.000 OA
ATOM     26  H   UNL     1       2.399   5.856  20.808  0.00  0.00    +0.000 HD
ENDBRANCH   5  25
BRANCH   1  27
ATOM     27  C   UNL     1       1.217  11.230  18.133  0.00  0.00    +0.000 C 
BRANCH  27  28
ATOM     28  C   UNL     1       2.515  12.016  18.284  0.00  0.00    +0.000 C 
BRANCH  28  30
ATOM     29  C   UNL     1       2.644  13.740  20.448  0.00  0.00    +0.000 C 
ATOM     30  S   UNL     1       2.177  13.699  18.736  0.00  0.00    +0.000 S 
ATOM     31  O   UNL     1       0.741  13.888  18.672  0.00  0.00    +0.000 OA
ATOM     32  O   UNL     1       3.085  14.554  17.999  0.00  0.00    +0.000 OA
ENDBRANCH  28  30
ENDBRANCH  27  28
ENDBRANCH   1  27
TORSDOF 5
ENDMDL
MODEL 4
REMARK VINA RESULT:      -8.6      1.556      2.181
REMARK  Name = 
REMARK  6 active torsions:
REMARK  status: ('A' for Active; 'I' for Inactive)
REMARK    1  A    between atoms: C_1  and  S_2
REMARK    2  A    between atoms: S_2  and  C_5
REMARK    3  A    between atoms: C_5  and  C_6
REMARK    4  A    between atoms: C_6  and  N_7
REMARK    5  A    between atoms: C_10  and  C_11
REMARK    6  A    between atoms: C_23  and  O_24
REMARK                            x       y       z     vdW  Elec       q    Type
REMARK                         _______ _______ _______ _____ _____    ______ ____
ROOT
ATOM      1  N   UNL     1       3.871   5.650  17.609  0.00  0.00    +0.000 N 
ATOM      2  C   UNL     1       3.348   6.847  18.086  0.00  0.00    +0.000 A 
ATOM      3  O   UNL     1       3.678   7.954  17.653  0.00  0.00    +0.000 OA
ATOM      4  C   UNL     1       2.324   6.792  19.161  0.00  0.00    +0.000 A 
ATOM      5  C   UNL     1       1.976   5.615  19.718  0.00  0.00    +0.000 A 
ATOM      6  C   UNL     1       2.601   4.361  19.249  0.00  0.00    +0.000 A 
ATOM      7  C   UNL     1       2.222   3.112  19.780  0.00  0.00    +0.000 A 
ATOM      8  C   UNL     1       2.795   1.924  19.318  0.00  0.00    +0.000 A 
ATOM      9  C   UNL     1       3.790   1.971  18.352  0.00  0.00    +0.000 A 
ATOM     10  C   UNL     1       4.191   3.202  17.835  0.00  0.00    +0.000 A 
ATOM     11  C   UNL     1       3.568   4.400  18.232  0.00  0.00    +0.000 A 
ENDROOT
BRANCH   4  12
ATOM     12  C   UNL     1       1.687   8.090  19.599  0.00  0.00    +0.000 C 
ATOM     13  N   UNL     1       1.167   8.816  18.652  0.00  0.00    +0.000 NA
ATOM     14  S   UNL     1       0.757  10.352  19.013  0.00  0.00    +0.000 S 
ATOM     15  O   UNL     1       1.951  11.179  18.986  0.00  0.00    +0.000 OA
ATOM     16  O   UNL     1      -0.395  10.696  18.204  0.00  0.00    +0.000 OA
ATOM     17  C   UNL     1       0.220  10.320  20.678  0.00  0.00    +0.000 A 
ATOM     18  C   UNL     1      -0.713  11.245  21.165  0.00  0.00    +0.000 A 
ATOM     19  C   UNL     1      -1.092  11.175  22.505  0.00  0.00    +0.000 A 
ATOM     20  C   UNL     1      -0.534  10.199  23.333  0.00  0.00    +0.000 A 
ATOM     21  C   UNL     1       0.414   9.298  22.830  0.00  0.00    +0.000 A 
ATOM     22  C   UNL     1       0.805   9.356  21.488  0.00  0.00    +0.000 A 
ATOM     23  N   UNL     1       1.683   8.410  20.944  0.00  0.00    +0.000 N 
ATOM     24  H   UNL     1       2.573   8.308  21.435  0.00  0.00    +0.000 HD
ENDBRANCH   4  12
BRANCH   5  25
ATOM     25  O   UNL     1       1.062   5.470  20.742  0.00  0.00    +0.000 OA
ATOM     26  H   UNL     1       0.525   6.281  20.817  0.00  0.00    +0.000 HD
ENDBRANCH   5  25
BRANCH   1  27
ATOM     27  C   UNL     1       4.682   5.689  16.380  0.00  0.00    +0.000 C 
BRANCH  27  28
ATOM     28  C   UNL     1       6.143   6.026  16.661  0.00  0.00    +0.000 C 
BRANCH  28  30
ATOM     29  C   UNL     1       6.076   3.787  15.032  0.00  0.00    +0.000 C 
ATOM     30  S   UNL     1       7.218   4.922  15.781  0.00  0.00    +0.000 S 
ATOM     31  O   UNL     1       7.986   4.184  16.763  0.00  0.00    +0.000 OA
ATOM     32  O   UNL     1       7.867   5.673  14.724  0.00  0.00    +0.000 OA
ENDBRANCH  28  30
ENDBRANCH  27  28
ENDBRANCH   1  27
TORSDOF 5
ENDMDL
MODEL 5
REMARK VINA RESULT:      -8.3      0.814      1.214
REMARK  Name = 
REMARK  6 active torsions:
REMARK  status: ('A' for Active; 'I' for Inactive)
REMARK    1  A    between atoms: C_1  and  S_2
REMARK    2  A    between atoms: S_2  and  C_5
REMARK    3  A    between atoms: C_5  and  C_6
REMARK    4  A    between atoms: C_6  and  N_7
REMARK    5  A    between atoms: C_10  and  C_11
REMARK    6  A    between atoms: C_23  and  O_24
REMARK                            x       y       z     vdW  Elec       q    Type
REMARK                         _______ _______ _______ _____ _____    ______ ____
ROOT
ATOM      1  N   UNL     1       3.855   5.310  17.668  0.00  0.00    +0.000 N 
ATOM      2  C   UNL     1       3.429   6.521  18.202  0.00  0.00    +0.000 A 
ATOM      3  O   UNL     1       3.894   7.614  17.868  0.00  0.00    +0.000 OA
ATOM      4  C   UNL     1       2.343   6.504  19.215  0.00  0.00    +0.000 A 
ATOM      5  C   UNL     1       1.844   5.336  19.667  0.00  0.00    +0.000 A 
ATOM      6  C   UNL     1       2.366   4.057  19.143  0.00  0.00    +0.000 A 
ATOM      7  C   UNL     1       1.832   2.822  19.562  0.00  0.00    +0.000 A 
ATOM      8  C   UNL     1       2.307   1.613  19.046  0.00  0.00    +0.000 A 
ATOM      9  C   UNL     1       3.357   1.619  18.140  0.00  0.00    +0.000 A 
ATOM     10  C   UNL     1       3.911   2.833  17.734  0.00  0.00    +0.000 A 
ATOM     11  C   UNL     1       3.390   4.060  18.183  0.00  0.00    +0.000 A 
ENDROOT
BRANCH   4  12
ATOM     12  C   UNL     1       1.816   7.830  19.711  0.00  0.00    +0.000 C 
ATOM     13  N   UNL     1       1.680   7.942  21.000  0.00  0.00    +0.000 NA
ATOM     14  S   UNL     1       0.828   9.211  21.566  0.00  0.00    +0.000 S 
ATOM     15  O   UNL     1      -0.590   8.921  21.444  0.00  0.00    +0.000 OA
ATOM     16  O   UNL     1       1.397   9.582  22.846  0.00  0.00    +0.000 OA
ATOM     17  C   UNL     1       1.154  10.530  20.462  0.00  0.00    +0.000 A 
ATOM     18  C   UNL     1       1.100  11.866  20.881  0.00  0.00    +0.000 A 
ATOM     19  C   UNL     1       1.359  12.872  19.950  0.00  0.00    +0.000 A 
ATOM     20  C   UNL     1       1.656  12.535  18.628  0.00  0.00    +0.000 A 
ATOM     21  C   UNL     1       1.682  11.191  18.227  0.00  0.00    +0.000 A 
ATOM     22  C   UNL     1       1.425  10.171  19.148  0.00  0.00    +0.000 A 
ATOM     23  N   UNL     1       1.534   8.822  18.789  0.00  0.00    +0.000 N 
ATOM     24  H   UNL     1       0.980   8.540  17.979  0.00  0.00    +0.000 HD
ENDBRANCH   4  12
BRANCH   5  25
ATOM     25  O   UNL     1       0.861   5.220  20.629  0.00  0.00    +0.000 OA
ATOM     26  H   UNL     1       1.259   5.314  21.514  0.00  0.00    +0.000 HD
ENDBRANCH   5  25
BRANCH   1  27
ATOM     27  C   UNL     1       4.737   5.345  16.489  0.00  0.00    +0.000 C 
BRANCH  27  28
ATOM     28  C   UNL     1       5.857   4.312  16.574  0.00  0.00    +0.000 C 
BRANCH  28  30
ATOM     29  C   UNL     1       7.282   6.584  17.267  0.00  0.00    +0.000 C 
ATOM     30  S   UNL     1       7.132   4.864  17.679  0.00  0.00    +0.000 S 
ATOM     31  O   UNL     1       8.365   4.212  17.284  0.00  0.00    +0.000 OA
ATOM     32  O   UNL     1       6.626   4.767  19.034  0.00  0.00    +0.000 OA
ENDBRANCH  28  30
ENDBRANCH  27  28
ENDBRANCH   1  27
TORSDOF 5
ENDMDL
MODEL 6
REMARK VINA RESULT:      -8.2      1.377      1.582
REMARK  Name = 
REMARK  6 active torsions:
REMARK  status: ('A' for Active; 'I' for Inactive)
REMARK    1  A    between atoms: C_1  and  S_2
REMARK    2  A    between atoms: S_2  and  C_5
REMARK    3  A    between atoms: C_5  and  C_6
REMARK    4  A    between atoms: C_6  and  N_7
REMARK    5  A    between atoms: C_10  and  C_11
REMARK    6  A    between atoms: C_23  and  O_24
REMARK                            x       y       z     vdW  Elec       q    Type
REMARK                         _______ _______ _______ _____ _____    ______ ____
ROOT
ATOM      1  N   UNL     1       3.825   6.013  17.887  0.00  0.00    +0.000 N 
ATOM      2  C   UNL     1       3.263   7.280  17.984  0.00  0.00    +0.000 A 
ATOM      3  O   UNL     1       3.492   8.190  17.183  0.00  0.00    +0.000 OA
ATOM      4  C   UNL     1       2.320   7.552  19.100  0.00  0.00    +0.000 A 
ATOM      5  C   UNL     1       2.085   6.617  20.043  0.00  0.00    +0.000 A 
ATOM      6  C   UNL     1       2.754   5.302  19.964  0.00  0.00    +0.000 A 
ATOM      7  C   UNL     1       2.491   4.290  20.908  0.00  0.00    +0.000 A 
ATOM      8  C   UNL     1       3.104   3.037  20.818  0.00  0.00    +0.000 A 
ATOM      9  C   UNL     1       4.025   2.794  19.810  0.00  0.00    +0.000 A 
ATOM     10  C   UNL     1       4.313   3.795  18.882  0.00  0.00    +0.000 A 
ATOM     11  C   UNL     1       3.644   5.033  18.912  0.00  0.00    +0.000 A 
ENDROOT
BRANCH   4  12
ATOM     12  C   UNL     1       1.635   8.898  19.136  0.00  0.00    +0.000 C 
ATOM     13  N   UNL     1       0.696   9.034  20.027  0.00  0.00    +0.000 NA
ATOM     14  S   UNL     1      -0.283  10.332  19.904  0.00  0.00    +0.000 S 
ATOM     15  O   UNL     1      -1.288  10.071  18.887  0.00  0.00    +0.000 OA
ATOM     16  O   UNL     1      -0.675  10.710  21.246  0.00  0.00    +0.000 OA
ATOM     17  C   UNL     1       0.720  11.624  19.281  0.00  0.00    +0.000 A 
ATOM     18  C   UNL     1       0.444  12.968  19.567  0.00  0.00    +0.000 A 
ATOM     19  C   UNL     1       1.274  13.952  19.031  0.00  0.00    +0.000 A 
ATOM     20  C   UNL     1       2.351  13.586  18.221  0.00  0.00    +0.000 A 
ATOM     21  C   UNL     1       2.594  12.236  17.931  0.00  0.00    +0.000 A 
ATOM     22  C   UNL     1       1.771  11.237  18.460  0.00  0.00    +0.000 A 
ATOM     23  N   UNL     1       2.049   9.880  18.256  0.00  0.00    +0.000 N 
ATOM     24  H   UNL     1       2.149   9.597  17.279  0.00  0.00    +0.000 HD
ENDBRANCH   4  12
BRANCH   5  25
ATOM     25  O   UNL     1       1.255   6.791  21.131  0.00  0.00    +0.000 OA
ATOM     26  H   UNL     1       0.831   5.941  21.356  0.00  0.00    +0.000 HD
ENDBRANCH   5  25
BRANCH   1  27
ATOM     27  C   UNL     1       4.546   5.667  16.650  0.00  0.00    +0.000 C 
BRANCH  27  28
ATOM     28  C   UNL     1       6.001   6.125  16.680  0.00  0.00    +0.000 C 
BRANCH  28  30
ATOM     29  C   UNL     1       5.903   3.645  15.452  0.00  0.00    +0.000 C 
ATOM     30  S   UNL     1       7.052   4.915  15.920  0.00  0.00    +0.000 S 
ATOM     31  O   UNL     1       7.908   4.368  16.953  0.00  0.00    +0.000 OA
ATOM     32  O   UNL     1       7.603   5.493  14.710  0.00  0.00    +0.000 OA
ENDBRANCH  28  30
ENDBRANCH  27  28
ENDBRANCH   1  27
TORSDOF 5
ENDMDL
MODEL 7
REMARK VINA RESULT:      -8.1      2.404      7.855
REMARK  Name = 
REMARK  6 active torsions:
REMARK  status: ('A' for Active; 'I' for Inactive)
REMARK    1  A    between atoms: C_1  and  S_2
REMARK    2  A    between atoms: S_2  and  C_5
REMARK    3  A    between atoms: C_5  and  C_6
REMARK    4  A    between atoms: C_6  and  N_7
REMARK    5  A    between atoms: C_10  and  C_11
REMARK    6  A    between atoms: C_23  and  O_24
REMARK                            x       y       z     vdW  Elec       q    Type
REMARK                         _______ _______ _______ _____ _____    ______ ____
ROOT
ATOM      1  N   UNL     1       1.018  10.497  19.170  0.00  0.00    +0.000 N 
ATOM      2  C   UNL     1       1.630   9.433  18.518  0.00  0.00    +0.000 A 
ATOM      3  O   UNL     1       1.999   9.476  17.341  0.00  0.00    +0.000 OA
ATOM      4  C   UNL     1       1.870   8.180  19.280  0.00  0.00    +0.000 A 
ATOM      5  C   UNL     1       1.427   8.053  20.547  0.00  0.00    +0.000 A 
ATOM      6  C   UNL     1       0.711   9.170  21.197  0.00  0.00    +0.000 A 
ATOM      7  C   UNL     1       0.278   9.082  22.535  0.00  0.00    +0.000 A 
ATOM      8  C   UNL     1      -0.377  10.148  23.157  0.00  0.00    +0.000 A 
ATOM      9  C   UNL     1      -0.652  11.300  22.435  0.00  0.00    +0.000 A 
ATOM     10  C   UNL     1      -0.251  11.391  21.103  0.00  0.00    +0.000 A 
ATOM     11  C   UNL     1       0.480  10.359  20.487  0.00  0.00    +0.000 A 
ENDROOT
BRANCH   4  12
ATOM     12  C   UNL     1       2.628   7.068  18.595  0.00  0.00    +0.000 C 
ATOM     13  N   UNL     1       3.917   7.229  18.507  0.00  0.00    +0.000 NA
ATOM     14  S   UNL     1       4.738   6.233  17.511  0.00  0.00    +0.000 S 
ATOM     15  O   UNL     1       4.589   6.703  16.145  0.00  0.00    +0.000 OA
ATOM     16  O   UNL     1       6.055   6.036  18.082  0.00  0.00    +0.000 OA
ATOM     17  C   UNL     1       3.911   4.693  17.591  0.00  0.00    +0.000 A 
ATOM     18  C   UNL     1       4.586   3.486  17.368  0.00  0.00    +0.000 A 
ATOM     19  C   UNL     1       3.867   2.292  17.435  0.00  0.00    +0.000 A 
ATOM     20  C   UNL     1       2.499   2.321  17.713  0.00  0.00    +0.000 A 
ATOM     21  C   UNL     1       1.840   3.543  17.911  0.00  0.00    +0.000 A 
ATOM     22  C   UNL     1       2.547   4.748  17.847  0.00  0.00    +0.000 A 
ATOM     23  N   UNL     1       1.926   5.971  18.130  0.00  0.00    +0.000 N 
ATOM     24  H   UNL     1       1.087   6.172  17.584  0.00  0.00    +0.000 HD
ENDBRANCH   4  12
BRANCH   5  25
ATOM     25  O   UNL     1       1.574   6.919  21.321  0.00  0.00    +0.000 OA
ATOM     26  H   UNL     1       2.373   7.003  21.873  0.00  0.00    +0.000 HD
ENDBRANCH   5  25
BRANCH   1  27
ATOM     27  C   UNL     1       1.016  11.810  18.502  0.00  0.00    +0.000 C 
BRANCH  27  28
ATOM     28  C   UNL     1       2.366  12.514  18.604  0.00  0.00    +0.000 C 
BRANCH  28  30
ATOM     29  C   UNL     1       3.606  14.899  19.271  0.00  0.00    +0.000 C 
ATOM     30  S   UNL     1       2.300  13.820  19.803  0.00  0.00    +0.000 S 
ATOM     31  O   UNL     1       2.691  13.260  21.081  0.00  0.00    +0.000 OA
ATOM     32  O   UNL     1       1.042  14.519  19.638  0.00  0.00    +0.000 OA
ENDBRANCH  28  30
ENDBRANCH  27  28
ENDBRANCH   1  27
TORSDOF 5
ENDMDL
MODEL 8
REMARK VINA RESULT:      -8.1      2.956      4.866
REMARK  Name = 
REMARK  6 active torsions:
REMARK  status: ('A' for Active; 'I' for Inactive)
REMARK    1  A    between atoms: C_1  and  S_2
REMARK    2  A    between atoms: S_2  and  C_5
REMARK    3  A    between atoms: C_5  and  C_6
REMARK    4  A    between atoms: C_6  and  N_7
REMARK    5  A    between atoms: C_10  and  C_11
REMARK    6  A    between atoms: C_23  and  O_24
REMARK                            x       y       z     vdW  Elec       q    Type
REMARK                         _______ _______ _______ _____ _____    ______ ____
ROOT
ATOM      1  N   UNL     1       2.329   6.514  19.852  0.00  0.00    +0.000 N 
ATOM      2  C   UNL     1       1.459   7.566  20.113  0.00  0.00    +0.000 A 
ATOM      3  O   UNL     1       0.671   7.578  21.062  0.00  0.00    +0.000 OA
ATOM      4  C   UNL     1       1.489   8.749  19.213  0.00  0.00    +0.000 A 
ATOM      5  C   UNL     1       2.281   8.761  18.122  0.00  0.00    +0.000 A 
ATOM      6  C   UNL     1       3.142   7.599  17.820  0.00  0.00    +0.000 A 
ATOM      7  C   UNL     1       4.014   7.603  16.713  0.00  0.00    +0.000 A 
ATOM      8  C   UNL     1       4.847   6.514  16.442  0.00  0.00    +0.000 A 
ATOM      9  C   UNL     1       4.786   5.386  17.247  0.00  0.00    +0.000 A 
ATOM     10  C   UNL     1       3.910   5.359  18.331  0.00  0.00    +0.000 A 
ATOM     11  C   UNL     1       3.124   6.477  18.664  0.00  0.00    +0.000 A 
ENDROOT
BRANCH   4  12
ATOM     12  C   UNL     1       0.615   9.929  19.566  0.00  0.00    +0.000 C 
ATOM     13  N   UNL     1      -0.062  10.449  18.584  0.00  0.00    +0.000 NA
ATOM     14  S   UNL     1      -0.764  11.899  18.831  0.00  0.00    +0.000 S 
ATOM     15  O   UNL     1       0.239  12.940  18.688  0.00  0.00    +0.000 OA
ATOM     16  O   UNL     1      -1.979  11.934  18.043  0.00  0.00    +0.000 OA
ATOM     17  C   UNL     1      -1.245  11.912  20.513  0.00  0.00    +0.000 A 
ATOM     18  C   UNL     1      -2.334  12.674  20.958  0.00  0.00    +0.000 A 
ATOM     19  C   UNL     1      -2.661  12.651  22.314  0.00  0.00    +0.000 A 
ATOM     20  C   UNL     1      -1.900  11.883  23.198  0.00  0.00    +0.000 A 
ATOM     21  C   UNL     1      -0.801  11.146  22.733  0.00  0.00    +0.000 A 
ATOM     22  C   UNL     1      -0.461  11.159  21.377  0.00  0.00    +0.000 A 
ATOM     23  N   UNL     1       0.576  10.361  20.879  0.00  0.00    +0.000 N 
ATOM     24  H   UNL     1       1.480  10.482  21.340  0.00  0.00    +0.000 HD
ENDBRANCH   4  12
BRANCH   5  25
ATOM     25  O   UNL     1       2.350   9.797  17.214  0.00  0.00    +0.000 OA
ATOM     26  H   UNL     1       1.480  10.232  17.148  0.00  0.00    +0.000 HD
ENDBRANCH   5  25
BRANCH   1  27
ATOM     27  C   UNL     1       2.482   5.470  20.879  0.00  0.00    +0.000 C 
BRANCH  27  28
ATOM     28  C   UNL     1       1.408   4.391  20.773  0.00  0.00    +0.000 C 
BRANCH  28  30
ATOM     29  C   UNL     1       1.473   1.947  19.472  0.00  0.00    +0.000 C 
ATOM     30  S   UNL     1       2.132   2.776  20.898  0.00  0.00    +0.000 S 
ATOM     31  O   UNL     1       1.573   2.135  22.071  0.00  0.00    +0.000 OA
ATOM     32  O   UNL     1       3.564   2.909  20.719  0.00  0.00    +0.000 OA
ENDBRANCH  28  30
ENDBRANCH  27  28
ENDBRANCH   1  27
TORSDOF 5
ENDMDL
MODEL 9
REMARK VINA RESULT:      -7.9      1.845      2.469
REMARK  Name = 
REMARK  6 active torsions:
REMARK  status: ('A' for Active; 'I' for Inactive)
REMARK    1  A    between atoms: C_1  and  S_2
REMARK    2  A    between atoms: S_2  and  C_5
REMARK    3  A    between atoms: C_5  and  C_6
REMARK    4  A    between atoms: C_6  and  N_7
REMARK    5  A    between atoms: C_10  and  C_11
REMARK    6  A    between atoms: C_23  and  O_24
REMARK                            x       y       z     vdW  Elec       q    Type
REMARK                         _______ _______ _______ _____ _____    ______ ____
ROOT
ATOM      1  N   UNL     1       3.661   5.909  17.937  0.00  0.00    +0.000 N 
ATOM      2  C   UNL     1       3.078   7.131  18.253  0.00  0.00    +0.000 A 
ATOM      3  O   UNL     1       3.221   8.150  17.573  0.00  0.00    +0.000 OA
ATOM      4  C   UNL     1       2.219   7.213  19.463  0.00  0.00    +0.000 A 
ATOM      5  C   UNL     1       2.082   6.149  20.280  0.00  0.00    +0.000 A 
ATOM      6  C   UNL     1       2.774   4.882  19.967  0.00  0.00    +0.000 A 
ATOM      7  C   UNL     1       2.611   3.741  20.777  0.00  0.00    +0.000 A 
ATOM      8  C   UNL     1       3.245   2.534  20.467  0.00  0.00    +0.000 A 
ATOM      9  C   UNL     1       4.090   2.466  19.369  0.00  0.00    +0.000 A 
ATOM     10  C   UNL     1       4.279   3.594  18.573  0.00  0.00    +0.000 A 
ATOM     11  C   UNL     1       3.585   4.792  18.825  0.00  0.00    +0.000 A 
ENDROOT
BRANCH   4  12
ATOM     12  C   UNL     1       1.507   8.516  19.739  0.00  0.00    +0.000 C 
ATOM     13  N   UNL     1       1.026   9.132  18.698  0.00  0.00    +0.000 NA
ATOM     14  S   UNL     1       0.536  10.675  18.890  0.00  0.00    +0.000 S 
ATOM     15  O   UNL     1       1.698  11.547  18.867  0.00  0.00    +0.000 OA
ATOM     16  O   UNL     1      -0.569  10.897  17.980  0.00  0.00    +0.000 OA
ATOM     17  C   UNL     1      -0.112  10.767  20.513  0.00  0.00    +0.000 A 
ATOM     18  C   UNL     1      -1.110  11.691  20.852  0.00  0.00    +0.000 A 
ATOM     19  C   UNL     1      -1.578  11.723  22.166  0.00  0.00    +0.000 A 
ATOM     20  C   UNL     1      -1.043  10.848  23.114  0.00  0.00    +0.000 A 
ATOM     21  C   UNL     1      -0.029   9.948  22.757  0.00  0.00    +0.000 A 
ATOM     22  C   UNL     1       0.450   9.904  21.444  0.00  0.00    +0.000 A 
ATOM     23  N   UNL     1       1.398   8.952  21.047  0.00  0.00    +0.000 N 
ATOM     24  H   UNL     1       2.255   8.932  21.601  0.00  0.00    +0.000 HD
ENDBRANCH   4  12
BRANCH   5  25
ATOM     25  O   UNL     1       1.335   6.142  21.441  0.00  0.00    +0.000 OA
ATOM     26  H   UNL     1       1.531   5.332  21.949  0.00  0.00    +0.000 HD
ENDBRANCH   5  25
BRANCH   1  27
ATOM     27  C   UNL     1       4.291   5.763  16.614  0.00  0.00    +0.000 C 
BRANCH  27  28
ATOM     28  C   UNL     1       5.743   6.232  16.608  0.00  0.00    +0.000 C 
BRANCH  28  30
ATOM     29  C   UNL     1       7.728   4.521  17.505  0.00  0.00    +0.000 C 
ATOM     30  S   UNL     1       6.814   4.936  16.040  0.00  0.00    +0.000 S 
ATOM     31  O   UNL     1       7.746   5.521  15.097  0.00  0.00    +0.000 OA
ATOM     32  O   UNL     1       5.993   3.797  15.683  0.00  0.00    +0.000 OA
ENDBRANCH  28  30
ENDBRANCH  27  28
ENDBRANCH   1  27
TORSDOF 5
ENDMDL
