MODEL 1
REMARK VINA RESULT:      -9.2      0.000      0.000
REMARK  Name = 
REMARK  7 active torsions:
REMARK  status: ('A' for Active; 'I' for Inactive)
REMARK    1  A    between atoms: C_1  and  C_2
REMARK    2  A    between atoms: C_6  and  C_7
REMARK    3  A    between atoms: C_7  and  C_8
REMARK    4  A    between atoms: N_10  and  C_11
REMARK    5  A    between atoms: C_14  and  S_15
REMARK    6  A    between atoms: S_15  and  N_18
REMARK    7  A    between atoms: C_21  and  C_22
REMARK                            x       y       z     vdW  Elec       q    Type
REMARK                         _______ _______ _______ _____ _____    ______ ____
ROOT
ATOM      1  C   UNL     1       2.029   8.076  19.054  0.00  0.00    +0.000 A 
ATOM      2  C   UNL     1       2.730   8.075  17.844  0.00  0.00    +0.000 A 
ATOM      3  C   UNL     1       3.682   7.081  17.577  0.00  0.00    +0.000 A 
ATOM      4  C   UNL     1       3.889   6.054  18.500  0.00  0.00    +0.000 A 
ATOM      5  C   UNL     1       3.152   6.033  19.686  0.00  0.00    +0.000 A 
ATOM      6  C   UNL     1       2.286   7.082  19.998  0.00  0.00    +0.000 A 
ENDROOT
BRANCH   1   9
ATOM      7  C   UNL     1       1.052  10.308  18.833  0.00  0.00    +0.000 C 
ATOM      8  O   UNL     1       1.944  10.767  18.125  0.00  0.00    +0.000 OA
ATOM      9  N   UNL     1       1.024   9.019  19.352  0.00  0.00    +0.000 N 
ATOM     10  H   UNL     1       0.098   8.649  19.527  0.00  0.00    +0.000 HD
BRANCH   7  11
ATOM     11  C   UNL     1      -0.159  11.148  19.210  0.00  0.00    +0.000 C 
BRANCH  11  17
ATOM     12  C   UNL     1      -6.944  12.108  18.101  0.00  0.00    +0.000 C 
ATOM     13  C   UNL     1      -5.478  11.826  18.273  0.00  0.00    +0.000 A 
ATOM     14  C   UNL     1      -4.750  12.419  19.317  0.00  0.00    +0.000 A 
ATOM     15  C   UNL     1      -3.373  12.182  19.481  0.00  0.00    +0.000 A 
ATOM     16  C   UNL     1      -2.714  11.331  18.575  0.00  0.00    +0.000 A 
ATOM     17  C   UNL     1      -1.374  10.859  18.390  0.00  0.00    +0.000 A 
ATOM     18  C   UNL     1      -1.434  10.010  17.300  0.00  0.00    +0.000 A 
ATOM     19  O   UNL     1      -2.689   9.949  16.792  0.00  0.00    +0.000 OA
ATOM     20  C   UNL     1      -3.471  10.748  17.565  0.00  0.00    +0.000 A 
ATOM     21  C   UNL     1      -4.836  10.958  17.377  0.00  0.00    +0.000 A 
ENDBRANCH  11  17
ENDBRANCH   7  11
ENDBRANCH   1   9
BRANCH   4  22
ATOM     22  S   UNL     1       4.995   4.703  18.119  0.00  0.00    +0.000 S 
ATOM     23  O   UNL     1       5.545   4.985  16.809  0.00  0.00    +0.000 OA
ATOM     24  O   UNL     1       5.858   4.528  19.267  0.00  0.00    +0.000 OA
BRANCH  22  25
ATOM     25  N   UNL     1       4.022   3.326  18.001  0.00  0.00    +0.000 NA
ATOM     26  C   UNL     1       2.791   3.299  17.201  0.00  0.00    +0.000 C 
ATOM     27  C   UNL     1       1.541   3.406  18.066  0.00  0.00    +0.000 C 
ATOM     28  C   UNL     1       1.584   2.659  19.413  0.00  0.00    +0.000 C 
ATOM     29  C   UNL     1       0.641   3.336  20.421  0.00  0.00    +0.000 C 
ATOM     30  C   UNL     1       2.980   2.510  20.042  0.00  0.00    +0.000 C 
ATOM     31  C   UNL     1       4.076   2.274  19.019  0.00  0.00    +0.000 C 
ENDBRANCH  22  25
ENDBRANCH   4  22
TORSDOF 5
ENDMDL
MODEL 2
REMARK VINA RESULT:      -9.0      1.910      2.679
REMARK  Name = 
REMARK  7 active torsions:
REMARK  status: ('A' for Active; 'I' for Inactive)
REMARK    1  A    between atoms: C_1  and  C_2
REMARK    2  A    between atoms: C_6  and  C_7
REMARK    3  A    between atoms: C_7  and  C_8
REMARK    4  A    between atoms: N_10  and  C_11
REMARK    5  A    between atoms: C_14  and  S_15
REMARK    6  A    between atoms: S_15  and  N_18
REMARK    7  A    between atoms: C_21  and  C_22
REMARK                            x       y       z     vdW  Elec       q    Type
REMARK                         _______ _______ _______ _____ _____    ______ ____
ROOT
ATOM      1  C   UNL     1       2.086   8.141  18.800  0.00  0.00    +0.000 A 
ATOM      2  C   UNL     1       2.824   8.073  17.614  0.00  0.00    +0.000 A 
ATOM      3  C   UNL     1       3.776   7.061  17.429  0.00  0.00    +0.000 A 
ATOM      4  C   UNL     1       3.949   6.083  18.411  0.00  0.00    +0.000 A 
ATOM      5  C   UNL     1       3.176   6.129  19.574  0.00  0.00    +0.000 A 
ATOM      6  C   UNL     1       2.308   7.197  19.803  0.00  0.00    +0.000 A 
ENDROOT
BRANCH   1   9
ATOM      7  C   UNL     1       1.263  10.442  18.694  0.00  0.00    +0.000 C 
ATOM      8  O   UNL     1       2.298  10.926  18.247  0.00  0.00    +0.000 OA
ATOM      9  N   UNL     1       1.079   9.103  19.017  0.00  0.00    +0.000 N 
ATOM     10  H   UNL     1       0.122   8.776  18.953  0.00  0.00    +0.000 HD
BRANCH   7  11
ATOM     11  C   UNL     1       0.033  11.305  18.932  0.00  0.00    +0.000 C 
BRANCH  11  17
ATOM     12  C   UNL     1      -4.693  13.115  23.683  0.00  0.00    +0.000 C 
ATOM     13  C   UNL     1      -3.604  12.714  22.729  0.00  0.00    +0.000 A 
ATOM     14  C   UNL     1      -3.787  12.825  21.342  0.00  0.00    +0.000 A 
ATOM     15  C   UNL     1      -2.785  12.435  20.434  0.00  0.00    +0.000 A 
ATOM     16  C   UNL     1      -1.573  11.923  20.932  0.00  0.00    +0.000 A 
ATOM     17  C   UNL     1      -0.355  11.421  20.371  0.00  0.00    +0.000 A 
ATOM     18  C   UNL     1       0.443  11.104  21.454  0.00  0.00    +0.000 A 
ATOM     19  O   UNL     1      -0.196  11.345  22.625  0.00  0.00    +0.000 OA
ATOM     20  C   UNL     1      -1.422  11.845  22.313  0.00  0.00    +0.000 A 
ATOM     21  C   UNL     1      -2.391  12.225  23.239  0.00  0.00    +0.000 A 
ENDBRANCH  11  17
ENDBRANCH   7  11
ENDBRANCH   1   9
BRANCH   4  22
ATOM     22  S   UNL     1       5.057   4.708  18.136  0.00  0.00    +0.000 S 
ATOM     23  O   UNL     1       5.660   4.926  16.837  0.00  0.00    +0.000 OA
ATOM     24  O   UNL     1       5.874   4.581  19.323  0.00  0.00    +0.000 OA
BRANCH  22  25
ATOM     25  N   UNL     1       4.078   3.334  18.043  0.00  0.00    +0.000 NA
ATOM     26  C   UNL     1       2.864   3.288  17.219  0.00  0.00    +0.000 C 
ATOM     27  C   UNL     1       1.597   3.431  18.053  0.00  0.00    +0.000 C 
ATOM     28  C   UNL     1       1.606   2.729  19.424  0.00  0.00    +0.000 C 
ATOM     29  C   UNL     1       0.646   3.446  20.388  0.00  0.00    +0.000 C 
ATOM     30  C   UNL     1       2.988   2.594  20.088  0.00  0.00    +0.000 C 
ATOM     31  C   UNL     1       4.103   2.317  19.097  0.00  0.00    +0.000 C 
ENDBRANCH  22  25
ENDBRANCH   4  22
TORSDOF 5
ENDMDL
MODEL 3
REMARK VINA RESULT:      -8.9      0.795      1.180
REMARK  Name = 
REMARK  7 active torsions:
REMARK  status: ('A' for Active; 'I' for Inactive)
REMARK    1  A    between atoms: C_1  and  C_2
REMARK    2  A    between atoms: C_6  and  C_7
REMARK    3  A    between atoms: C_7  and  C_8
REMARK    4  A    between atoms: N_10  and  C_11
REMARK    5  A    between atoms: C_14  and  S_15
REMARK    6  A    between atoms: S_15  and  N_18
REMARK    7  A    between atoms: C_21  and  C_22
REMARK                            x       y       z     vdW  Elec       q    Type
REMARK                         _______ _______ _______ _____ _____    ______ ____
ROOT
ATOM      1  C   UNL     1       2.220   8.146  18.472  0.00  0.00    +0.000 A 
ATOM      2  C   UNL     1       2.267   7.274  19.565  0.00  0.00    +0.000 A 
ATOM      3  C   UNL     1       3.163   6.196  19.573  0.00  0.00    +0.000 A 
ATOM      4  C   UNL     1       4.053   6.026  18.510  0.00  0.00    +0.000 A 
ATOM      5  C   UNL     1       4.034   6.927  17.443  0.00  0.00    +0.000 A 
ATOM      6  C   UNL     1       3.069   7.934  17.386  0.00  0.00    +0.000 A 
ENDROOT
BRANCH   1   9
ATOM      7  C   UNL     1       0.572   9.626  19.512  0.00  0.00    +0.000 C 
ATOM      8  O   UNL     1       0.472   8.989  20.556  0.00  0.00    +0.000 OA
ATOM      9  N   UNL     1       1.378   9.276  18.435  0.00  0.00    +0.000 N 
ATOM     10  H   UNL     1       1.693  10.053  17.866  0.00  0.00    +0.000 HD
BRANCH   7  11
ATOM     11  C   UNL     1      -0.204  10.918  19.303  0.00  0.00    +0.000 C 
BRANCH  11  17
ATOM     12  C   UNL     1      -6.881  12.454  18.191  0.00  0.00    +0.000 C 
ATOM     13  C   UNL     1      -5.443  12.051  18.361  0.00  0.00    +0.000 A 
ATOM     14  C   UNL     1      -4.681  12.544  19.432  0.00  0.00    +0.000 A 
ATOM     15  C   UNL     1      -3.328  12.192  19.594  0.00  0.00    +0.000 A 
ATOM     16  C   UNL     1      -2.730  11.327  18.661  0.00  0.00    +0.000 A 
ATOM     17  C   UNL     1      -1.430  10.758  18.465  0.00  0.00    +0.000 A 
ATOM     18  C   UNL     1      -1.547   9.959  17.342  0.00  0.00    +0.000 A 
ATOM     19  O   UNL     1      -2.798  10.017  16.824  0.00  0.00    +0.000 OA
ATOM     20  C   UNL     1      -3.522  10.845  17.623  0.00  0.00    +0.000 A 
ATOM     21  C   UNL     1      -4.864  11.170  17.436  0.00  0.00    +0.000 A 
ENDBRANCH  11  17
ENDBRANCH   7  11
ENDBRANCH   1   9
BRANCH   4  22
ATOM     22  S   UNL     1       5.294   4.742  18.565  0.00  0.00    +0.000 S 
ATOM     23  O   UNL     1       6.027   4.831  17.318  0.00  0.00    +0.000 OA
ATOM     24  O   UNL     1       5.971   4.864  19.837  0.00  0.00    +0.000 OA
BRANCH  22  25
ATOM     25  N   UNL     1       4.449   3.278  18.578  0.00  0.00    +0.000 NA
ATOM     26  C   UNL     1       3.403   2.966  17.596  0.00  0.00    +0.000 C 
ATOM     27  C   UNL     1       2.003   3.120  18.178  0.00  0.00    +0.000 C 
ATOM     28  C   UNL     1       1.824   2.671  19.641  0.00  0.00    +0.000 C 
ATOM     29  C   UNL     1       0.662   3.441  20.290  0.00  0.00    +0.000 C 
ATOM     30  C   UNL     1       3.076   2.795  20.528  0.00  0.00    +0.000 C 
ATOM     31  C   UNL     1       4.364   2.467  19.795  0.00  0.00    +0.000 C 
ENDBRANCH  22  25
ENDBRANCH   4  22
TORSDOF 5
ENDMDL
MODEL 4
REMARK VINA RESULT:      -8.9      5.920      8.719
REMARK  Name = 
REMARK  7 active torsions:
REMARK  status: ('A' for Active; 'I' for Inactive)
REMARK    1  A    between atoms: C_1  and  C_2
REMARK    2  A    between atoms: C_6  and  C_7
REMARK    3  A    between atoms: C_7  and  C_8
REMARK    4  A    between atoms: N_10  and  C_11
REMARK    5  A    between atoms: C_14  and  S_15
REMARK    6  A    between atoms: S_15  and  N_18
REMARK    7  A    between atoms: C_21  and  C_22
REMARK                            x       y       z     vdW  Elec       q    Type
REMARK                         _______ _______ _______ _____ _____    ______ ____
ROOT
ATOM      1  C   UNL     1       7.840   7.188  18.488  0.00  0.00    +0.000 A 
ATOM      2  C   UNL     1       7.047   7.404  17.356  0.00  0.00    +0.000 A 
ATOM      3  C   UNL     1       6.068   6.469  16.989  0.00  0.00    +0.000 A 
ATOM      4  C   UNL     1       5.846   5.347  17.790  0.00  0.00    +0.000 A 
ATOM      5  C   UNL     1       6.608   5.161  18.944  0.00  0.00    +0.000 A 
ATOM      6  C   UNL     1       7.654   6.033  19.249  0.00  0.00    +0.000 A 
ENDROOT
BRANCH   1   9
ATOM      7  C   UNL     1       8.705   9.472  18.631  0.00  0.00    +0.000 C 
ATOM      8  O   UNL     1       7.836   9.980  17.930  0.00  0.00    +0.000 OA
ATOM      9  N   UNL     1       8.801   8.119  18.933  0.00  0.00    +0.000 N 
ATOM     10  H   UNL     1       9.256   7.909  19.813  0.00  0.00    +0.000 HD
BRANCH   7  11
ATOM     11  C   UNL     1       9.796  10.321  19.266  0.00  0.00    +0.000 C 
BRANCH  11  17
ATOM     12  C   UNL     1       8.587  17.129  18.663  0.00  0.00    +0.000 C 
ATOM     13  C   UNL     1       8.895  15.659  18.705  0.00  0.00    +0.000 A 
ATOM     14  C   UNL     1       8.320  14.832  19.683  0.00  0.00    +0.000 A 
ATOM     15  C   UNL     1       8.613  13.458  19.748  0.00  0.00    +0.000 A 
ATOM     16  C   UNL     1       9.504  12.903  18.811  0.00  0.00    +0.000 A 
ATOM     17  C   UNL     1      10.055  11.607  18.551  0.00  0.00    +0.000 A 
ATOM     18  C   UNL     1      10.858  11.769  17.438  0.00  0.00    +0.000 A 
ATOM     19  O   UNL     1      10.864  13.057  17.017  0.00  0.00    +0.000 OA
ATOM     20  C   UNL     1      10.040  13.751  17.847  0.00  0.00    +0.000 A 
ATOM     21  C   UNL     1       9.768  15.114  17.751  0.00  0.00    +0.000 A 
ENDBRANCH  11  17
ENDBRANCH   7  11
ENDBRANCH   1   9
BRANCH   4  22
ATOM     22  S   UNL     1       4.512   4.217  17.415  0.00  0.00    +0.000 S 
ATOM     23  O   UNL     1       4.424   4.158  15.970  0.00  0.00    +0.000 OA
ATOM     24  O   UNL     1       4.740   3.022  18.197  0.00  0.00    +0.000 OA
BRANCH  22  25
ATOM     25  N   UNL     1       3.106   4.948  18.003  0.00  0.00    +0.000 NA
ATOM     26  C   UNL     1       3.097   5.773  19.217  0.00  0.00    +0.000 C 
ATOM     27  C   UNL     1       2.523   5.026  20.415  0.00  0.00    +0.000 C 
ATOM     28  C   UNL     1       1.329   4.096  20.125  0.00  0.00    +0.000 C 
ATOM     29  C   UNL     1       1.275   2.969  21.168  0.00  0.00    +0.000 C 
ATOM     30  C   UNL     1       1.296   3.486  18.712  0.00  0.00    +0.000 C 
ATOM     31  C   UNL     1       1.782   4.440  17.636  0.00  0.00    +0.000 C 
ENDBRANCH  22  25
ENDBRANCH   4  22
TORSDOF 5
ENDMDL
MODEL 5
REMARK VINA RESULT:      -8.9      1.491      2.279
REMARK  Name = 
REMARK  7 active torsions:
REMARK  status: ('A' for Active; 'I' for Inactive)
REMARK    1  A    between atoms: C_1  and  C_2
REMARK    2  A    between atoms: C_6  and  C_7
REMARK    3  A    between atoms: C_7  and  C_8
REMARK    4  A    between atoms: N_10  and  C_11
REMARK    5  A    between atoms: C_14  and  S_15
REMARK    6  A    between atoms: S_15  and  N_18
REMARK    7  A    between atoms: C_21  and  C_22
REMARK                            x       y       z     vdW  Elec       q    Type
REMARK                         _______ _______ _______ _____ _____    ______ ____
ROOT
ATOM      1  C   UNL     1       2.051   8.376  19.118  0.00  0.00    +0.000 A 
ATOM      2  C   UNL     1       2.260   7.297  19.983  0.00  0.00    +0.000 A 
ATOM      3  C   UNL     1       2.990   6.178  19.557  0.00  0.00    +0.000 A 
ATOM      4  C   UNL     1       3.560   6.168  18.282  0.00  0.00    +0.000 A 
ATOM      5  C   UNL     1       3.388   7.268  17.440  0.00  0.00    +0.000 A 
ATOM      6  C   UNL     1       2.571   8.332  17.825  0.00  0.00    +0.000 A 
ENDROOT
BRANCH   1   9
ATOM      7  C   UNL     1       0.365   9.523  20.470  0.00  0.00    +0.000 C 
ATOM      8  O   UNL     1      -0.060   8.514  21.025  0.00  0.00    +0.000 OA
ATOM      9  N   UNL     1       1.371   9.547  19.512  0.00  0.00    +0.000 N 
ATOM     10  H   UNL     1       1.899  10.410  19.468  0.00  0.00    +0.000 HD
BRANCH   7  11
ATOM     11  C   UNL     1      -0.191  10.898  20.810  0.00  0.00    +0.000 C 
BRANCH  11  17
ATOM     12  C   UNL     1      -3.840  10.295  14.936  0.00  0.00    +0.000 C 
ATOM     13  C   UNL     1      -3.109  10.502  16.233  0.00  0.00    +0.000 A 
ATOM     14  C   UNL     1      -1.909   9.825  16.497  0.00  0.00    +0.000 A 
ATOM     15  C   UNL     1      -1.222   9.992  17.714  0.00  0.00    +0.000 A 
ATOM     16  C   UNL     1      -1.754  10.859  18.685  0.00  0.00    +0.000 A 
ATOM     17  C   UNL     1      -1.389  11.282  20.004  0.00  0.00    +0.000 A 
ATOM     18  C   UNL     1      -2.363  12.188  20.380  0.00  0.00    +0.000 A 
ATOM     19  O   UNL     1      -3.303  12.331  19.413  0.00  0.00    +0.000 OA
ATOM     20  C   UNL     1      -2.936  11.527  18.380  0.00  0.00    +0.000 A 
ATOM     21  C   UNL     1      -3.639  11.387  17.184  0.00  0.00    +0.000 A 
ENDBRANCH  11  17
ENDBRANCH   7  11
ENDBRANCH   1   9
BRANCH   4  22
ATOM     22  S   UNL     1       4.609   4.814  17.770  0.00  0.00    +0.000 S 
ATOM     23  O   UNL     1       4.977   5.082  16.394  0.00  0.00    +0.000 OA
ATOM     24  O   UNL     1       5.619   4.654  18.793  0.00  0.00    +0.000 OA
BRANCH  22  25
ATOM     25  N   UNL     1       3.634   3.435  17.799  0.00  0.00    +0.000 NA
ATOM     26  C   UNL     1       2.238   3.449  17.344  0.00  0.00    +0.000 C 
ATOM     27  C   UNL     1       1.254   3.469  18.508  0.00  0.00    +0.000 C 
ATOM     28  C   UNL     1       1.640   2.621  19.735  0.00  0.00    +0.000 C 
ATOM     29  C   UNL     1       0.991   3.204  21.002  0.00  0.00    +0.000 C 
ATOM     30  C   UNL     1       3.151   2.448  19.969  0.00  0.00    +0.000 C 
ATOM     31  C   UNL     1       3.944   2.309  18.683  0.00  0.00    +0.000 C 
ENDBRANCH  22  25
ENDBRANCH   4  22
TORSDOF 5
ENDMDL
MODEL 6
REMARK VINA RESULT:      -8.9      2.394      3.094
REMARK  Name = 
REMARK  7 active torsions:
REMARK  status: ('A' for Active; 'I' for Inactive)
REMARK    1  A    between atoms: C_1  and  C_2
REMARK    2  A    between atoms: C_6  and  C_7
REMARK    3  A    between atoms: C_7  and  C_8
REMARK    4  A    between atoms: N_10  and  C_11
REMARK    5  A    between atoms: C_14  and  S_15
REMARK    6  A    between atoms: S_15  and  N_18
REMARK    7  A    between atoms: C_21  and  C_22
REMARK                            x       y       z     vdW  Elec       q    Type
REMARK                         _______ _______ _______ _____ _____    ______ ____
ROOT
ATOM      1  C   UNL     1       1.175   9.053  19.103  0.00  0.00    +0.000 A 
ATOM      2  C   UNL     1       1.736   8.893  17.832  0.00  0.00    +0.000 A 
ATOM      3  C   UNL     1       2.676   7.880  17.595  0.00  0.00    +0.000 A 
ATOM      4  C   UNL     1       3.011   6.992  18.620  0.00  0.00    +0.000 A 
ATOM      5  C   UNL     1       2.413   7.127  19.874  0.00  0.00    +0.000 A 
ATOM      6  C   UNL     1       1.561   8.201  20.138  0.00  0.00    +0.000 A 
ENDROOT
BRANCH   1   9
ATOM      7  C   UNL     1       0.504  11.358  19.577  0.00  0.00    +0.000 C 
ATOM      8  O   UNL     1       1.639  11.823  19.573  0.00  0.00    +0.000 OA
ATOM      9  N   UNL     1       0.186  10.019  19.383  0.00  0.00    +0.000 N 
ATOM     10  H   UNL     1      -0.732   9.850  18.990  0.00  0.00    +0.000 HD
BRANCH   7  11
ATOM     11  C   UNL     1      -0.709  12.251  19.791  0.00  0.00    +0.000 C 
BRANCH  11  17
ATOM     12  C   UNL     1      -6.124  13.005  24.068  0.00  0.00    +0.000 C 
ATOM     13  C   UNL     1      -4.893  12.837  23.223  0.00  0.00    +0.000 A 
ATOM     14  C   UNL     1      -4.944  13.023  21.833  0.00  0.00    +0.000 A 
ATOM     15  C   UNL     1      -3.806  12.850  21.025  0.00  0.00    +0.000 A 
ATOM     16  C   UNL     1      -2.590  12.480  21.627  0.00  0.00    +0.000 A 
ATOM     17  C   UNL     1      -1.258  12.202  21.180  0.00  0.00    +0.000 A 
ATOM     18  C   UNL     1      -0.539  11.923  22.327  0.00  0.00    +0.000 A 
ATOM     19  O   UNL     1      -1.326  11.981  23.429  0.00  0.00    +0.000 OA
ATOM     20  C   UNL     1      -2.573  12.322  23.009  0.00  0.00    +0.000 A 
ATOM     21  C   UNL     1      -3.681  12.490  23.839  0.00  0.00    +0.000 A 
ENDBRANCH  11  17
ENDBRANCH   7  11
ENDBRANCH   1   9
BRANCH   4  22
ATOM     22  S   UNL     1       4.101   5.612  18.301  0.00  0.00    +0.000 S 
ATOM     23  O   UNL     1       4.752   5.891  17.037  0.00  0.00    +0.000 OA
ATOM     24  O   UNL     1       4.874   5.399  19.505  0.00  0.00    +0.000 OA
BRANCH  22  25
ATOM     25  N   UNL     1       3.099   4.266  18.096  0.00  0.00    +0.000 NA
ATOM     26  C   UNL     1       1.635   4.361  18.146  0.00  0.00    +0.000 C 
ATOM     27  C   UNL     1       1.071   3.861  19.471  0.00  0.00    +0.000 C 
ATOM     28  C   UNL     1       1.770   2.632  20.083  0.00  0.00    +0.000 C 
ATOM     29  C   UNL     1       1.592   2.631  21.610  0.00  0.00    +0.000 C 
ATOM     30  C   UNL     1       3.264   2.484  19.744  0.00  0.00    +0.000 C 
ATOM     31  C   UNL     1       3.601   2.910  18.326  0.00  0.00    +0.000 C 
ENDBRANCH  22  25
ENDBRANCH   4  22
TORSDOF 5
ENDMDL
MODEL 7
REMARK VINA RESULT:      -8.7      5.779      8.421
REMARK  Name = 
REMARK  7 active torsions:
REMARK  status: ('A' for Active; 'I' for Inactive)
REMARK    1  A    between atoms: C_1  and  C_2
REMARK    2  A    between atoms: C_6  and  C_7
REMARK    3  A    between atoms: C_7  and  C_8
REMARK    4  A    between atoms: N_10  and  C_11
REMARK    5  A    between atoms: C_14  and  S_15
REMARK    6  A    between atoms: S_15  and  N_18
REMARK    7  A    between atoms: C_21  and  C_22
REMARK                            x       y       z     vdW  Elec       q    Type
REMARK                         _______ _______ _______ _____ _____    ______ ____
ROOT
ATOM      1  C   UNL     1       7.844   7.249  18.394  0.00  0.00    +0.000 A 
ATOM      2  C   UNL     1       6.930   7.476  17.360  0.00  0.00    +0.000 A 
ATOM      3  C   UNL     1       5.946   6.523  17.062  0.00  0.00    +0.000 A 
ATOM      4  C   UNL     1       5.843   5.367  17.838  0.00  0.00    +0.000 A 
ATOM      5  C   UNL     1       6.728   5.167  18.899  0.00  0.00    +0.000 A 
ATOM      6  C   UNL     1       7.774   6.063  19.126  0.00  0.00    +0.000 A 
ENDROOT
BRANCH   1   9
ATOM      7  C   UNL     1       8.693   9.543  18.453  0.00  0.00    +0.000 C 
ATOM      8  O   UNL     1       7.781  10.032  17.794  0.00  0.00    +0.000 OA
ATOM      9  N   UNL     1       8.818   8.196  18.771  0.00  0.00    +0.000 N 
ATOM     10  H   UNL     1       9.324   8.004  19.627  0.00  0.00    +0.000 HD
BRANCH   7  11
ATOM     11  C   UNL     1       9.808  10.411  19.015  0.00  0.00    +0.000 C 
BRANCH  11  17
ATOM     12  C   UNL     1       7.895  17.082  19.182  0.00  0.00    +0.000 C 
ATOM     13  C   UNL     1       8.309  15.639  19.245  0.00  0.00    +0.000 A 
ATOM     14  C   UNL     1       8.720  14.957  18.089  0.00  0.00    +0.000 A 
ATOM     15  C   UNL     1       9.091  13.601  18.128  0.00  0.00    +0.000 A 
ATOM     16  C   UNL     1       9.049  12.915  19.355  0.00  0.00    +0.000 A 
ATOM     17  C   UNL     1       9.323  11.583  19.805  0.00  0.00    +0.000 A 
ATOM     18  C   UNL     1       9.097  11.604  21.168  0.00  0.00    +0.000 A 
ATOM     19  O   UNL     1       8.683  12.828  21.581  0.00  0.00    +0.000 OA
ATOM     20  C   UNL     1       8.655  13.629  20.483  0.00  0.00    +0.000 A 
ATOM     21  C   UNL     1       8.284  14.972  20.480  0.00  0.00    +0.000 A 
ENDBRANCH  11  17
ENDBRANCH   7  11
ENDBRANCH   1   9
BRANCH   4  22
ATOM     22  S   UNL     1       4.511   4.207  17.563  0.00  0.00    +0.000 S 
ATOM     23  O   UNL     1       4.376   4.077  16.126  0.00  0.00    +0.000 OA
ATOM     24  O   UNL     1       4.779   3.053  18.393  0.00  0.00    +0.000 OA
BRANCH  22  25
ATOM     25  N   UNL     1       3.116   4.951  18.161  0.00  0.00    +0.000 NA
ATOM     26  C   UNL     1       3.113   5.730  19.406  0.00  0.00    +0.000 C 
ATOM     27  C   UNL     1       2.506   4.955  20.569  0.00  0.00    +0.000 C 
ATOM     28  C   UNL     1       1.294   4.066  20.231  0.00  0.00    +0.000 C 
ATOM     29  C   UNL     1       1.199   2.902  21.231  0.00  0.00    +0.000 C 
ATOM     30  C   UNL     1       1.262   3.510  18.796  0.00  0.00    +0.000 C 
ATOM     31  C   UNL     1       1.785   4.489  17.762  0.00  0.00    +0.000 C 
ENDBRANCH  22  25
ENDBRANCH   4  22
TORSDOF 5
ENDMDL
MODEL 8
REMARK VINA RESULT:      -8.6      2.752      4.548
REMARK  Name = 
REMARK  7 active torsions:
REMARK  status: ('A' for Active; 'I' for Inactive)
REMARK    1  A    between atoms: C_1  and  C_2
REMARK    2  A    between atoms: C_6  and  C_7
REMARK    3  A    between atoms: C_7  and  C_8
REMARK    4  A    between atoms: N_10  and  C_11
REMARK    5  A    between atoms: C_14  and  S_15
REMARK    6  A    between atoms: S_15  and  N_18
REMARK    7  A    between atoms: C_21  and  C_22
REMARK                            x       y       z     vdW  Elec       q    Type
REMARK                         _______ _______ _______ _____ _____    ______ ____
ROOT
ATOM      1  C   UNL     1       2.126   8.104  18.701  0.00  0.00    +0.000 A 
ATOM      2  C   UNL     1       2.219   7.173  19.741  0.00  0.00    +0.000 A 
ATOM      3  C   UNL     1       3.127   6.107  19.658  0.00  0.00    +0.000 A 
ATOM      4  C   UNL     1       3.983   6.009  18.559  0.00  0.00    +0.000 A 
ATOM      5  C   UNL     1       3.918   6.969  17.546  0.00  0.00    +0.000 A 
ATOM      6  C   UNL     1       2.941   7.965  17.578  0.00  0.00    +0.000 A 
ENDROOT
BRANCH   1   9
ATOM      7  C   UNL     1       0.598   9.576  19.920  0.00  0.00    +0.000 C 
ATOM      8  O   UNL     1       0.636   8.951  20.975  0.00  0.00    +0.000 OA
ATOM      9  N   UNL     1       1.270   9.223  18.756  0.00  0.00    +0.000 N 
ATOM     10  H   UNL     1       1.502   9.997  18.145  0.00  0.00    +0.000 HD
BRANCH   7  11
ATOM     11  C   UNL     1      -0.215  10.856  19.794  0.00  0.00    +0.000 C 
BRANCH  11  17
ATOM     12  C   UNL     1       4.556  15.825  18.940  0.00  0.00    +0.000 C 
ATOM     13  C   UNL     1       3.515  14.778  19.221  0.00  0.00    +0.000 A 
ATOM     14  C   UNL     1       3.239  13.771  18.284  0.00  0.00    +0.000 A 
ATOM     15  C   UNL     1       2.253  12.795  18.521  0.00  0.00    +0.000 A 
ATOM     16  C   UNL     1       1.530  12.834  19.727  0.00  0.00    +0.000 A 
ATOM     17  C   UNL     1       0.479  12.068  20.327  0.00  0.00    +0.000 A 
ATOM     18  C   UNL     1       0.260  12.651  21.560  0.00  0.00    +0.000 A 
ATOM     19  O   UNL     1       1.068  13.723  21.750  0.00  0.00    +0.000 OA
ATOM     20  C   UNL     1       1.845  13.837  20.639  0.00  0.00    +0.000 A 
ATOM     21  C   UNL     1       2.816  14.815  20.437  0.00  0.00    +0.000 A 
ENDBRANCH  11  17
ENDBRANCH   7  11
ENDBRANCH   1   9
BRANCH   4  22
ATOM     22  S   UNL     1       5.240   4.741  18.500  0.00  0.00    +0.000 S 
ATOM     23  O   UNL     1       5.909   4.890  17.224  0.00  0.00    +0.000 OA
ATOM     24  O   UNL     1       5.978   4.821  19.742  0.00  0.00    +0.000 OA
BRANCH  22  25
ATOM     25  N   UNL     1       4.412   3.267  18.496  0.00  0.00    +0.000 NA
ATOM     26  C   UNL     1       3.339   2.971  17.539  0.00  0.00    +0.000 C 
ATOM     27  C   UNL     1       1.957   3.090  18.170  0.00  0.00    +0.000 C 
ATOM     28  C   UNL     1       1.831   2.594  19.624  0.00  0.00    +0.000 C 
ATOM     29  C   UNL     1       0.682   3.329  20.333  0.00  0.00    +0.000 C 
ATOM     30  C   UNL     1       3.110   2.707  20.473  0.00  0.00    +0.000 C 
ATOM     31  C   UNL     1       4.377   2.418  19.689  0.00  0.00    +0.000 C 
ENDBRANCH  22  25
ENDBRANCH   4  22
TORSDOF 5
ENDMDL
MODEL 9
REMARK VINA RESULT:      -8.6      2.401      3.410
REMARK  Name = 
REMARK  7 active torsions:
REMARK  status: ('A' for Active; 'I' for Inactive)
REMARK    1  A    between atoms: C_1  and  C_2
REMARK    2  A    between atoms: C_6  and  C_7
REMARK    3  A    between atoms: C_7  and  C_8
REMARK    4  A    between atoms: N_10  and  C_11
REMARK    5  A    between atoms: C_14  and  S_15
REMARK    6  A    between atoms: S_15  and  N_18
REMARK    7  A    between atoms: C_21  and  C_22
REMARK                            x       y       z     vdW  Elec       q    Type
REMARK                         _______ _______ _______ _____ _____    ______ ____
ROOT
ATOM      1  C   UNL     1       2.352   8.037  18.417  0.00  0.00    +0.000 A 
ATOM      2  C   UNL     1       2.354   7.175  19.518  0.00  0.00    +0.000 A 
ATOM      3  C   UNL     1       3.218   6.071  19.552  0.00  0.00    +0.000 A 
ATOM      4  C   UNL     1       4.121   5.866  18.506  0.00  0.00    +0.000 A 
ATOM      5  C   UNL     1       4.147   6.756  17.431  0.00  0.00    +0.000 A 
ATOM      6  C   UNL     1       3.213   7.790  17.347  0.00  0.00    +0.000 A 
ENDROOT
BRANCH   1   9
ATOM      7  C   UNL     1       0.795   9.621  19.443  0.00  0.00    +0.000 C 
ATOM      8  O   UNL     1       0.719   9.042  20.522  0.00  0.00    +0.000 OA
ATOM      9  N   UNL     1       1.543   9.191  18.354  0.00  0.00    +0.000 N 
ATOM     10  H   UNL     1       1.858   9.928  17.734  0.00  0.00    +0.000 HD
BRANCH   7  11
ATOM     11  C   UNL     1       0.051  10.925  19.199  0.00  0.00    +0.000 C 
BRANCH  11  17
ATOM     12  C   UNL     1      -3.008  14.263  24.461  0.00  0.00    +0.000 C 
ATOM     13  C   UNL     1      -2.268  13.602  23.333  0.00  0.00    +0.000 A 
ATOM     14  C   UNL     1      -2.910  12.675  22.498  0.00  0.00    +0.000 A 
ATOM     15  C   UNL     1      -2.226  12.031  21.450  0.00  0.00    +0.000 A 
ATOM     16  C   UNL     1      -0.868  12.327  21.237  0.00  0.00    +0.000 A 
ATOM     17  C   UNL     1       0.153  11.900  20.327  0.00  0.00    +0.000 A 
ATOM     18  C   UNL     1       1.276  12.630  20.669  0.00  0.00    +0.000 A 
ATOM     19  O   UNL     1       1.032  13.443  21.726  0.00  0.00    +0.000 OA
ATOM     20  C   UNL     1      -0.270  13.264  22.074  0.00  0.00    +0.000 A 
ATOM     21  C   UNL     1      -0.919  13.922  23.118  0.00  0.00    +0.000 A 
ENDBRANCH  11  17
ENDBRANCH   7  11
ENDBRANCH   1   9
BRANCH   4  22
ATOM     22  S   UNL     1       5.323   4.546  18.594  0.00  0.00    +0.000 S 
ATOM     23  O   UNL     1       6.053   4.577  17.343  0.00  0.00    +0.000 OA
ATOM     24  O   UNL     1       6.009   4.685  19.860  0.00  0.00    +0.000 OA
BRANCH  22  25
ATOM     25  N   UNL     1       4.434   3.110  18.653  0.00  0.00    +0.000 NA
ATOM     26  C   UNL     1       3.372   2.803  17.687  0.00  0.00    +0.000 C 
ATOM     27  C   UNL     1       1.981   3.016  18.273  0.00  0.00    +0.000 C 
ATOM     28  C   UNL     1       1.800   2.612  19.749  0.00  0.00    +0.000 C 
ATOM     29  C   UNL     1       0.667   3.434  20.385  0.00  0.00    +0.000 C 
ATOM     30  C   UNL     1       3.062   2.722  20.624  0.00  0.00    +0.000 C 
ATOM     31  C   UNL     1       4.334   2.335  19.892  0.00  0.00    +0.000 C 
ENDBRANCH  22  25
ENDBRANCH   4  22
TORSDOF 5
ENDMDL
