MODEL 1
REMARK VINA RESULT:      -7.2      0.000      0.000
REMARK  Name = 
REMARK  5 active torsions:
REMARK  status: ('A' for Active; 'I' for Inactive)
REMARK    1  A    between atoms: C_1  and  O_2
REMARK    2  A    between atoms: O_2  and  C_3
REMARK    3  A    between atoms: C_3  and  C_4
REMARK    4  A    between atoms: C_4  and  N_5
REMARK    5  A    between atoms: C_11  and  C_12
REMARK                            x       y       z     vdW  Elec       q    Type
REMARK                         _______ _______ _______ _____ _____    ______ ____
ROOT
ATOM      1  N   UNL     1       5.605   5.212  17.121  0.00  0.00    +0.000 N 
ATOM      2  C   UNL     1       5.088   4.789  18.316  0.00  0.00    +0.000 C 
ATOM      3  O   UNL     1       5.330   3.793  18.963  0.00  0.00    +0.000 OA
ATOM      4  C   UNL     1       4.078   5.777  18.698  0.00  0.00    +0.000 A 
ATOM      5  C   UNL     1       3.228   5.814  19.791  0.00  0.00    +0.000 A 
ATOM      6  C   UNL     1       2.307   6.872  19.868  0.00  0.00    +0.000 A 
ATOM      7  C   UNL     1       2.264   7.860  18.855  0.00  0.00    +0.000 A 
ATOM      8  C   UNL     1       3.138   7.790  17.754  0.00  0.00    +0.000 A 
ATOM      9  C   UNL     1       4.030   6.735  17.705  0.00  0.00    +0.000 A 
ATOM     10  C   UNL     1       5.009   6.362  16.682  0.00  0.00    +0.000 C 
ATOM     11  O   UNL     1       5.196   6.980  15.652  0.00  0.00    +0.000 OA
ENDROOT
BRANCH   7  12
ATOM     12  C   UNL     1       1.253   8.958  18.855  0.00  0.00    +0.000 C 
ATOM     13  O   UNL     1       1.029   9.499  17.778  0.00  0.00    +0.000 OA
ATOM     14  N   UNL     1       0.717   9.297  20.075  0.00  0.00    +0.000 N 
ATOM     15  C   UNL     1      -0.168  10.342  20.182  0.00  0.00    +0.000 A 
ATOM     16  N   UNL     1      -0.837  10.957  19.240  0.00  0.00    +0.000 NA
ATOM     17  C   UNL     1      -1.547  12.005  19.784  0.00  0.00    +0.000 A 
ATOM     18  C   UNL     1      -1.402  12.175  21.145  0.00  0.00    +0.000 A 
ATOM     19  S   UNL     1      -0.398  10.926  21.772  0.00  0.00    +0.000 S 
ATOM     20  H   UNL     1       1.084   8.931  20.940  0.00  0.00    +0.000 HD
ENDBRANCH   7  12
BRANCH   1  21
ATOM     21  C   UNL     1       6.617   4.479  16.372  0.00  0.00    +0.000 C 
BRANCH  21  22
ATOM     22  C   UNL     1       6.020   3.537  15.326  0.00  0.00    +0.000 C 
BRANCH  22  24
ATOM     23  C   UNL     1       7.219   4.820  13.758  0.00  0.00    +0.000 C 
ATOM     24  O   UNL     1       5.979   4.188  14.053  0.00  0.00    +0.000 OA
ENDBRANCH  22  24
ENDBRANCH  21  22
ENDBRANCH   1  21
TORSDOF 4
ENDMDL
MODEL 2
REMARK VINA RESULT:      -7.1      1.546      1.687
REMARK  Name = 
REMARK  5 active torsions:
REMARK  status: ('A' for Active; 'I' for Inactive)
REMARK    1  A    between atoms: C_1  and  O_2
REMARK    2  A    between atoms: O_2  and  C_3
REMARK    3  A    between atoms: C_3  and  C_4
REMARK    4  A    between atoms: C_4  and  N_5
REMARK    5  A    between atoms: C_11  and  C_12
REMARK                            x       y       z     vdW  Elec       q    Type
REMARK                         _______ _______ _______ _____ _____    ______ ____
ROOT
ATOM      1  N   UNL     1       4.663   4.732  17.292  0.00  0.00    +0.000 N 
ATOM      2  C   UNL     1       4.066   4.020  18.296  0.00  0.00    +0.000 C 
ATOM      3  O   UNL     1       4.087   2.830  18.529  0.00  0.00    +0.000 OA
ATOM      4  C   UNL     1       3.294   4.985  19.081  0.00  0.00    +0.000 A 
ATOM      5  C   UNL     1       2.472   4.794  20.180  0.00  0.00    +0.000 A 
ATOM      6  C   UNL     1       1.802   5.916  20.697  0.00  0.00    +0.000 A 
ATOM      7  C   UNL     1       1.974   7.190  20.104  0.00  0.00    +0.000 A 
ATOM      8  C   UNL     1       2.813   7.348  18.985  0.00  0.00    +0.000 A 
ATOM      9  C   UNL     1       3.455   6.226  18.498  0.00  0.00    +0.000 A 
ATOM     10  C   UNL     1       4.330   6.058  17.336  0.00  0.00    +0.000 C 
ATOM     11  O   UNL     1       4.646   6.956  16.578  0.00  0.00    +0.000 OA
ENDROOT
BRANCH   7  12
ATOM     12  C   UNL     1       1.225   8.394  20.571  0.00  0.00    +0.000 C 
ATOM     13  O   UNL     1       1.020   8.481  21.776  0.00  0.00    +0.000 OA
ATOM     14  N   UNL     1       0.784   9.257  19.595  0.00  0.00    +0.000 N 
ATOM     15  C   UNL     1       0.026  10.354  19.925  0.00  0.00    +0.000 A 
ATOM     16  N   UNL     1      -0.156  10.910  21.095  0.00  0.00    +0.000 NA
ATOM     17  C   UNL     1      -1.063  11.942  20.983  0.00  0.00    +0.000 A 
ATOM     18  C   UNL     1      -1.564  12.153  19.716  0.00  0.00    +0.000 A 
ATOM     19  S   UNL     1      -0.811  11.066  18.616  0.00  0.00    +0.000 S 
ATOM     20  H   UNL     1       0.834   9.025  18.615  0.00  0.00    +0.000 HD
ENDBRANCH   7  12
BRANCH   1  21
ATOM     21  C   UNL     1       5.492   4.132  16.256  0.00  0.00    +0.000 C 
BRANCH  21  22
ATOM     22  C   UNL     1       6.986   4.374  16.470  0.00  0.00    +0.000 C 
BRANCH  22  24
ATOM     23  C   UNL     1       6.719   4.696  14.153  0.00  0.00    +0.000 C 
ATOM     24  O   UNL     1       7.569   4.901  15.275  0.00  0.00    +0.000 OA
ENDBRANCH  22  24
ENDBRANCH  21  22
ENDBRANCH   1  21
TORSDOF 4
ENDMDL
MODEL 3
REMARK VINA RESULT:      -7.1      1.725      2.916
REMARK  Name = 
REMARK  5 active torsions:
REMARK  status: ('A' for Active; 'I' for Inactive)
REMARK    1  A    between atoms: C_1  and  O_2
REMARK    2  A    between atoms: O_2  and  C_3
REMARK    3  A    between atoms: C_3  and  C_4
REMARK    4  A    between atoms: C_4  and  N_5
REMARK    5  A    between atoms: C_11  and  C_12
REMARK                            x       y       z     vdW  Elec       q    Type
REMARK                         _______ _______ _______ _____ _____    ______ ____
ROOT
ATOM      1  N   UNL     1       5.029   5.177  17.389  0.00  0.00    +0.000 N 
ATOM      2  C   UNL     1       4.713   6.309  16.687  0.00  0.00    +0.000 C 
ATOM      3  O   UNL     1       5.147   6.720  15.633  0.00  0.00    +0.000 OA
ATOM      4  C   UNL     1       3.727   7.030  17.494  0.00  0.00    +0.000 A 
ATOM      5  C   UNL     1       3.107   8.249  17.273  0.00  0.00    +0.000 A 
ATOM      6  C   UNL     1       2.236   8.728  18.266  0.00  0.00    +0.000 A 
ATOM      7  C   UNL     1       2.009   7.977  19.444  0.00  0.00    +0.000 A 
ATOM      8  C   UNL     1       2.660   6.745  19.640  0.00  0.00    +0.000 A 
ATOM      9  C   UNL     1       3.514   6.302  18.647  0.00  0.00    +0.000 A 
ATOM     10  C   UNL     1       4.364   5.111  18.583  0.00  0.00    +0.000 C 
ATOM     11  O   UNL     1       4.440   4.273  19.460  0.00  0.00    +0.000 OA
ENDROOT
BRANCH   7  12
ATOM     12  C   UNL     1       1.153   8.481  20.558  0.00  0.00    +0.000 C 
ATOM     13  O   UNL     1       0.687   7.640  21.317  0.00  0.00    +0.000 OA
ATOM     14  N   UNL     1       0.921   9.837  20.587  0.00  0.00    +0.000 N 
ATOM     15  C   UNL     1       0.089  10.381  21.534  0.00  0.00    +0.000 A 
ATOM     16  N   UNL     1      -0.356   9.852  22.645  0.00  0.00    +0.000 NA
ATOM     17  C   UNL     1      -1.236  10.721  23.253  0.00  0.00    +0.000 A 
ATOM     18  C   UNL     1      -1.450  11.909  22.586  0.00  0.00    +0.000 A 
ATOM     19  S   UNL     1      -0.453  11.965  21.186  0.00  0.00    +0.000 S 
ATOM     20  H   UNL     1       1.189  10.441  19.826  0.00  0.00    +0.000 HD
ENDBRANCH   7  12
BRANCH   1  21
ATOM     21  C   UNL     1       6.015   4.200  16.949  0.00  0.00    +0.000 C 
BRANCH  21  22
ATOM     22  C   UNL     1       7.455   4.653  17.192  0.00  0.00    +0.000 C 
BRANCH  22  24
ATOM     23  C   UNL     1       7.941   5.846  19.163  0.00  0.00    +0.000 C 
ATOM     24  O   UNL     1       7.766   4.558  18.585  0.00  0.00    +0.000 OA
ENDBRANCH  22  24
ENDBRANCH  21  22
ENDBRANCH   1  21
TORSDOF 4
ENDMDL
MODEL 4
REMARK VINA RESULT:      -7.1      1.827      2.246
REMARK  Name = 
REMARK  5 active torsions:
REMARK  status: ('A' for Active; 'I' for Inactive)
REMARK    1  A    between atoms: C_1  and  O_2
REMARK    2  A    between atoms: O_2  and  C_3
REMARK    3  A    between atoms: C_3  and  C_4
REMARK    4  A    between atoms: C_4  and  N_5
REMARK    5  A    between atoms: C_11  and  C_12
REMARK                            x       y       z     vdW  Elec       q    Type
REMARK                         _______ _______ _______ _____ _____    ______ ____
ROOT
ATOM      1  N   UNL     1       5.151   5.093  17.268  0.00  0.00    +0.000 N 
ATOM      2  C   UNL     1       4.535   4.703  18.427  0.00  0.00    +0.000 C 
ATOM      3  O   UNL     1       4.632   3.670  19.053  0.00  0.00    +0.000 OA
ATOM      4  C   UNL     1       3.631   5.793  18.797  0.00  0.00    +0.000 A 
ATOM      5  C   UNL     1       2.743   5.901  19.855  0.00  0.00    +0.000 A 
ATOM      6  C   UNL     1       1.948   7.058  19.925  0.00  0.00    +0.000 A 
ATOM      7  C   UNL     1       2.065   8.069  18.941  0.00  0.00    +0.000 A 
ATOM      8  C   UNL     1       2.974   7.925  17.876  0.00  0.00    +0.000 A 
ATOM      9  C   UNL     1       3.739   6.774  17.832  0.00  0.00    +0.000 A 
ATOM     10  C   UNL     1       4.712   6.315  16.840  0.00  0.00    +0.000 C 
ATOM     11  O   UNL     1       5.015   6.933  15.837  0.00  0.00    +0.000 OA
ENDROOT
BRANCH   7  12
ATOM     12  C   UNL     1       1.189   9.277  18.932  0.00  0.00    +0.000 C 
ATOM     13  O   UNL     1       1.407  10.121  19.794  0.00  0.00    +0.000 OA
ATOM     14  N   UNL     1       0.182   9.297  17.995  0.00  0.00    +0.000 N 
ATOM     15  C   UNL     1      -0.716  10.335  17.958  0.00  0.00    +0.000 A 
ATOM     16  N   UNL     1      -0.639  11.514  18.520  0.00  0.00    +0.000 NA
ATOM     17  C   UNL     1      -1.804  12.214  18.293  0.00  0.00    +0.000 A 
ATOM     18  C   UNL     1      -2.760  11.548  17.557  0.00  0.00    +0.000 A 
ATOM     19  S   UNL     1      -2.142  10.018  17.070  0.00  0.00    +0.000 S 
ATOM     20  H   UNL     1      -0.048   8.486  17.441  0.00  0.00    +0.000 HD
ENDBRANCH   7  12
BRANCH   1  21
ATOM     21  C   UNL     1       6.103   4.266  16.540  0.00  0.00    +0.000 C 
BRANCH  21  22
ATOM     22  C   UNL     1       7.559   4.620  16.845  0.00  0.00    +0.000 C 
BRANCH  22  24
ATOM     23  C   UNL     1       7.988   5.655  18.915  0.00  0.00    +0.000 C 
ATOM     24  O   UNL     1       7.828   4.416  18.234  0.00  0.00    +0.000 OA
ENDBRANCH  22  24
ENDBRANCH  21  22
ENDBRANCH   1  21
TORSDOF 4
ENDMDL
MODEL 5
REMARK VINA RESULT:      -7.0      1.200      1.242
REMARK  Name = 
REMARK  5 active torsions:
REMARK  status: ('A' for Active; 'I' for Inactive)
REMARK    1  A    between atoms: C_1  and  O_2
REMARK    2  A    between atoms: O_2  and  C_3
REMARK    3  A    between atoms: C_3  and  C_4
REMARK    4  A    between atoms: C_4  and  N_5
REMARK    5  A    between atoms: C_11  and  C_12
REMARK                            x       y       z     vdW  Elec       q    Type
REMARK                         _______ _______ _______ _____ _____    ______ ____
ROOT
ATOM      1  N   UNL     1       5.672   4.833  16.500  0.00  0.00    +0.000 N 
ATOM      2  C   UNL     1       4.569   4.205  17.013  0.00  0.00    +0.000 C 
ATOM      3  O   UNL     1       4.283   3.027  17.039  0.00  0.00    +0.000 OA
ATOM      4  C   UNL     1       3.694   5.263  17.522  0.00  0.00    +0.000 A 
ATOM      5  C   UNL     1       2.440   5.185  18.103  0.00  0.00    +0.000 A 
ATOM      6  C   UNL     1       1.802   6.391  18.445  0.00  0.00    +0.000 A 
ATOM      7  C   UNL     1       2.437   7.632  18.199  0.00  0.00    +0.000 A 
ATOM      8  C   UNL     1       3.710   7.675  17.602  0.00  0.00    +0.000 A 
ATOM      9  C   UNL     1       4.310   6.473  17.273  0.00  0.00    +0.000 A 
ATOM     10  C   UNL     1       5.581   6.194  16.603  0.00  0.00    +0.000 C 
ATOM     11  O   UNL     1       6.355   7.048  16.214  0.00  0.00    +0.000 OA
ENDROOT
BRANCH   7  12
ATOM     12  C   UNL     1       1.768   8.937  18.474  0.00  0.00    +0.000 C 
ATOM     13  O   UNL     1       1.871   9.801  17.611  0.00  0.00    +0.000 OA
ATOM     14  N   UNL     1       1.153   9.064  19.698  0.00  0.00    +0.000 N 
ATOM     15  C   UNL     1       0.572  10.253  20.066  0.00  0.00    +0.000 A 
ATOM     16  N   UNL     1       0.251  11.281  19.323  0.00  0.00    +0.000 NA
ATOM     17  C   UNL     1      -0.232  12.297  20.118  0.00  0.00    +0.000 A 
ATOM     18  C   UNL     1      -0.266  12.024  21.470  0.00  0.00    +0.000 A 
ATOM     19  S   UNL     1       0.255  10.407  21.739  0.00  0.00    +0.000 S 
ATOM     20  H   UNL     1       1.266   8.376  20.426  0.00  0.00    +0.000 HD
ENDBRANCH   7  12
BRANCH   1  21
ATOM     21  C   UNL     1       6.772   4.135  15.851  0.00  0.00    +0.000 C 
BRANCH  21  22
ATOM     22  C   UNL     1       6.873   4.435  14.355  0.00  0.00    +0.000 C 
BRANCH  22  24
ATOM     23  C   UNL     1       6.182   3.391  12.361  0.00  0.00    +0.000 C 
ATOM     24  O   UNL     1       5.788   3.814  13.661  0.00  0.00    +0.000 OA
ENDBRANCH  22  24
ENDBRANCH  21  22
ENDBRANCH   1  21
TORSDOF 4
ENDMDL
MODEL 6
REMARK VINA RESULT:      -7.0      2.655      3.859
REMARK  Name = 
REMARK  5 active torsions:
REMARK  status: ('A' for Active; 'I' for Inactive)
REMARK    1  A    between atoms: C_1  and  O_2
REMARK    2  A    between atoms: O_2  and  C_3
REMARK    3  A    between atoms: C_3  and  C_4
REMARK    4  A    between atoms: C_4  and  N_5
REMARK    5  A    between atoms: C_11  and  C_12
REMARK                            x       y       z     vdW  Elec       q    Type
REMARK                         _______ _______ _______ _____ _____    ______ ____
ROOT
ATOM      1  N   UNL     1       3.393   4.720  19.080  0.00  0.00    +0.000 N 
ATOM      2  C   UNL     1       3.434   5.707  18.132  0.00  0.00    +0.000 C 
ATOM      3  O   UNL     1       3.999   5.736  17.060  0.00  0.00    +0.000 OA
ATOM      4  C   UNL     1       2.673   6.832  18.678  0.00  0.00    +0.000 A 
ATOM      5  C   UNL     1       2.433   8.090  18.152  0.00  0.00    +0.000 A 
ATOM      6  C   UNL     1       1.707   9.000  18.940  0.00  0.00    +0.000 A 
ATOM      7  C   UNL     1       1.240   8.624  20.222  0.00  0.00    +0.000 A 
ATOM      8  C   UNL     1       1.505   7.338  20.728  0.00  0.00    +0.000 A 
ATOM      9  C   UNL     1       2.226   6.468  19.932  0.00  0.00    +0.000 A 
ATOM     10  C   UNL     1       2.702   5.109  20.195  0.00  0.00    +0.000 C 
ATOM     11  O   UNL     1       2.510   4.501  21.231  0.00  0.00    +0.000 OA
ENDROOT
BRANCH   7  12
ATOM     12  C   UNL     1       0.531   9.580  21.124  0.00  0.00    +0.000 C 
ATOM     13  O   UNL     1      -0.202   9.091  21.975  0.00  0.00    +0.000 OA
ATOM     14  N   UNL     1       0.723  10.918  20.870  0.00  0.00    +0.000 N 
ATOM     15  C   UNL     1       0.057  11.869  21.604  0.00  0.00    +0.000 A 
ATOM     16  N   UNL     1      -0.576  11.740  22.742  0.00  0.00    +0.000 NA
ATOM     17  C   UNL     1      -1.174  12.936  23.078  0.00  0.00    +0.000 A 
ATOM     18  C   UNL     1      -0.987  13.964  22.179  0.00  0.00    +0.000 A 
ATOM     19  S   UNL     1       0.039  13.429  20.906  0.00  0.00    +0.000 S 
ATOM     20  H   UNL     1       1.195  11.242  20.040  0.00  0.00    +0.000 HD
ENDBRANCH   7  12
BRANCH   1  21
ATOM     21  C   UNL     1       4.071   3.439  18.945  0.00  0.00    +0.000 C 
BRANCH  21  22
ATOM     22  C   UNL     1       3.243   2.401  18.186  0.00  0.00    +0.000 C 
BRANCH  22  24
ATOM     23  C   UNL     1       0.971   2.202  18.769  0.00  0.00    +0.000 C 
ATOM     24  O   UNL     1       2.299   1.791  19.070  0.00  0.00    +0.000 OA
ENDBRANCH  22  24
ENDBRANCH  21  22
ENDBRANCH   1  21
TORSDOF 4
ENDMDL
MODEL 7
REMARK VINA RESULT:      -6.9      1.221      1.354
REMARK  Name = 
REMARK  5 active torsions:
REMARK  status: ('A' for Active; 'I' for Inactive)
REMARK    1  A    between atoms: C_1  and  O_2
REMARK    2  A    between atoms: O_2  and  C_3
REMARK    3  A    between atoms: C_3  and  C_4
REMARK    4  A    between atoms: C_4  and  N_5
REMARK    5  A    between atoms: C_11  and  C_12
REMARK                            x       y       z     vdW  Elec       q    Type
REMARK                         _______ _______ _______ _____ _____    ______ ____
ROOT
ATOM      1  N   UNL     1       4.673   4.902  17.658  0.00  0.00    +0.000 N 
ATOM      2  C   UNL     1       4.047   4.383  18.760  0.00  0.00    +0.000 C 
ATOM      3  O   UNL     1       4.085   3.265  19.225  0.00  0.00    +0.000 OA
ATOM      4  C   UNL     1       3.217   5.460  19.305  0.00  0.00    +0.000 A 
ATOM      5  C   UNL     1       2.351   5.463  20.386  0.00  0.00    +0.000 A 
ATOM      6  C   UNL     1       1.632   6.643  20.642  0.00  0.00    +0.000 A 
ATOM      7  C   UNL     1       1.801   7.780  19.815  0.00  0.00    +0.000 A 
ATOM      8  C   UNL     1       2.686   7.740  18.722  0.00  0.00    +0.000 A 
ATOM      9  C   UNL     1       3.376   6.565  18.493  0.00  0.00    +0.000 A 
ATOM     10  C   UNL     1       4.307   6.199  17.424  0.00  0.00    +0.000 C 
ATOM     11  O   UNL     1       4.637   6.939  16.517  0.00  0.00    +0.000 OA
ENDROOT
BRANCH   7  12
ATOM     12  C   UNL     1       1.003   9.027  20.003  0.00  0.00    +0.000 C 
ATOM     13  O   UNL     1       1.101   9.879  19.128  0.00  0.00    +0.000 OA
ATOM     14  N   UNL     1       0.284   9.124  21.171  0.00  0.00    +0.000 N 
ATOM     15  C   UNL     1      -0.424  10.265  21.462  0.00  0.00    +0.000 A 
ATOM     16  N   UNL     1      -0.772  11.246  20.668  0.00  0.00    +0.000 NA
ATOM     17  C   UNL     1      -1.401  12.231  21.396  0.00  0.00    +0.000 A 
ATOM     18  C   UNL     1      -1.520  11.984  22.748  0.00  0.00    +0.000 A 
ATOM     19  S   UNL     1      -0.886  10.424  23.100  0.00  0.00    +0.000 S 
ATOM     20  H   UNL     1       0.397   8.463  21.924  0.00  0.00    +0.000 HD
ENDBRANCH   7  12
BRANCH   1  21
ATOM     21  C   UNL     1       5.562   4.136  16.797  0.00  0.00    +0.000 C 
BRANCH  21  22
ATOM     22  C   UNL     1       7.026   4.561  16.918  0.00  0.00    +0.000 C 
BRANCH  22  24
ATOM     23  C   UNL     1       6.851   4.825  14.585  0.00  0.00    +0.000 C 
ATOM     24  O   UNL     1       7.684   4.402  15.658  0.00  0.00    +0.000 OA
ENDBRANCH  22  24
ENDBRANCH  21  22
ENDBRANCH   1  21
TORSDOF 4
ENDMDL
MODEL 8
REMARK VINA RESULT:      -6.9      2.219      3.389
REMARK  Name = 
REMARK  5 active torsions:
REMARK  status: ('A' for Active; 'I' for Inactive)
REMARK    1  A    between atoms: C_1  and  O_2
REMARK    2  A    between atoms: O_2  and  C_3
REMARK    3  A    between atoms: C_3  and  C_4
REMARK    4  A    between atoms: C_4  and  N_5
REMARK    5  A    between atoms: C_11  and  C_12
REMARK                            x       y       z     vdW  Elec       q    Type
REMARK                         _______ _______ _______ _____ _____    ______ ____
ROOT
ATOM      1  N   UNL     1       3.719   4.335  19.310  0.00  0.00    +0.000 N 
ATOM      2  C   UNL     1       4.053   5.074  18.208  0.00  0.00    +0.000 C 
ATOM      3  O   UNL     1       4.819   4.825  17.303  0.00  0.00    +0.000 OA
ATOM      4  C   UNL     1       3.321   6.337  18.325  0.00  0.00    +0.000 A 
ATOM      5  C   UNL     1       3.326   7.454  17.506  0.00  0.00    +0.000 A 
ATOM      6  C   UNL     1       2.557   8.561  17.907  0.00  0.00    +0.000 A 
ATOM      7  C   UNL     1       1.808   8.516  19.107  0.00  0.00    +0.000 A 
ATOM      8  C   UNL     1       1.829   7.367  19.918  0.00  0.00    +0.000 A 
ATOM      9  C   UNL     1       2.598   6.297  19.500  0.00  0.00    +0.000 A 
ATOM     10  C   UNL     1       2.865   5.008  20.141  0.00  0.00    +0.000 C 
ATOM     11  O   UNL     1       2.408   4.666  21.214  0.00  0.00    +0.000 OA
ENDROOT
BRANCH   7  12
ATOM     12  C   UNL     1       1.039   9.693  19.610  0.00  0.00    +0.000 C 
ATOM     13  O   UNL     1       1.138  10.730  18.967  0.00  0.00    +0.000 OA
ATOM     14  N   UNL     1       0.343   9.513  20.784  0.00  0.00    +0.000 N 
ATOM     15  C   UNL     1      -0.335  10.559  21.359  0.00  0.00    +0.000 A 
ATOM     16  N   UNL     1      -0.678  11.708  20.836  0.00  0.00    +0.000 NA
ATOM     17  C   UNL     1      -1.274  12.496  21.797  0.00  0.00    +0.000 A 
ATOM     18  C   UNL     1      -1.373  11.929  23.049  0.00  0.00    +0.000 A 
ATOM     19  S   UNL     1      -0.763  10.321  22.997  0.00  0.00    +0.000 S 
ATOM     20  H   UNL     1       0.457   8.687  21.351  0.00  0.00    +0.000 HD
ENDBRANCH   7  12
BRANCH   1  21
ATOM     21  C   UNL     1       4.271   3.019  19.600  0.00  0.00    +0.000 C 
BRANCH  21  22
ATOM     22  C   UNL     1       3.655   1.910  18.745  0.00  0.00    +0.000 C 
BRANCH  22  24
ATOM     23  C   UNL     1       1.305   1.982  18.873  0.00  0.00    +0.000 C 
ATOM     24  O   UNL     1       2.452   2.382  18.132  0.00  0.00    +0.000 OA
ENDBRANCH  22  24
ENDBRANCH  21  22
ENDBRANCH   1  21
TORSDOF 4
ENDMDL
MODEL 9
REMARK VINA RESULT:      -6.9      1.831      2.149
REMARK  Name = 
REMARK  5 active torsions:
REMARK  status: ('A' for Active; 'I' for Inactive)
REMARK    1  A    between atoms: C_1  and  O_2
REMARK    2  A    between atoms: O_2  and  C_3
REMARK    3  A    between atoms: C_3  and  C_4
REMARK    4  A    between atoms: C_4  and  N_5
REMARK    5  A    between atoms: C_11  and  C_12
REMARK                            x       y       z     vdW  Elec       q    Type
REMARK                         _______ _______ _______ _____ _____    ______ ____
ROOT
ATOM      1  N   UNL     1       4.608   4.805  17.496  0.00  0.00    +0.000 N 
ATOM      2  C   UNL     1       4.006   4.105  18.507  0.00  0.00    +0.000 C 
ATOM      3  O   UNL     1       4.042   2.922  18.768  0.00  0.00    +0.000 OA
ATOM      4  C   UNL     1       3.206   5.075  19.258  0.00  0.00    +0.000 A 
ATOM      5  C   UNL     1       2.371   4.896  20.347  0.00  0.00    +0.000 A 
ATOM      6  C   UNL     1       1.674   6.018  20.828  0.00  0.00    +0.000 A 
ATOM      7  C   UNL     1       1.835   7.281  20.210  0.00  0.00    +0.000 A 
ATOM      8  C   UNL     1       2.689   7.427  19.100  0.00  0.00    +0.000 A 
ATOM      9  C   UNL     1       3.357   6.305  18.649  0.00  0.00    +0.000 A 
ATOM     10  C   UNL     1       4.253   6.126  17.504  0.00  0.00    +0.000 C 
ATOM     11  O   UNL     1       4.567   7.011  16.732  0.00  0.00    +0.000 OA
ENDROOT
BRANCH   7  12
ATOM     12  C   UNL     1       1.059   8.482  20.637  0.00  0.00    +0.000 C 
ATOM     13  O   UNL     1       0.813   8.581  21.833  0.00  0.00    +0.000 OA
ATOM     14  N   UNL     1       0.643   9.330  19.637  0.00  0.00    +0.000 N 
ATOM     15  C   UNL     1      -0.136  10.423  19.928  0.00  0.00    +0.000 A 
ATOM     16  N   UNL     1      -0.362  10.991  21.085  0.00  0.00    +0.000 NA
ATOM     17  C   UNL     1      -1.275  12.012  20.930  0.00  0.00    +0.000 A 
ATOM     18  C   UNL     1      -1.736  12.203  19.645  0.00  0.00    +0.000 A 
ATOM     19  S   UNL     1      -0.936  11.112  18.583  0.00  0.00    +0.000 S 
ATOM     20  H   UNL     1       0.727   9.087  18.661  0.00  0.00    +0.000 HD
ENDBRANCH   7  12
BRANCH   1  21
ATOM     21  C   UNL     1       5.462   4.195  16.487  0.00  0.00    +0.000 C 
BRANCH  21  22
ATOM     22  C   UNL     1       6.948   4.489  16.704  0.00  0.00    +0.000 C 
BRANCH  22  24
ATOM     23  C   UNL     1       7.739   5.651  18.592  0.00  0.00    +0.000 C 
ATOM     24  O   UNL     1       7.261   4.406  18.097  0.00  0.00    +0.000 OA
ENDBRANCH  22  24
ENDBRANCH  21  22
ENDBRANCH   1  21
TORSDOF 4
ENDMDL
