MODEL 1
REMARK VINA RESULT:      -6.9      0.000      0.000
REMARK  Name = 
REMARK  8 active torsions:
REMARK  status: ('A' for Active; 'I' for Inactive)
REMARK    1  A    between atoms: C_1  and  N_2
REMARK    2  A    between atoms: C_3  and  C_5
REMARK    3  A    between atoms: C_5  and  C_6
REMARK    4  A    between atoms: C_6  and  C_7
REMARK    5  A    between atoms: C_9  and  C_10
REMARK    6  A    between atoms: C_10  and  O_11
REMARK    7  A    between atoms: O_11  and  C_12
REMARK    8  A    between atoms: C_19  and  C_20
REMARK                            x       y       z     vdW  Elec       q    Type
REMARK                         _______ _______ _______ _____ _____    ______ ____
ROOT
ATOM      1  C   UNL     1       3.887   6.187  17.681  0.00  0.00    +0.000 A 
ATOM      2  N   UNL     1       3.742   7.425  17.239  0.00  0.00    +0.000 NA
ATOM      3  C   UNL     1       2.694   7.912  17.976  0.00  0.00    +0.000 A 
ATOM      4  N   UNL     1       2.160   7.039  18.830  0.00  0.00    +0.000 NA
ATOM      5  N   UNL     1       2.980   5.963  18.709  0.00  0.00    +0.000 N 
ATOM      6  C   UNL     1       2.830   4.836  19.563  0.00  0.00    +0.000 A 
ATOM      7  C   UNL     1       1.798   4.833  20.500  0.00  0.00    +0.000 A 
ATOM      8  C   UNL     1       1.682   3.744  21.357  0.00  0.00    +0.000 A 
ATOM      9  C   UNL     1       2.589   2.696  21.254  0.00  0.00    +0.000 A 
ATOM     10  C   UNL     1       3.585   2.761  20.289  0.00  0.00    +0.000 A 
ATOM     11  C   UNL     1       4.581   1.658  20.108  0.00  0.00    +0.000 C 
ATOM     12  N   UNL     1       3.708   3.812  19.447  0.00  0.00    +0.000 NA
ENDROOT
BRANCH   1  13
ATOM     13  C   UNL     1       4.821   5.166  17.102  0.00  0.00    +0.000 C 
BRANCH  13  14
ATOM     14  C   UNL     1       5.927   5.859  16.307  0.00  0.00    +0.000 C 
BRANCH  14  17
ATOM     15  C   UNL     1       8.088   8.537  17.865  0.00  0.00    +0.000 C 
ATOM     16  N   UNL     1       7.120   7.798  17.095  0.00  0.00    +0.000 N 
ATOM     17  C   UNL     1       7.021   6.425  17.185  0.00  0.00    +0.000 C 
ATOM     18  O   UNL     1       7.744   5.741  17.903  0.00  0.00    +0.000 OA
ATOM     19  H   UNL     1       6.477   8.307  16.502  0.00  0.00    +0.000 HD
ENDBRANCH  14  17
ENDBRANCH  13  14
ENDBRANCH   1  13
BRANCH   3  20
ATOM     20  C   UNL     1       2.197   9.318  17.868  0.00  0.00    +0.000 C 
BRANCH  20  21
ATOM     21  O   UNL     1       0.764   9.439  17.900  0.00  0.00    +0.000 OA
ATOM     22  C   UNL     1       0.307  10.181  19.024  0.00  0.00    +0.000 C 
ENDBRANCH  20  21
ENDBRANCH   3  20
TORSDOF 5
ENDMDL
MODEL 2
REMARK VINA RESULT:      -6.9      2.264      5.207
REMARK  Name = 
REMARK  8 active torsions:
REMARK  status: ('A' for Active; 'I' for Inactive)
REMARK    1  A    between atoms: C_1  and  N_2
REMARK    2  A    between atoms: C_3  and  C_5
REMARK    3  A    between atoms: C_5  and  C_6
REMARK    4  A    between atoms: C_6  and  C_7
REMARK    5  A    between atoms: C_9  and  C_10
REMARK    6  A    between atoms: C_10  and  O_11
REMARK    7  A    between atoms: O_11  and  C_12
REMARK    8  A    between atoms: C_19  and  C_20
REMARK                            x       y       z     vdW  Elec       q    Type
REMARK                         _______ _______ _______ _____ _____    ______ ____
ROOT
ATOM      1  C   UNL     1       4.780   5.860  16.952  0.00  0.00    +0.000 A 
ATOM      2  N   UNL     1       5.571   6.113  15.923  0.00  0.00    +0.000 NA
ATOM      3  C   UNL     1       5.847   4.871  15.412  0.00  0.00    +0.000 A 
ATOM      4  N   UNL     1       5.297   3.858  16.082  0.00  0.00    +0.000 NA
ATOM      5  N   UNL     1       4.539   4.493  17.014  0.00  0.00    +0.000 N 
ATOM      6  C   UNL     1       3.671   3.758  17.867  0.00  0.00    +0.000 A 
ATOM      7  C   UNL     1       3.642   2.369  17.763  0.00  0.00    +0.000 A 
ATOM      8  C   UNL     1       2.762   1.660  18.574  0.00  0.00    +0.000 A 
ATOM      9  C   UNL     1       1.945   2.352  19.461  0.00  0.00    +0.000 A 
ATOM     10  C   UNL     1       2.037   3.736  19.520  0.00  0.00    +0.000 A 
ATOM     11  C   UNL     1       1.204   4.542  20.467  0.00  0.00    +0.000 C 
ATOM     12  N   UNL     1       2.889   4.437  18.739  0.00  0.00    +0.000 NA
ENDROOT
BRANCH   1  13
ATOM     13  C   UNL     1       4.298   6.878  17.942  0.00  0.00    +0.000 C 
BRANCH  13  14
ATOM     14  C   UNL     1       3.174   7.712  17.330  0.00  0.00    +0.000 C 
BRANCH  14  17
ATOM     15  C   UNL     1       0.503   9.997  18.712  0.00  0.00    +0.000 C 
ATOM     16  N   UNL     1       1.485   9.334  17.891  0.00  0.00    +0.000 N 
ATOM     17  C   UNL     1       2.217   8.265  18.362  0.00  0.00    +0.000 C 
ATOM     18  O   UNL     1       2.100   7.813  19.497  0.00  0.00    +0.000 OA
ATOM     19  H   UNL     1       1.611   9.645  16.936  0.00  0.00    +0.000 HD
ENDBRANCH  14  17
ENDBRANCH  13  14
ENDBRANCH   1  13
BRANCH   3  20
ATOM     20  C   UNL     1       6.669   4.652  14.183  0.00  0.00    +0.000 C 
BRANCH  20  21
ATOM     21  O   UNL     1       7.815   5.517  14.080  0.00  0.00    +0.000 OA
ATOM     22  C   UNL     1       8.283   5.639  12.742  0.00  0.00    +0.000 C 
ENDBRANCH  20  21
ENDBRANCH   3  20
TORSDOF 5
ENDMDL
MODEL 3
REMARK VINA RESULT:      -6.9      2.401      5.252
REMARK  Name = 
REMARK  8 active torsions:
REMARK  status: ('A' for Active; 'I' for Inactive)
REMARK    1  A    between atoms: C_1  and  N_2
REMARK    2  A    between atoms: C_3  and  C_5
REMARK    3  A    between atoms: C_5  and  C_6
REMARK    4  A    between atoms: C_6  and  C_7
REMARK    5  A    between atoms: C_9  and  C_10
REMARK    6  A    between atoms: C_10  and  O_11
REMARK    7  A    between atoms: O_11  and  C_12
REMARK    8  A    between atoms: C_19  and  C_20
REMARK                            x       y       z     vdW  Elec       q    Type
REMARK                         _______ _______ _______ _____ _____    ______ ____
ROOT
ATOM      1  C   UNL     1       4.673   5.877  16.959  0.00  0.00    +0.000 A 
ATOM      2  N   UNL     1       5.444   6.137  15.917  0.00  0.00    +0.000 NA
ATOM      3  C   UNL     1       5.750   4.895  15.422  0.00  0.00    +0.000 A 
ATOM      4  N   UNL     1       5.237   3.878  16.114  0.00  0.00    +0.000 NA
ATOM      5  N   UNL     1       4.472   4.505  17.045  0.00  0.00    +0.000 N 
ATOM      6  C   UNL     1       3.636   3.758  17.920  0.00  0.00    +0.000 A 
ATOM      7  C   UNL     1       3.646   2.367  17.837  0.00  0.00    +0.000 A 
ATOM      8  C   UNL     1       2.796   1.647  18.670  0.00  0.00    +0.000 A 
ATOM      9  C   UNL     1       1.970   2.328  19.555  0.00  0.00    +0.000 A 
ATOM     10  C   UNL     1       2.022   3.715  19.592  0.00  0.00    +0.000 A 
ATOM     11  C   UNL     1       1.177   4.511  20.537  0.00  0.00    +0.000 C 
ATOM     12  N   UNL     1       2.845   4.428  18.791  0.00  0.00    +0.000 NA
ENDROOT
BRANCH   1  13
ATOM     13  C   UNL     1       4.172   6.896  17.939  0.00  0.00    +0.000 C 
BRANCH  13  14
ATOM     14  C   UNL     1       3.031   7.701  17.321  0.00  0.00    +0.000 C 
BRANCH  14  17
ATOM     15  C   UNL     1       1.409   8.202  20.695  0.00  0.00    +0.000 C 
ATOM     16  N   UNL     1       2.168   7.718  19.569  0.00  0.00    +0.000 N 
ATOM     17  C   UNL     1       2.149   8.368  18.353  0.00  0.00    +0.000 C 
ATOM     18  O   UNL     1       1.488   9.379  18.137  0.00  0.00    +0.000 OA
ATOM     19  H   UNL     1       2.753   6.901  19.690  0.00  0.00    +0.000 HD
ENDBRANCH  14  17
ENDBRANCH  13  14
ENDBRANCH   1  13
BRANCH   3  20
ATOM     20  C   UNL     1       6.564   4.681  14.187  0.00  0.00    +0.000 C 
BRANCH  20  21
ATOM     21  O   UNL     1       5.969   3.778  13.238  0.00  0.00    +0.000 OA
ATOM     22  C   UNL     1       6.777   3.592  12.084  0.00  0.00    +0.000 C 
ENDBRANCH  20  21
ENDBRANCH   3  20
TORSDOF 5
ENDMDL
MODEL 4
REMARK VINA RESULT:      -6.9      3.013      4.852
REMARK  Name = 
REMARK  8 active torsions:
REMARK  status: ('A' for Active; 'I' for Inactive)
REMARK    1  A    between atoms: C_1  and  N_2
REMARK    2  A    between atoms: C_3  and  C_5
REMARK    3  A    between atoms: C_5  and  C_6
REMARK    4  A    between atoms: C_6  and  C_7
REMARK    5  A    between atoms: C_9  and  C_10
REMARK    6  A    between atoms: C_10  and  O_11
REMARK    7  A    between atoms: O_11  and  C_12
REMARK    8  A    between atoms: C_19  and  C_20
REMARK                            x       y       z     vdW  Elec       q    Type
REMARK                         _______ _______ _______ _____ _____    ______ ____
ROOT
ATOM      1  C   UNL     1       6.761   5.689  16.803  0.00  0.00    +0.000 A 
ATOM      2  N   UNL     1       7.755   6.561  16.865  0.00  0.00    +0.000 NA
ATOM      3  C   UNL     1       7.160   7.695  17.356  0.00  0.00    +0.000 A 
ATOM      4  N   UNL     1       5.849   7.588  17.573  0.00  0.00    +0.000 NA
ATOM      5  N   UNL     1       5.608   6.278  17.307  0.00  0.00    +0.000 N 
ATOM      6  C   UNL     1       4.326   5.713  17.547  0.00  0.00    +0.000 A 
ATOM      7  C   UNL     1       3.305   6.535  18.020  0.00  0.00    +0.000 A 
ATOM      8  C   UNL     1       2.065   5.965  18.289  0.00  0.00    +0.000 A 
ATOM      9  C   UNL     1       1.879   4.605  18.078  0.00  0.00    +0.000 A 
ATOM     10  C   UNL     1       2.938   3.849  17.593  0.00  0.00    +0.000 A 
ATOM     11  C   UNL     1       2.801   2.383  17.321  0.00  0.00    +0.000 C 
ATOM     12  N   UNL     1       4.148   4.389  17.325  0.00  0.00    +0.000 NA
ENDROOT
BRANCH   1  13
ATOM     13  C   UNL     1       6.851   4.319  16.200  0.00  0.00    +0.000 C 
BRANCH  13  14
ATOM     14  C   UNL     1       7.160   4.423  14.708  0.00  0.00    +0.000 C 
BRANCH  14  17
ATOM     15  C   UNL     1       5.435   2.718  11.812  0.00  0.00    +0.000 C 
ATOM     16  N   UNL     1       6.391   3.233  12.761  0.00  0.00    +0.000 N 
ATOM     17  C   UNL     1       5.999   4.007  13.832  0.00  0.00    +0.000 C 
ATOM     18  O   UNL     1       4.833   4.322  14.049  0.00  0.00    +0.000 OA
ATOM     19  H   UNL     1       7.367   2.988  12.651  0.00  0.00    +0.000 HD
ENDBRANCH  14  17
ENDBRANCH  13  14
ENDBRANCH   1  13
BRANCH   3  20
ATOM     20  C   UNL     1       7.913   8.951  17.659  0.00  0.00    +0.000 C 
BRANCH  20  21
ATOM     21  O   UNL     1       8.787   8.852  18.798  0.00  0.00    +0.000 OA
ATOM     22  C   UNL     1       9.216  10.125  19.264  0.00  0.00    +0.000 C 
ENDBRANCH  20  21
ENDBRANCH   3  20
TORSDOF 5
ENDMDL
MODEL 5
REMARK VINA RESULT:      -6.8      2.960      4.681
REMARK  Name = 
REMARK  8 active torsions:
REMARK  status: ('A' for Active; 'I' for Inactive)
REMARK    1  A    between atoms: C_1  and  N_2
REMARK    2  A    between atoms: C_3  and  C_5
REMARK    3  A    between atoms: C_5  and  C_6
REMARK    4  A    between atoms: C_6  and  C_7
REMARK    5  A    between atoms: C_9  and  C_10
REMARK    6  A    between atoms: C_10  and  O_11
REMARK    7  A    between atoms: O_11  and  C_12
REMARK    8  A    between atoms: C_19  and  C_20
REMARK                            x       y       z     vdW  Elec       q    Type
REMARK                         _______ _______ _______ _____ _____    ______ ____
ROOT
ATOM      1  C   UNL     1       5.875   5.113  17.184  0.00  0.00    +0.000 A 
ATOM      2  N   UNL     1       6.641   5.084  16.107  0.00  0.00    +0.000 NA
ATOM      3  C   UNL     1       5.966   4.251  15.251  0.00  0.00    +0.000 A 
ATOM      4  N   UNL     1       4.840   3.738  15.746  0.00  0.00    +0.000 NA
ATOM      5  N   UNL     1       4.731   4.359  16.949  0.00  0.00    +0.000 N 
ATOM      6  C   UNL     1       3.574   4.182  17.756  0.00  0.00    +0.000 A 
ATOM      7  C   UNL     1       2.568   3.326  17.313  0.00  0.00    +0.000 A 
ATOM      8  C   UNL     1       1.423   3.189  18.089  0.00  0.00    +0.000 A 
ATOM      9  C   UNL     1       1.315   3.902  19.277  0.00  0.00    +0.000 A 
ATOM     10  C   UNL     1       2.362   4.728  19.663  0.00  0.00    +0.000 A 
ATOM     11  C   UNL     1       2.322   5.507  20.940  0.00  0.00    +0.000 C 
ATOM     12  N   UNL     1       3.482   4.869  18.919  0.00  0.00    +0.000 NA
ENDROOT
BRANCH   1  13
ATOM     13  C   UNL     1       6.231   5.779  18.480  0.00  0.00    +0.000 C 
BRANCH  13  14
ATOM     14  C   UNL     1       7.694   6.217  18.458  0.00  0.00    +0.000 C 
BRANCH  14  17
ATOM     15  C   UNL     1       8.986   9.754  18.764  0.00  0.00    +0.000 C 
ATOM     16  N   UNL     1       8.675   8.359  18.957  0.00  0.00    +0.000 N 
ATOM     17  C   UNL     1       7.872   7.669  18.074  0.00  0.00    +0.000 C 
ATOM     18  O   UNL     1       7.360   8.182  17.083  0.00  0.00    +0.000 OA
ATOM     19  H   UNL     1       9.087   7.873  19.743  0.00  0.00    +0.000 HD
ENDBRANCH  14  17
ENDBRANCH  13  14
ENDBRANCH   1  13
BRANCH   3  20
ATOM     20  C   UNL     1       6.424   3.957  13.859  0.00  0.00    +0.000 C 
BRANCH  20  21
ATOM     21  O   UNL     1       5.359   3.653  12.941  0.00  0.00    +0.000 OA
ATOM     22  C   UNL     1       5.783   2.807  11.879  0.00  0.00    +0.000 C 
ENDBRANCH  20  21
ENDBRANCH   3  20
TORSDOF 5
ENDMDL
MODEL 6
REMARK VINA RESULT:      -6.8      2.112      5.912
REMARK  Name = 
REMARK  8 active torsions:
REMARK  status: ('A' for Active; 'I' for Inactive)
REMARK    1  A    between atoms: C_1  and  N_2
REMARK    2  A    between atoms: C_3  and  C_5
REMARK    3  A    between atoms: C_5  and  C_6
REMARK    4  A    between atoms: C_6  and  C_7
REMARK    5  A    between atoms: C_9  and  C_10
REMARK    6  A    between atoms: C_10  and  O_11
REMARK    7  A    between atoms: O_11  and  C_12
REMARK    8  A    between atoms: C_19  and  C_20
REMARK                            x       y       z     vdW  Elec       q    Type
REMARK                         _______ _______ _______ _____ _____    ______ ____
ROOT
ATOM      1  C   UNL     1       2.852   6.237  19.385  0.00  0.00    +0.000 A 
ATOM      2  N   UNL     1       3.778   5.623  18.667  0.00  0.00    +0.000 NA
ATOM      3  C   UNL     1       3.983   6.470  17.608  0.00  0.00    +0.000 A 
ATOM      4  N   UNL     1       3.216   7.561  17.611  0.00  0.00    +0.000 NA
ATOM      5  N   UNL     1       2.557   7.460  18.794  0.00  0.00    +0.000 N 
ATOM      6  C   UNL     1       1.717   8.513  19.249  0.00  0.00    +0.000 A 
ATOM      7  C   UNL     1       1.545   9.635  18.441  0.00  0.00    +0.000 A 
ATOM      8  C   UNL     1       0.753  10.677  18.911  0.00  0.00    +0.000 A 
ATOM      9  C   UNL     1       0.158  10.570  20.162  0.00  0.00    +0.000 A 
ATOM     10  C   UNL     1       0.362   9.417  20.908  0.00  0.00    +0.000 A 
ATOM     11  C   UNL     1      -0.267   9.226  22.252  0.00  0.00    +0.000 C 
ATOM     12  N   UNL     1       1.127   8.395  20.463  0.00  0.00    +0.000 NA
ENDROOT
BRANCH   1  13
ATOM     13  C   UNL     1       2.170   5.662  20.590  0.00  0.00    +0.000 C 
BRANCH  13  14
ATOM     14  C   UNL     1       1.725   4.229  20.305  0.00  0.00    +0.000 C 
BRANCH  14  17
ATOM     15  C   UNL     1       4.639   1.827  20.388  0.00  0.00    +0.000 C 
ATOM     16  N   UNL     1       3.639   2.796  20.016  0.00  0.00    +0.000 N 
ATOM     17  C   UNL     1       2.653   3.191  20.896  0.00  0.00    +0.000 C 
ATOM     18  O   UNL     1       2.546   2.747  22.035  0.00  0.00    +0.000 OA
ATOM     19  H   UNL     1       3.688   3.218  19.097  0.00  0.00    +0.000 HD
ENDBRANCH  14  17
ENDBRANCH  13  14
ENDBRANCH   1  13
BRANCH   3  20
ATOM     20  C   UNL     1       5.003   6.223  16.544  0.00  0.00    +0.000 C 
BRANCH  20  21
ATOM     21  O   UNL     1       6.164   7.068  16.635  0.00  0.00    +0.000 OA
ATOM     22  C   UNL     1       7.194   6.491  17.427  0.00  0.00    +0.000 C 
ENDBRANCH  20  21
ENDBRANCH   3  20
TORSDOF 5
ENDMDL
MODEL 7
REMARK VINA RESULT:      -6.8      2.820      6.108
REMARK  Name = 
REMARK  8 active torsions:
REMARK  status: ('A' for Active; 'I' for Inactive)
REMARK    1  A    between atoms: C_1  and  N_2
REMARK    2  A    between atoms: C_3  and  C_5
REMARK    3  A    between atoms: C_5  and  C_6
REMARK    4  A    between atoms: C_6  and  C_7
REMARK    5  A    between atoms: C_9  and  C_10
REMARK    6  A    between atoms: C_10  and  O_11
REMARK    7  A    between atoms: O_11  and  C_12
REMARK    8  A    between atoms: C_19  and  C_20
REMARK                            x       y       z     vdW  Elec       q    Type
REMARK                         _______ _______ _______ _____ _____    ______ ____
ROOT
ATOM      1  C   UNL     1       4.606   4.042  17.150  0.00  0.00    +0.000 A 
ATOM      2  N   UNL     1       5.490   3.634  16.255  0.00  0.00    +0.000 NA
ATOM      3  C   UNL     1       5.700   4.743  15.476  0.00  0.00    +0.000 A 
ATOM      4  N   UNL     1       4.974   5.809  15.818  0.00  0.00    +0.000 NA
ATOM      5  N   UNL     1       4.341   5.391  16.944  0.00  0.00    +0.000 N 
ATOM      6  C   UNL     1       3.552   6.292  17.711  0.00  0.00    +0.000 A 
ATOM      7  C   UNL     1       3.402   7.603  17.264  0.00  0.00    +0.000 A 
ATOM      8  C   UNL     1       2.660   8.488  18.040  0.00  0.00    +0.000 A 
ATOM      9  C   UNL     1       2.093   8.043  19.227  0.00  0.00    +0.000 A 
ATOM     10  C   UNL     1       2.274   6.719  19.604  0.00  0.00    +0.000 A 
ATOM     11  C   UNL     1       1.671   6.167  20.859  0.00  0.00    +0.000 C 
ATOM     12  N   UNL     1       2.989   5.847  18.859  0.00  0.00    +0.000 NA
ENDROOT
BRANCH   1  13
ATOM     13  C   UNL     1       3.934   3.164  18.163  0.00  0.00    +0.000 C 
BRANCH  13  14
ATOM     14  C   UNL     1       2.582   2.692  17.631  0.00  0.00    +0.000 C 
BRANCH  14  17
ATOM     15  C   UNL     1       1.219   2.679  21.154  0.00  0.00    +0.000 C 
ATOM     16  N   UNL     1       2.047   2.771  19.978  0.00  0.00    +0.000 N 
ATOM     17  C   UNL     1       1.545   2.518  18.719  0.00  0.00    +0.000 C 
ATOM     18  O   UNL     1       0.382   2.188  18.508  0.00  0.00    +0.000 OA
ATOM     19  H   UNL     1       3.011   3.062  20.082  0.00  0.00    +0.000 HD
ENDBRANCH  14  17
ENDBRANCH  13  14
ENDBRANCH   1  13
BRANCH   3  20
ATOM     20  C   UNL     1       6.683   4.784  14.351  0.00  0.00    +0.000 C 
BRANCH  20  21
ATOM     21  O   UNL     1       6.690   3.601  13.533  0.00  0.00    +0.000 OA
ATOM     22  C   UNL     1       6.698   3.902  12.143  0.00  0.00    +0.000 C 
ENDBRANCH  20  21
ENDBRANCH   3  20
TORSDOF 5
ENDMDL
MODEL 8
REMARK VINA RESULT:      -6.7      0.994      1.076
REMARK  Name = 
REMARK  8 active torsions:
REMARK  status: ('A' for Active; 'I' for Inactive)
REMARK    1  A    between atoms: C_1  and  N_2
REMARK    2  A    between atoms: C_3  and  C_5
REMARK    3  A    between atoms: C_5  and  C_6
REMARK    4  A    between atoms: C_6  and  C_7
REMARK    5  A    between atoms: C_9  and  C_10
REMARK    6  A    between atoms: C_10  and  O_11
REMARK    7  A    between atoms: O_11  and  C_12
REMARK    8  A    between atoms: C_19  and  C_20
REMARK                            x       y       z     vdW  Elec       q    Type
REMARK                         _______ _______ _______ _____ _____    ______ ____
ROOT
ATOM      1  C   UNL     1       3.587   6.518  17.738  0.00  0.00    +0.000 A 
ATOM      2  N   UNL     1       3.383   7.776  17.382  0.00  0.00    +0.000 NA
ATOM      3  C   UNL     1       2.365   8.185  18.204  0.00  0.00    +0.000 A 
ATOM      4  N   UNL     1       1.905   7.246  19.031  0.00  0.00    +0.000 NA
ATOM      5  N   UNL     1       2.746   6.205  18.799  0.00  0.00    +0.000 N 
ATOM      6  C   UNL     1       2.676   5.024  19.588  0.00  0.00    +0.000 A 
ATOM      7  C   UNL     1       1.699   4.933  20.578  0.00  0.00    +0.000 A 
ATOM      8  C   UNL     1       1.662   3.792  21.371  0.00  0.00    +0.000 A 
ATOM      9  C   UNL     1       2.590   2.780  21.155  0.00  0.00    +0.000 A 
ATOM     10  C   UNL     1       3.528   2.934  20.142  0.00  0.00    +0.000 A 
ATOM     11  C   UNL     1       4.542   1.875  19.839  0.00  0.00    +0.000 C 
ATOM     12  N   UNL     1       3.574   4.037  19.361  0.00  0.00    +0.000 NA
ENDROOT
BRANCH   1  13
ATOM     13  C   UNL     1       4.514   5.564  17.046  0.00  0.00    +0.000 C 
BRANCH  13  14
ATOM     14  C   UNL     1       5.627   6.335  16.338  0.00  0.00    +0.000 C 
BRANCH  14  17
ATOM     15  C   UNL     1       7.954   5.831  19.270  0.00  0.00    +0.000 C 
ATOM     16  N   UNL     1       6.885   5.751  18.307  0.00  0.00    +0.000 N 
ATOM     17  C   UNL     1       6.817   6.609  17.230  0.00  0.00    +0.000 C 
ATOM     18  O   UNL     1       7.638   7.497  17.020  0.00  0.00    +0.000 OA
ATOM     19  H   UNL     1       6.189   5.023  18.410  0.00  0.00    +0.000 HD
ENDBRANCH  14  17
ENDBRANCH  13  14
ENDBRANCH   1  13
BRANCH   3  20
ATOM     20  C   UNL     1       1.824   9.578  18.211  0.00  0.00    +0.000 C 
BRANCH  20  21
ATOM     21  O   UNL     1       1.173   9.951  19.438  0.00  0.00    +0.000 OA
ATOM     22  C   UNL     1      -0.164  10.388  19.232  0.00  0.00    +0.000 C 
ENDBRANCH  20  21
ENDBRANCH   3  20
TORSDOF 5
ENDMDL
MODEL 9
REMARK VINA RESULT:      -6.7      2.124      4.825
REMARK  Name = 
REMARK  8 active torsions:
REMARK  status: ('A' for Active; 'I' for Inactive)
REMARK    1  A    between atoms: C_1  and  N_2
REMARK    2  A    between atoms: C_3  and  C_5
REMARK    3  A    between atoms: C_5  and  C_6
REMARK    4  A    between atoms: C_6  and  C_7
REMARK    5  A    between atoms: C_9  and  C_10
REMARK    6  A    between atoms: C_10  and  O_11
REMARK    7  A    between atoms: O_11  and  C_12
REMARK    8  A    between atoms: C_19  and  C_20
REMARK                            x       y       z     vdW  Elec       q    Type
REMARK                         _______ _______ _______ _____ _____    ______ ____
ROOT
ATOM      1  C   UNL     1       3.605   5.587  18.481  0.00  0.00    +0.000 A 
ATOM      2  N   UNL     1       3.923   4.316  18.660  0.00  0.00    +0.000 NA
ATOM      3  C   UNL     1       3.372   4.012  19.878  0.00  0.00    +0.000 A 
ATOM      4  N   UNL     1       2.756   5.029  20.480  0.00  0.00    +0.000 NA
ATOM      5  N   UNL     1       2.825   6.014  19.548  0.00  0.00    +0.000 N 
ATOM      6  C   UNL     1       2.157   7.254  19.750  0.00  0.00    +0.000 A 
ATOM      7  C   UNL     1       1.465   7.459  20.942  0.00  0.00    +0.000 A 
ATOM      8  C   UNL     1       0.783   8.658  21.116  0.00  0.00    +0.000 A 
ATOM      9  C   UNL     1       0.812   9.612  20.106  0.00  0.00    +0.000 A 
ATOM     10  C   UNL     1       1.532   9.344  18.949  0.00  0.00    +0.000 A 
ATOM     11  C   UNL     1       1.625  10.335  17.831  0.00  0.00    +0.000 C 
ATOM     12  N   UNL     1       2.202   8.184  18.768  0.00  0.00    +0.000 NA
ENDROOT
BRANCH   1  13
ATOM     13  C   UNL     1       4.089   6.448  17.352  0.00  0.00    +0.000 C 
BRANCH  13  14
ATOM     14  C   UNL     1       5.079   5.670  16.488  0.00  0.00    +0.000 C 
BRANCH  14  17
ATOM     15  C   UNL     1       7.824   8.051  17.519  0.00  0.00    +0.000 C 
ATOM     16  N   UNL     1       6.572   7.363  17.327  0.00  0.00    +0.000 N 
ATOM     17  C   UNL     1       6.480   6.240  16.532  0.00  0.00    +0.000 C 
ATOM     18  O   UNL     1       7.433   5.759  15.928  0.00  0.00    +0.000 OA
ATOM     19  H   UNL     1       5.753   7.697  17.819  0.00  0.00    +0.000 HD
ENDBRANCH  14  17
ENDBRANCH  13  14
ENDBRANCH   1  13
BRANCH   3  20
ATOM     20  C   UNL     1       3.419   2.645  20.483  0.00  0.00    +0.000 C 
BRANCH  20  21
ATOM     21  O   UNL     1       2.867   2.570  21.809  0.00  0.00    +0.000 OA
ATOM     22  C   UNL     1       1.452   2.422  21.800  0.00  0.00    +0.000 C 
ENDBRANCH  20  21
ENDBRANCH   3  20
TORSDOF 5
ENDMDL
