MODEL 1
REMARK VINA RESULT:      -7.8      0.000      0.000
REMARK  Name = 
REMARK  4 active torsions:
REMARK  status: ('A' for Active; 'I' for Inactive)
REMARK    1  A    between atoms: C_1  and  C_2
REMARK    2  A    between atoms: C_2  and  O_3
REMARK    3  A    between atoms: O_3  and  C_4
REMARK    4  A    between atoms: C_7  and  C_8
REMARK                            x       y       z     vdW  Elec       q    Type
REMARK                         _______ _______ _______ _____ _____    ______ ____
ROOT
ATOM      1  C   UNL     1       4.964   4.221  17.060  0.00  0.00    +0.000 C 
ATOM      2  O   UNL     1       5.112   3.731  15.931  0.00  0.00    +0.000 OA
ATOM      3  N   UNL     1       4.114   3.554  17.940  0.00  0.00    +0.000 N 
ATOM      4  C   UNL     1       3.692   2.186  17.554  0.00  0.00    +0.000 C 
ATOM      5  C   UNL     1       3.372   1.481  18.867  0.00  0.00    +0.000 C 
ATOM      6  C   UNL     1       2.813   2.662  19.604  0.00  0.00    +0.000 A 
ATOM      7  C   UNL     1       1.872   2.605  20.617  0.00  0.00    +0.000 A 
ATOM      8  C   UNL     1       1.279   3.805  20.994  0.00  0.00    +0.000 A 
ATOM      9  C   UNL     1       1.671   5.012  20.379  0.00  0.00    +0.000 A 
ATOM     10  C   UNL     1       2.699   5.061  19.414  0.00  0.00    +0.000 A 
ATOM     11  C   UNL     1       3.274   3.875  19.029  0.00  0.00    +0.000 A 
ENDROOT
BRANCH   1  15
ATOM     12  C   UNL     1       7.781   7.365  18.209  0.00  0.00    +0.000 A 
ATOM     13  C   UNL     1       7.784   6.104  18.783  0.00  0.00    +0.000 A 
ATOM     14  C   UNL     1       6.857   5.137  18.356  0.00  0.00    +0.000 A 
ATOM     15  C   UNL     1       5.881   5.390  17.362  0.00  0.00    +0.000 A 
ATOM     16  C   UNL     1       5.843   6.685  16.846  0.00  0.00    +0.000 A 
ATOM     17  C   UNL     1       6.801   7.662  17.258  0.00  0.00    +0.000 A 
BRANCH  12  18
ATOM     18  O   UNL     1       8.730   8.214  18.715  0.00  0.00    +0.000 OA
BRANCH  18  20
ATOM     19  C   UNL     1       9.390  10.424  19.385  0.00  0.00    +0.000 C 
ATOM     20  C   UNL     1       8.646   9.590  18.345  0.00  0.00    +0.000 C 
ENDBRANCH  18  20
ENDBRANCH  12  18
ENDBRANCH   1  15
TORSDOF 3
ENDMDL
MODEL 2
REMARK VINA RESULT:      -7.7      0.403      1.142
REMARK  Name = 
REMARK  4 active torsions:
REMARK  status: ('A' for Active; 'I' for Inactive)
REMARK    1  A    between atoms: C_1  and  C_2
REMARK    2  A    between atoms: C_2  and  O_3
REMARK    3  A    between atoms: O_3  and  C_4
REMARK    4  A    between atoms: C_7  and  C_8
REMARK                            x       y       z     vdW  Elec       q    Type
REMARK                         _______ _______ _______ _____ _____    ______ ____
ROOT
ATOM      1  C   UNL     1       4.914   4.487  17.101  0.00  0.00    +0.000 C 
ATOM      2  O   UNL     1       4.993   4.257  15.885  0.00  0.00    +0.000 OA
ATOM      3  N   UNL     1       3.964   3.771  17.826  0.00  0.00    +0.000 N 
ATOM      4  C   UNL     1       3.337   2.612  17.146  0.00  0.00    +0.000 C 
ATOM      5  C   UNL     1       2.901   1.678  18.269  0.00  0.00    +0.000 C 
ATOM      6  C   UNL     1       2.527   2.727  19.275  0.00  0.00    +0.000 A 
ATOM      7  C   UNL     1       1.579   2.580  20.274  0.00  0.00    +0.000 A 
ATOM      8  C   UNL     1       1.178   3.735  20.936  0.00  0.00    +0.000 A 
ATOM      9  C   UNL     1       1.758   4.977  20.605  0.00  0.00    +0.000 A 
ATOM     10  C   UNL     1       2.789   5.092  19.649  0.00  0.00    +0.000 A 
ATOM     11  C   UNL     1       3.176   3.954  18.984  0.00  0.00    +0.000 A 
ENDROOT
BRANCH   1  15
ATOM     12  C   UNL     1       7.934   7.382  18.379  0.00  0.00    +0.000 A 
ATOM     13  C   UNL     1       7.025   7.640  17.366  0.00  0.00    +0.000 A 
ATOM     14  C   UNL     1       6.072   6.667  17.016  0.00  0.00    +0.000 A 
ATOM     15  C   UNL     1       5.999   5.398  17.638  0.00  0.00    +0.000 A 
ATOM     16  C   UNL     1       6.967   5.126  18.606  0.00  0.00    +0.000 A 
ATOM     17  C   UNL     1       7.920   6.122  18.984  0.00  0.00    +0.000 A 
BRANCH  12  18
ATOM     18  O   UNL     1       8.810   8.408  18.622  0.00  0.00    +0.000 OA
BRANCH  18  20
ATOM     19  C   UNL     1       9.443  10.723  18.688  0.00  0.00    +0.000 C 
ATOM     20  C   UNL     1       8.465   9.699  18.120  0.00  0.00    +0.000 C 
ENDBRANCH  18  20
ENDBRANCH  12  18
ENDBRANCH   1  15
TORSDOF 3
ENDMDL
MODEL 3
REMARK VINA RESULT:      -7.3      3.868      6.054
REMARK  Name = 
REMARK  4 active torsions:
REMARK  status: ('A' for Active; 'I' for Inactive)
REMARK    1  A    between atoms: C_1  and  C_2
REMARK    2  A    between atoms: C_2  and  O_3
REMARK    3  A    between atoms: O_3  and  C_4
REMARK    4  A    between atoms: C_7  and  C_8
REMARK                            x       y       z     vdW  Elec       q    Type
REMARK                         _______ _______ _______ _____ _____    ______ ____
ROOT
ATOM      1  C   UNL     1       2.895   5.876  19.433  0.00  0.00    +0.000 C 
ATOM      2  O   UNL     1       2.538   5.347  20.495  0.00  0.00    +0.000 OA
ATOM      3  N   UNL     1       3.632   5.094  18.545  0.00  0.00    +0.000 N 
ATOM      4  C   UNL     1       3.678   3.637  18.817  0.00  0.00    +0.000 C 
ATOM      5  C   UNL     1       3.929   2.985  17.462  0.00  0.00    +0.000 C 
ATOM      6  C   UNL     1       4.817   4.049  16.885  0.00  0.00    +0.000 A 
ATOM      7  C   UNL     1       5.801   3.844  15.932  0.00  0.00    +0.000 A 
ATOM      8  C   UNL     1       6.694   4.886  15.715  0.00  0.00    +0.000 A 
ATOM      9  C   UNL     1       6.554   6.098  16.424  0.00  0.00    +0.000 A 
ATOM     10  C   UNL     1       5.489   6.320  17.323  0.00  0.00    +0.000 A 
ATOM     11  C   UNL     1       4.614   5.286  17.549  0.00  0.00    +0.000 A 
ENDROOT
BRANCH   1  15
ATOM     12  C   UNL     1       1.090   9.848  19.116  0.00  0.00    +0.000 A 
ATOM     13  C   UNL     1       1.066   9.100  20.283  0.00  0.00    +0.000 A 
ATOM     14  C   UNL     1       1.678   7.835  20.317  0.00  0.00    +0.000 A 
ATOM     15  C   UNL     1       2.316   7.256  19.193  0.00  0.00    +0.000 A 
ATOM     16  C   UNL     1       2.269   7.989  18.008  0.00  0.00    +0.000 A 
ATOM     17  C   UNL     1       1.672   9.287  17.976  0.00  0.00    +0.000 A 
BRANCH  12  18
ATOM     18  O   UNL     1       0.456  11.060  19.214  0.00  0.00    +0.000 OA
BRANCH  18  20
ATOM     19  C   UNL     1      -1.744  10.666  18.338  0.00  0.00    +0.000 C 
ATOM     20  C   UNL     1      -0.926  11.052  19.567  0.00  0.00    +0.000 C 
ENDBRANCH  18  20
ENDBRANCH  12  18
ENDBRANCH   1  15
TORSDOF 3
ENDMDL
MODEL 4
REMARK VINA RESULT:      -7.3      3.842      5.440
REMARK  Name = 
REMARK  4 active torsions:
REMARK  status: ('A' for Active; 'I' for Inactive)
REMARK    1  A    between atoms: C_1  and  C_2
REMARK    2  A    between atoms: C_2  and  O_3
REMARK    3  A    between atoms: O_3  and  C_4
REMARK    4  A    between atoms: C_7  and  C_8
REMARK                            x       y       z     vdW  Elec       q    Type
REMARK                         _______ _______ _______ _____ _____    ______ ____
ROOT
ATOM      1  C   UNL     1       3.449   6.842  17.821  0.00  0.00    +0.000 C 
ATOM      2  O   UNL     1       4.263   7.350  17.036  0.00  0.00    +0.000 OA
ATOM      3  N   UNL     1       3.619   5.495  18.136  0.00  0.00    +0.000 N 
ATOM      4  C   UNL     1       4.904   4.871  17.736  0.00  0.00    +0.000 C 
ATOM      5  C   UNL     1       5.107   3.716  18.709  0.00  0.00    +0.000 C 
ATOM      6  C   UNL     1       3.667   3.321  18.862  0.00  0.00    +0.000 A 
ATOM      7  C   UNL     1       3.211   2.050  19.166  0.00  0.00    +0.000 A 
ATOM      8  C   UNL     1       1.850   1.815  19.005  0.00  0.00    +0.000 A 
ATOM      9  C   UNL     1       0.996   2.856  18.587  0.00  0.00    +0.000 A 
ATOM     10  C   UNL     1       1.467   4.169  18.372  0.00  0.00    +0.000 A 
ATOM     11  C   UNL     1       2.813   4.400  18.517  0.00  0.00    +0.000 A 
ENDROOT
BRANCH   1  15
ATOM     12  C   UNL     1       0.694   9.469  19.977  0.00  0.00    +0.000 A 
ATOM     13  C   UNL     1       1.281   8.355  20.555  0.00  0.00    +0.000 A 
ATOM     14  C   UNL     1       2.168   7.562  19.807  0.00  0.00    +0.000 A 
ATOM     15  C   UNL     1       2.489   7.829  18.454  0.00  0.00    +0.000 A 
ATOM     16  C   UNL     1       1.835   8.910  17.864  0.00  0.00    +0.000 A 
ATOM     17  C   UNL     1       0.953   9.735  18.629  0.00  0.00    +0.000 A 
BRANCH  12  18
ATOM     18  O   UNL     1      -0.151  10.154  20.810  0.00  0.00    +0.000 OA
BRANCH  18  20
ATOM     19  C   UNL     1      -0.980  10.794  22.971  0.00  0.00    +0.000 C 
ATOM     20  C   UNL     1      -0.189   9.756  22.180  0.00  0.00    +0.000 C 
ENDBRANCH  18  20
ENDBRANCH  12  18
ENDBRANCH   1  15
TORSDOF 3
ENDMDL
MODEL 5
REMARK VINA RESULT:      -7.2      3.109      5.342
REMARK  Name = 
REMARK  4 active torsions:
REMARK  status: ('A' for Active; 'I' for Inactive)
REMARK    1  A    between atoms: C_1  and  C_2
REMARK    2  A    between atoms: C_2  and  O_3
REMARK    3  A    between atoms: O_3  and  C_4
REMARK    4  A    between atoms: C_7  and  C_8
REMARK                            x       y       z     vdW  Elec       q    Type
REMARK                         _______ _______ _______ _____ _____    ______ ____
ROOT
ATOM      1  C   UNL     1       5.252   5.716  16.921  0.00  0.00    +0.000 C 
ATOM      2  O   UNL     1       5.849   6.710  17.361  0.00  0.00    +0.000 OA
ATOM      3  N   UNL     1       4.069   5.347  17.558  0.00  0.00    +0.000 N 
ATOM      4  C   UNL     1       3.487   6.325  18.508  0.00  0.00    +0.000 C 
ATOM      5  C   UNL     1       1.995   6.017  18.536  0.00  0.00    +0.000 C 
ATOM      6  C   UNL     1       2.090   4.528  18.375  0.00  0.00    +0.000 A 
ATOM      7  C   UNL     1       1.169   3.609  18.847  0.00  0.00    +0.000 A 
ATOM      8  C   UNL     1       1.553   2.272  18.841  0.00  0.00    +0.000 A 
ATOM      9  C   UNL     1       2.816   1.901  18.334  0.00  0.00    +0.000 A 
ATOM     10  C   UNL     1       3.703   2.844  17.772  0.00  0.00    +0.000 A 
ATOM     11  C   UNL     1       3.331   4.166  17.791  0.00  0.00    +0.000 A 
ENDROOT
BRANCH   1  15
ATOM     12  C   UNL     1       6.553   3.944  13.139  0.00  0.00    +0.000 A 
ATOM     13  C   UNL     1       5.261   3.819  13.624  0.00  0.00    +0.000 A 
ATOM     14  C   UNL     1       4.909   4.426  14.842  0.00  0.00    +0.000 A 
ATOM     15  C   UNL     1       5.826   5.159  15.633  0.00  0.00    +0.000 A 
ATOM     16  C   UNL     1       7.139   5.215  15.167  0.00  0.00    +0.000 A 
ATOM     17  C   UNL     1       7.495   4.623  13.916  0.00  0.00    +0.000 A 
BRANCH  12  18
ATOM     18  O   UNL     1       6.768   3.304  11.945  0.00  0.00    +0.000 OA
BRANCH  18  20
ATOM     19  C   UNL     1       6.483   1.099  11.039  0.00  0.00    +0.000 C 
ATOM     20  C   UNL     1       5.781   2.368  11.515  0.00  0.00    +0.000 C 
ENDBRANCH  18  20
ENDBRANCH  12  18
ENDBRANCH   1  15
TORSDOF 3
ENDMDL
MODEL 6
REMARK VINA RESULT:      -7.1      3.768      5.995
REMARK  Name = 
REMARK  4 active torsions:
REMARK  status: ('A' for Active; 'I' for Inactive)
REMARK    1  A    between atoms: C_1  and  C_2
REMARK    2  A    between atoms: C_2  and  O_3
REMARK    3  A    between atoms: O_3  and  C_4
REMARK    4  A    between atoms: C_7  and  C_8
REMARK                            x       y       z     vdW  Elec       q    Type
REMARK                         _______ _______ _______ _____ _____    ______ ____
ROOT
ATOM      1  C   UNL     1       2.855   5.658  19.661  0.00  0.00    +0.000 C 
ATOM      2  O   UNL     1       2.554   5.048  20.697  0.00  0.00    +0.000 OA
ATOM      3  N   UNL     1       3.580   4.961  18.697  0.00  0.00    +0.000 N 
ATOM      4  C   UNL     1       3.680   3.492  18.867  0.00  0.00    +0.000 C 
ATOM      5  C   UNL     1       3.899   2.940  17.463  0.00  0.00    +0.000 C 
ATOM      6  C   UNL     1       4.732   4.068  16.928  0.00  0.00    +0.000 A 
ATOM      7  C   UNL     1       5.684   3.959  15.928  0.00  0.00    +0.000 A 
ATOM      8  C   UNL     1       6.537   5.042  15.750  0.00  0.00    +0.000 A 
ATOM      9  C   UNL     1       6.387   6.198  16.544  0.00  0.00    +0.000 A 
ATOM     10  C   UNL     1       5.352   6.326  17.493  0.00  0.00    +0.000 A 
ATOM     11  C   UNL     1       4.517   5.251  17.680  0.00  0.00    +0.000 A 
ENDROOT
BRANCH   1  15
ATOM     12  C   UNL     1       1.155   9.620  18.922  0.00  0.00    +0.000 A 
ATOM     13  C   UNL     1       1.776   8.871  17.935  0.00  0.00    +0.000 A 
ATOM     14  C   UNL     1       2.289   7.598  18.241  0.00  0.00    +0.000 A 
ATOM     15  C   UNL     1       2.226   7.031  19.537  0.00  0.00    +0.000 A 
ATOM     16  C   UNL     1       1.662   7.827  20.534  0.00  0.00    +0.000 A 
ATOM     17  C   UNL     1       1.115   9.110  20.222  0.00  0.00    +0.000 A 
BRANCH  12  18
ATOM     18  O   UNL     1       0.702  10.842  18.496  0.00  0.00    +0.000 OA
BRANCH  18  20
ATOM     19  C   UNL     1      -1.548  10.325  17.835  0.00  0.00    +0.000 C 
ATOM     20  C   UNL     1      -0.665  11.163  18.756  0.00  0.00    +0.000 C 
ENDBRANCH  18  20
ENDBRANCH  12  18
ENDBRANCH   1  15
TORSDOF 3
ENDMDL
MODEL 7
REMARK VINA RESULT:      -7.1      3.985      5.643
REMARK  Name = 
REMARK  4 active torsions:
REMARK  status: ('A' for Active; 'I' for Inactive)
REMARK    1  A    between atoms: C_1  and  C_2
REMARK    2  A    between atoms: C_2  and  O_3
REMARK    3  A    between atoms: O_3  and  C_4
REMARK    4  A    between atoms: C_7  and  C_8
REMARK                            x       y       z     vdW  Elec       q    Type
REMARK                         _______ _______ _______ _____ _____    ______ ____
ROOT
ATOM      1  C   UNL     1       2.830   5.970  19.378  0.00  0.00    +0.000 C 
ATOM      2  O   UNL     1       2.413   5.441  20.419  0.00  0.00    +0.000 OA
ATOM      3  N   UNL     1       3.593   5.179  18.521  0.00  0.00    +0.000 N 
ATOM      4  C   UNL     1       3.598   3.720  18.784  0.00  0.00    +0.000 C 
ATOM      5  C   UNL     1       3.901   3.072  17.438  0.00  0.00    +0.000 C 
ATOM      6  C   UNL     1       4.835   4.122  16.910  0.00  0.00    +0.000 A 
ATOM      7  C   UNL     1       5.858   3.904  16.003  0.00  0.00    +0.000 A 
ATOM      8  C   UNL     1       6.780   4.931  15.836  0.00  0.00    +0.000 A 
ATOM      9  C   UNL     1       6.629   6.140  16.545  0.00  0.00    +0.000 A 
ATOM     10  C   UNL     1       5.528   6.377  17.395  0.00  0.00    +0.000 A 
ATOM     11  C   UNL     1       4.624   5.358  17.572  0.00  0.00    +0.000 A 
ENDROOT
BRANCH   1  15
ATOM     12  C   UNL     1       1.133   9.985  19.012  0.00  0.00    +0.000 A 
ATOM     13  C   UNL     1       1.088   9.253  20.187  0.00  0.00    +0.000 A 
ATOM     14  C   UNL     1       1.666   7.972  20.237  0.00  0.00    +0.000 A 
ATOM     15  C   UNL     1       2.288   7.362  19.121  0.00  0.00    +0.000 A 
ATOM     16  C   UNL     1       2.262   8.082  17.927  0.00  0.00    +0.000 A 
ATOM     17  C   UNL     1       1.700   9.395  17.879  0.00  0.00    +0.000 A 
BRANCH  12  18
ATOM     18  O   UNL     1       0.533  11.215  19.094  0.00  0.00    +0.000 OA
BRANCH  18  20
ATOM     19  C   UNL     1       2.190  12.911  18.715  0.00  0.00    +0.000 C 
ATOM     20  C   UNL     1       1.261  12.260  19.737  0.00  0.00    +0.000 C 
ENDBRANCH  18  20
ENDBRANCH  12  18
ENDBRANCH   1  15
TORSDOF 3
ENDMDL
MODEL 8
REMARK VINA RESULT:      -7.1      4.059      5.729
REMARK  Name = 
REMARK  4 active torsions:
REMARK  status: ('A' for Active; 'I' for Inactive)
REMARK    1  A    between atoms: C_1  and  C_2
REMARK    2  A    between atoms: C_2  and  O_3
REMARK    3  A    between atoms: O_3  and  C_4
REMARK    4  A    between atoms: C_7  and  C_8
REMARK                            x       y       z     vdW  Elec       q    Type
REMARK                         _______ _______ _______ _____ _____    ______ ____
ROOT
ATOM      1  C   UNL     1       3.188   7.020  18.018  0.00  0.00    +0.000 C 
ATOM      2  O   UNL     1       3.874   7.669  17.215  0.00  0.00    +0.000 OA
ATOM      3  N   UNL     1       3.491   5.668  18.171  0.00  0.00    +0.000 N 
ATOM      4  C   UNL     1       4.769   5.199  17.583  0.00  0.00    +0.000 C 
ATOM      5  C   UNL     1       5.161   3.976  18.403  0.00  0.00    +0.000 C 
ATOM      6  C   UNL     1       3.780   3.447  18.656  0.00  0.00    +0.000 A 
ATOM      7  C   UNL     1       3.455   2.118  18.867  0.00  0.00    +0.000 A 
ATOM      8  C   UNL     1       2.107   1.783  18.817  0.00  0.00    +0.000 A 
ATOM      9  C   UNL     1       1.137   2.784  18.598  0.00  0.00    +0.000 A 
ATOM     10  C   UNL     1       1.482   4.146  18.477  0.00  0.00    +0.000 A 
ATOM     11  C   UNL     1       2.815   4.476  18.511  0.00  0.00    +0.000 A 
ENDROOT
BRANCH   1  15
ATOM     12  C   UNL     1       0.392   9.673  20.086  0.00  0.00    +0.000 A 
ATOM     13  C   UNL     1       0.791   9.875  18.775  0.00  0.00    +0.000 A 
ATOM     14  C   UNL     1       1.684   8.973  18.168  0.00  0.00    +0.000 A 
ATOM     15  C   UNL     1       2.229   7.855  18.843  0.00  0.00    +0.000 A 
ATOM     16  C   UNL     1       1.874   7.706  20.184  0.00  0.00    +0.000 A 
ATOM     17  C   UNL     1       0.946   8.604  20.796  0.00  0.00    +0.000 A 
BRANCH  12  18
ATOM     18  O   UNL     1      -0.477  10.622  20.560  0.00  0.00    +0.000 OA
BRANCH  18  20
ATOM     19  C   UNL     1      -1.025  11.010  22.865  0.00  0.00    +0.000 C 
ATOM     20  C   UNL     1      -0.080  11.356  21.718  0.00  0.00    +0.000 C 
ENDBRANCH  18  20
ENDBRANCH  12  18
ENDBRANCH   1  15
TORSDOF 3
ENDMDL
MODEL 9
REMARK VINA RESULT:      -7.1      2.702      4.210
REMARK  Name = 
REMARK  4 active torsions:
REMARK  status: ('A' for Active; 'I' for Inactive)
REMARK    1  A    between atoms: C_1  and  C_2
REMARK    2  A    between atoms: C_2  and  O_3
REMARK    3  A    between atoms: O_3  and  C_4
REMARK    4  A    between atoms: C_7  and  C_8
REMARK                            x       y       z     vdW  Elec       q    Type
REMARK                         _______ _______ _______ _____ _____    ______ ____
ROOT
ATOM      1  C   UNL     1       3.399   4.379  17.703  0.00  0.00    +0.000 C 
ATOM      2  O   UNL     1       3.005   3.223  17.493  0.00  0.00    +0.000 OA
ATOM      3  N   UNL     1       2.751   5.104  18.702  0.00  0.00    +0.000 N 
ATOM      4  C   UNL     1       1.853   4.344  19.605  0.00  0.00    +0.000 C 
ATOM      5  C   UNL     1       1.818   5.145  20.901  0.00  0.00    +0.000 C 
ATOM      6  C   UNL     1       1.906   6.516  20.298  0.00  0.00    +0.000 A 
ATOM      7  C   UNL     1       1.395   7.674  20.858  0.00  0.00    +0.000 A 
ATOM      8  C   UNL     1       1.334   8.796  20.040  0.00  0.00    +0.000 A 
ATOM      9  C   UNL     1       1.815   8.733  18.716  0.00  0.00    +0.000 A 
ATOM     10  C   UNL     1       2.418   7.569  18.193  0.00  0.00    +0.000 A 
ATOM     11  C   UNL     1       2.465   6.455  18.995  0.00  0.00    +0.000 A 
ENDROOT
BRANCH   1  15
ATOM     12  C   UNL     1       6.927   5.201  15.251  0.00  0.00    +0.000 A 
ATOM     13  C   UNL     1       5.975   4.255  14.907  0.00  0.00    +0.000 A 
ATOM     14  C   UNL     1       4.858   4.052  15.737  0.00  0.00    +0.000 A 
ATOM     15  C   UNL     1       4.655   4.761  16.946  0.00  0.00    +0.000 A 
ATOM     16  C   UNL     1       5.658   5.658  17.314  0.00  0.00    +0.000 A 
ATOM     17  C   UNL     1       6.781   5.887  16.460  0.00  0.00    +0.000 A 
BRANCH  12  18
ATOM     18  O   UNL     1       7.966   5.300  14.362  0.00  0.00    +0.000 OA
BRANCH  18  20
ATOM     19  C   UNL     1       8.202   6.068  12.099  0.00  0.00    +0.000 C 
ATOM     20  C   UNL     1       7.705   4.944  13.005  0.00  0.00    +0.000 C 
ENDBRANCH  18  20
ENDBRANCH  12  18
ENDBRANCH   1  15
TORSDOF 3
ENDMDL
