MODEL 1
REMARK VINA RESULT:      -6.7      0.000      0.000
REMARK  Name = 
REMARK  9 active torsions:
REMARK  status: ('A' for Active; 'I' for Inactive)
REMARK    1  A    between atoms: C_1  and  O_2
REMARK    2  A    between atoms: O_2  and  C_3
REMARK    3  A    between atoms: C_6  and  C_7
REMARK    4  A    between atoms: C_10  and  C_11
REMARK    5  A    between atoms: C_11  and  C_12
REMARK    6  A    between atoms: C_11  and  C_13
REMARK    7  A    between atoms: C_11  and  C_14
REMARK    8  A    between atoms: C_18  and  O_19
REMARK    9  A    between atoms: O_19  and  C_20
REMARK                            x       y       z     vdW  Elec       q    Type
REMARK                         _______ _______ _______ _____ _____    ______ ____
ROOT
ATOM      1  C   UNL     1       4.197   6.625  18.274  0.00  0.00    +0.000 C 
ATOM      2  C   UNL     1       3.345   5.843  18.945  0.00  0.00    +0.000 C 
ATOM      3  N   UNL     1       3.236   4.481  18.872  0.00  0.00    +0.000 NA
ATOM      4  C   UNL     1       2.226   4.234  19.644  0.00  0.00    +0.000 C 
ATOM      5  O   UNL     1       1.659   5.282  20.282  0.00  0.00    +0.000 OA
ATOM      6  C   UNL     1       2.334   6.395  19.881  0.00  0.00    +0.000 C 
ATOM      7  O   UNL     1       2.136   7.543  20.224  0.00  0.00    +0.000 OA
ENDROOT
BRANCH   1  11
ATOM      8  C   UNL     1       6.983   5.130  15.400  0.00  0.00    +0.000 A 
ATOM      9  C   UNL     1       5.790   5.730  14.995  0.00  0.00    +0.000 A 
ATOM     10  C   UNL     1       4.882   6.206  15.940  0.00  0.00    +0.000 A 
ATOM     11  C   UNL     1       5.160   6.087  17.307  0.00  0.00    +0.000 A 
ATOM     12  C   UNL     1       6.362   5.484  17.725  0.00  0.00    +0.000 A 
ATOM     13  C   UNL     1       7.261   5.004  16.763  0.00  0.00    +0.000 A 
BRANCH   8  15
ATOM     14  C   UNL     1       7.210   4.635  13.085  0.00  0.00    +0.000 C 
ATOM     15  O   UNL     1       7.797   4.716  14.379  0.00  0.00    +0.000 OA
ENDBRANCH   8  15
BRANCH  12  16
ATOM     16  O   UNL     1       6.568   5.412  19.082  0.00  0.00    +0.000 OA
ATOM     17  C   UNL     1       7.852   5.787  19.567  0.00  0.00    +0.000 C 
ENDBRANCH  12  16
ENDBRANCH   1  11
BRANCH   4  18
ATOM     18  C   UNL     1       1.651   2.863  19.929  0.00  0.00    +0.000 C 
ATOM     19  C   UNL     1       1.341   2.769  21.427  0.00  0.00    +0.000 C 
ATOM     20  C   UNL     1       0.372   2.641  19.110  0.00  0.00    +0.000 C 
ATOM     21  C   UNL     1       2.677   1.785  19.548  0.00  0.00    +0.000 C 
ENDBRANCH   4  18
TORSDOF 4
ENDMDL
MODEL 2
REMARK VINA RESULT:      -6.5      0.362      1.025
REMARK  Name = 
REMARK  9 active torsions:
REMARK  status: ('A' for Active; 'I' for Inactive)
REMARK    1  A    between atoms: C_1  and  O_2
REMARK    2  A    between atoms: O_2  and  C_3
REMARK    3  A    between atoms: C_6  and  C_7
REMARK    4  A    between atoms: C_10  and  C_11
REMARK    5  A    between atoms: C_11  and  C_12
REMARK    6  A    between atoms: C_11  and  C_13
REMARK    7  A    between atoms: C_11  and  C_14
REMARK    8  A    between atoms: C_18  and  O_19
REMARK    9  A    between atoms: O_19  and  C_20
REMARK                            x       y       z     vdW  Elec       q    Type
REMARK                         _______ _______ _______ _____ _____    ______ ____
ROOT
ATOM      1  C   UNL     1       4.176   6.719  18.139  0.00  0.00    +0.000 C 
ATOM      2  C   UNL     1       3.363   5.927  18.845  0.00  0.00    +0.000 C 
ATOM      3  N   UNL     1       3.295   4.560  18.804  0.00  0.00    +0.000 NA
ATOM      4  C   UNL     1       2.309   4.300  19.602  0.00  0.00    +0.000 C 
ATOM      5  O   UNL     1       1.721   5.344  20.227  0.00  0.00    +0.000 OA
ATOM      6  C   UNL     1       2.353   6.469  19.788  0.00  0.00    +0.000 C 
ATOM      7  O   UNL     1       2.125   7.617  20.108  0.00  0.00    +0.000 OA
ENDROOT
BRANCH   1  11
ATOM      8  C   UNL     1       6.931   5.223  15.236  0.00  0.00    +0.000 A 
ATOM      9  C   UNL     1       5.580   5.382  14.925  0.00  0.00    +0.000 A 
ATOM     10  C   UNL     1       4.686   5.861  15.882  0.00  0.00    +0.000 A 
ATOM     11  C   UNL     1       5.138   6.190  17.166  0.00  0.00    +0.000 A 
ATOM     12  C   UNL     1       6.499   6.034  17.488  0.00  0.00    +0.000 A 
ATOM     13  C   UNL     1       7.384   5.544  16.518  0.00  0.00    +0.000 A 
BRANCH   8  15
ATOM     14  C   UNL     1       7.029   4.304  13.045  0.00  0.00    +0.000 C 
ATOM     15  O   UNL     1       7.709   4.758  14.209  0.00  0.00    +0.000 OA
ENDBRANCH   8  15
BRANCH  12  16
ATOM     16  O   UNL     1       6.868   6.385  18.765  0.00  0.00    +0.000 OA
ATOM     17  C   UNL     1       7.847   5.578  19.407  0.00  0.00    +0.000 C 
ENDBRANCH  12  16
ENDBRANCH   1  11
BRANCH   4  18
ATOM     18  C   UNL     1       1.783   2.919  19.929  0.00  0.00    +0.000 C 
ATOM     19  C   UNL     1       0.531   2.663  19.083  0.00  0.00    +0.000 C 
ATOM     20  C   UNL     1       2.850   1.858  19.629  0.00  0.00    +0.000 C 
ATOM     21  C   UNL     1       1.419   2.847  21.420  0.00  0.00    +0.000 C 
ENDBRANCH   4  18
TORSDOF 4
ENDMDL
MODEL 3
REMARK VINA RESULT:      -6.5      3.470      7.234
REMARK  Name = 
REMARK  9 active torsions:
REMARK  status: ('A' for Active; 'I' for Inactive)
REMARK    1  A    between atoms: C_1  and  O_2
REMARK    2  A    between atoms: O_2  and  C_3
REMARK    3  A    between atoms: C_6  and  C_7
REMARK    4  A    between atoms: C_10  and  C_11
REMARK    5  A    between atoms: C_11  and  C_12
REMARK    6  A    between atoms: C_11  and  C_13
REMARK    7  A    between atoms: C_11  and  C_14
REMARK    8  A    between atoms: C_18  and  O_19
REMARK    9  A    between atoms: O_19  and  C_20
REMARK                            x       y       z     vdW  Elec       q    Type
REMARK                         _______ _______ _______ _____ _____    ______ ____
ROOT
ATOM      1  C   UNL     1       2.200   8.172  19.213  0.00  0.00    +0.000 C 
ATOM      2  C   UNL     1       2.405   6.851  19.180  0.00  0.00    +0.000 C 
ATOM      3  N   UNL     1       1.831   5.902  19.982  0.00  0.00    +0.000 NA
ATOM      4  C   UNL     1       2.418   4.813  19.599  0.00  0.00    +0.000 C 
ATOM      5  O   UNL     1       3.301   4.906  18.581  0.00  0.00    +0.000 OA
ATOM      6  C   UNL     1       3.361   6.223  18.235  0.00  0.00    +0.000 C 
ATOM      7  O   UNL     1       4.038   6.727  17.362  0.00  0.00    +0.000 OA
ENDROOT
BRANCH   1  11
ATOM      8  C   UNL     1      -0.359  10.012  22.098  0.00  0.00    +0.000 A 
ATOM      9  C   UNL     1       0.648   9.131  22.494  0.00  0.00    +0.000 A 
ATOM     10  C   UNL     1       1.472   8.527  21.544  0.00  0.00    +0.000 A 
ATOM     11  C   UNL     1       1.296   8.801  20.183  0.00  0.00    +0.000 A 
ATOM     12  C   UNL     1       0.284   9.689  19.774  0.00  0.00    +0.000 A 
ATOM     13  C   UNL     1      -0.541  10.283  20.739  0.00  0.00    +0.000 A 
BRANCH   8  15
ATOM     14  C   UNL     1      -1.438  11.926  23.009  0.00  0.00    +0.000 C 
ATOM     15  O   UNL     1      -1.091  10.550  23.122  0.00  0.00    +0.000 OA
ENDBRANCH   8  15
BRANCH  12  16
ATOM     16  O   UNL     1       0.179   9.915  18.422  0.00  0.00    +0.000 OA
ATOM     17  C   UNL     1      -1.115  10.207  17.908  0.00  0.00    +0.000 C 
ENDBRANCH  12  16
ENDBRANCH   1  11
BRANCH   4  18
ATOM     18  C   UNL     1       2.167   3.432  20.166  0.00  0.00    +0.000 C 
ATOM     19  C   UNL     1       3.288   2.501  19.692  0.00  0.00    +0.000 C 
ATOM     20  C   UNL     1       2.136   3.483  21.700  0.00  0.00    +0.000 C 
ATOM     21  C   UNL     1       0.815   2.906  19.661  0.00  0.00    +0.000 C 
ENDBRANCH   4  18
TORSDOF 4
ENDMDL
MODEL 4
REMARK VINA RESULT:      -6.4      0.950      1.232
REMARK  Name = 
REMARK  9 active torsions:
REMARK  status: ('A' for Active; 'I' for Inactive)
REMARK    1  A    between atoms: C_1  and  O_2
REMARK    2  A    between atoms: O_2  and  C_3
REMARK    3  A    between atoms: C_6  and  C_7
REMARK    4  A    between atoms: C_10  and  C_11
REMARK    5  A    between atoms: C_11  and  C_12
REMARK    6  A    between atoms: C_11  and  C_13
REMARK    7  A    between atoms: C_11  and  C_14
REMARK    8  A    between atoms: C_18  and  O_19
REMARK    9  A    between atoms: O_19  and  C_20
REMARK                            x       y       z     vdW  Elec       q    Type
REMARK                         _______ _______ _______ _____ _____    ______ ____
ROOT
ATOM      1  C   UNL     1       4.224   6.484  17.720  0.00  0.00    +0.000 C 
ATOM      2  C   UNL     1       3.600   5.750  18.648  0.00  0.00    +0.000 C 
ATOM      3  N   UNL     1       3.676   4.395  18.823  0.00  0.00    +0.000 NA
ATOM      4  C   UNL     1       2.836   4.185  19.786  0.00  0.00    +0.000 C 
ATOM      5  O   UNL     1       2.226   5.262  20.327  0.00  0.00    +0.000 OA
ATOM      6  C   UNL     1       2.669   6.350  19.636  0.00  0.00    +0.000 C 
ATOM      7  O   UNL     1       2.361   7.511  19.810  0.00  0.00    +0.000 OA
ENDROOT
BRANCH   1  11
ATOM      8  C   UNL     1       6.716   4.764  14.705  0.00  0.00    +0.000 A 
ATOM      9  C   UNL     1       5.329   4.616  14.657  0.00  0.00    +0.000 A 
ATOM     10  C   UNL     1       4.524   5.173  15.651  0.00  0.00    +0.000 A 
ATOM     11  C   UNL     1       5.102   5.887  16.708  0.00  0.00    +0.000 A 
ATOM     12  C   UNL     1       6.500   6.041  16.765  0.00  0.00    +0.000 A 
ATOM     13  C   UNL     1       7.296   5.471  15.762  0.00  0.00    +0.000 A 
BRANCH   8  15
ATOM     14  C   UNL     1       6.616   3.734  12.565  0.00  0.00    +0.000 C 
ATOM     15  O   UNL     1       7.395   4.185  13.667  0.00  0.00    +0.000 OA
ENDBRANCH   8  15
BRANCH  12  16
ATOM     16  O   UNL     1       6.991   6.762  17.827  0.00  0.00    +0.000 OA
ATOM     17  C   UNL     1       7.744   6.053  18.804  0.00  0.00    +0.000 C 
ENDBRANCH  12  16
ENDBRANCH   1  11
BRANCH   4  18
ATOM     18  C   UNL     1       2.510   2.836  20.391  0.00  0.00    +0.000 C 
ATOM     19  C   UNL     1       3.824   2.139  20.759  0.00  0.00    +0.000 C 
ATOM     20  C   UNL     1       1.636   3.009  21.640  0.00  0.00    +0.000 C 
ATOM     21  C   UNL     1       1.746   1.984  19.366  0.00  0.00    +0.000 C 
ENDBRANCH   4  18
TORSDOF 4
ENDMDL
MODEL 5
REMARK VINA RESULT:      -6.4      1.148      1.585
REMARK  Name = 
REMARK  9 active torsions:
REMARK  status: ('A' for Active; 'I' for Inactive)
REMARK    1  A    between atoms: C_1  and  O_2
REMARK    2  A    between atoms: O_2  and  C_3
REMARK    3  A    between atoms: C_6  and  C_7
REMARK    4  A    between atoms: C_10  and  C_11
REMARK    5  A    between atoms: C_11  and  C_12
REMARK    6  A    between atoms: C_11  and  C_13
REMARK    7  A    between atoms: C_11  and  C_14
REMARK    8  A    between atoms: C_18  and  O_19
REMARK    9  A    between atoms: O_19  and  C_20
REMARK                            x       y       z     vdW  Elec       q    Type
REMARK                         _______ _______ _______ _____ _____    ______ ____
ROOT
ATOM      1  C   UNL     1       4.257   6.444  17.600  0.00  0.00    +0.000 C 
ATOM      2  C   UNL     1       3.654   5.730  18.556  0.00  0.00    +0.000 C 
ATOM      3  N   UNL     1       3.751   4.382  18.770  0.00  0.00    +0.000 NA
ATOM      4  C   UNL     1       2.925   4.189  19.749  0.00  0.00    +0.000 C 
ATOM      5  O   UNL     1       2.306   5.274  20.264  0.00  0.00    +0.000 OA
ATOM      6  C   UNL     1       2.726   6.346  19.537  0.00  0.00    +0.000 C 
ATOM      7  O   UNL     1       2.405   7.508  19.680  0.00  0.00    +0.000 OA
ENDROOT
BRANCH   1  11
ATOM      8  C   UNL     1       6.742   4.677  14.607  0.00  0.00    +0.000 A 
ATOM      9  C   UNL     1       5.352   4.596  14.521  0.00  0.00    +0.000 A 
ATOM     10  C   UNL     1       4.549   5.167  15.508  0.00  0.00    +0.000 A 
ATOM     11  C   UNL     1       5.132   5.829  16.595  0.00  0.00    +0.000 A 
ATOM     12  C   UNL     1       6.533   5.916  16.689  0.00  0.00    +0.000 A 
ATOM     13  C   UNL     1       7.328   5.332  15.693  0.00  0.00    +0.000 A 
BRANCH   8  15
ATOM     14  C   UNL     1       6.640   3.639  12.470  0.00  0.00    +0.000 C 
ATOM     15  O   UNL     1       7.419   4.090  13.571  0.00  0.00    +0.000 OA
ENDBRANCH   8  15
BRANCH  12  16
ATOM     16  O   UNL     1       7.031   6.589  17.780  0.00  0.00    +0.000 OA
ATOM     17  C   UNL     1       7.681   7.832  17.539  0.00  0.00    +0.000 C 
ENDBRANCH  12  16
ENDBRANCH   1  11
BRANCH   4  18
ATOM     18  C   UNL     1       2.624   2.854  20.396  0.00  0.00    +0.000 C 
ATOM     19  C   UNL     1       1.791   2.017  19.419  0.00  0.00    +0.000 C 
ATOM     20  C   UNL     1       3.929   2.123  20.740  0.00  0.00    +0.000 C 
ATOM     21  C   UNL     1       1.826   3.078  21.690  0.00  0.00    +0.000 C 
ENDBRANCH   4  18
TORSDOF 4
ENDMDL
MODEL 6
REMARK VINA RESULT:      -6.4      2.312      3.881
REMARK  Name = 
REMARK  9 active torsions:
REMARK  status: ('A' for Active; 'I' for Inactive)
REMARK    1  A    between atoms: C_1  and  O_2
REMARK    2  A    between atoms: O_2  and  C_3
REMARK    3  A    between atoms: C_6  and  C_7
REMARK    4  A    between atoms: C_10  and  C_11
REMARK    5  A    between atoms: C_11  and  C_12
REMARK    6  A    between atoms: C_11  and  C_13
REMARK    7  A    between atoms: C_11  and  C_14
REMARK    8  A    between atoms: C_18  and  O_19
REMARK    9  A    between atoms: O_19  and  C_20
REMARK                            x       y       z     vdW  Elec       q    Type
REMARK                         _______ _______ _______ _____ _____    ______ ____
ROOT
ATOM      1  C   UNL     1       5.549   3.765  17.605  0.00  0.00    +0.000 C 
ATOM      2  C   UNL     1       4.413   3.505  18.263  0.00  0.00    +0.000 C 
ATOM      3  N   UNL     1       3.781   4.307  19.173  0.00  0.00    +0.000 NA
ATOM      4  C   UNL     1       2.790   3.569  19.563  0.00  0.00    +0.000 C 
ATOM      5  O   UNL     1       2.646   2.360  18.977  0.00  0.00    +0.000 OA
ATOM      6  C   UNL     1       3.679   2.226  18.097  0.00  0.00    +0.000 C 
ATOM      7  O   UNL     1       3.912   1.283  17.370  0.00  0.00    +0.000 OA
ENDROOT
BRANCH   1  11
ATOM      8  C   UNL     1       7.830   7.325  18.221  0.00  0.00    +0.000 A 
ATOM      9  C   UNL     1       7.972   6.228  19.072  0.00  0.00    +0.000 A 
ATOM     10  C   UNL     1       7.215   5.074  18.869  0.00  0.00    +0.000 A 
ATOM     11  C   UNL     1       6.306   5.005  17.807  0.00  0.00    +0.000 A 
ATOM     12  C   UNL     1       6.156   6.106  16.943  0.00  0.00    +0.000 A 
ATOM     13  C   UNL     1       6.919   7.262  17.164  0.00  0.00    +0.000 A 
BRANCH   8  15
ATOM     14  C   UNL     1       8.264   9.648  17.960  0.00  0.00    +0.000 C 
ATOM     15  O   UNL     1       8.636   8.392  18.515  0.00  0.00    +0.000 OA
ENDBRANCH   8  15
BRANCH  12  16
ATOM     16  O   UNL     1       5.251   5.960  15.919  0.00  0.00    +0.000 OA
ATOM     17  C   UNL     1       5.718   5.356  14.718  0.00  0.00    +0.000 C 
ENDBRANCH  12  16
ENDBRANCH   1  11
BRANCH   4  18
ATOM     18  C   UNL     1       1.750   3.962  20.590  0.00  0.00    +0.000 C 
ATOM     19  C   UNL     1       0.384   3.458  20.115  0.00  0.00    +0.000 C 
ATOM     20  C   UNL     1       2.093   3.352  21.956  0.00  0.00    +0.000 C 
ATOM     21  C   UNL     1       1.715   5.492  20.727  0.00  0.00    +0.000 C 
ENDBRANCH   4  18
TORSDOF 4
ENDMDL
MODEL 7
REMARK VINA RESULT:      -6.3      2.853      6.380
REMARK  Name = 
REMARK  9 active torsions:
REMARK  status: ('A' for Active; 'I' for Inactive)
REMARK    1  A    between atoms: C_1  and  O_2
REMARK    2  A    between atoms: O_2  and  C_3
REMARK    3  A    between atoms: C_6  and  C_7
REMARK    4  A    between atoms: C_10  and  C_11
REMARK    5  A    between atoms: C_11  and  C_12
REMARK    6  A    between atoms: C_11  and  C_13
REMARK    7  A    between atoms: C_11  and  C_14
REMARK    8  A    between atoms: C_18  and  O_19
REMARK    9  A    between atoms: O_19  and  C_20
REMARK                            x       y       z     vdW  Elec       q    Type
REMARK                         _______ _______ _______ _____ _____    ______ ____
ROOT
ATOM      1  C   UNL     1       2.975   7.510  18.263  0.00  0.00    +0.000 C 
ATOM      2  C   UNL     1       3.082   6.179  18.188  0.00  0.00    +0.000 C 
ATOM      3  N   UNL     1       2.362   5.248  18.886  0.00  0.00    +0.000 NA
ATOM      4  C   UNL     1       2.900   4.131  18.511  0.00  0.00    +0.000 C 
ATOM      5  O   UNL     1       3.883   4.194  17.586  0.00  0.00    +0.000 OA
ATOM      6  C   UNL     1       4.076   5.514  17.309  0.00  0.00    +0.000 C 
ATOM      7  O   UNL     1       4.871   5.997  16.528  0.00  0.00    +0.000 OA
ENDROOT
BRANCH   1  11
ATOM      8  C   UNL     1       0.277   9.402  20.982  0.00  0.00    +0.000 A 
ATOM      9  C   UNL     1       0.835   8.158  21.278  0.00  0.00    +0.000 A 
ATOM     10  C   UNL     1       1.707   7.543  20.380  0.00  0.00    +0.000 A 
ATOM     11  C   UNL     1       2.031   8.171  19.171  0.00  0.00    +0.000 A 
ATOM     12  C   UNL     1       1.473   9.426  18.864  0.00  0.00    +0.000 A 
ATOM     13  C   UNL     1       0.593  10.028  19.774  0.00  0.00    +0.000 A 
BRANCH   8  15
ATOM     14  C   UNL     1      -0.185   9.661  23.300  0.00  0.00    +0.000 C 
ATOM     15  O   UNL     1      -0.552   9.907  21.948  0.00  0.00    +0.000 OA
ENDBRANCH   8  15
BRANCH  12  16
ATOM     16  O   UNL     1       1.846   9.983  17.664  0.00  0.00    +0.000 OA
ATOM     17  C   UNL     1       2.398  11.294  17.697  0.00  0.00    +0.000 C 
ENDBRANCH  12  16
ENDBRANCH   1  11
BRANCH   4  18
ATOM     18  C   UNL     1       2.492   2.754  18.986  0.00  0.00    +0.000 C 
ATOM     19  C   UNL     1       1.001   2.560  18.689  0.00  0.00    +0.000 C 
ATOM     20  C   UNL     1       3.318   1.676  18.271  0.00  0.00    +0.000 C 
ATOM     21  C   UNL     1       2.732   2.640  20.500  0.00  0.00    +0.000 C 
ENDBRANCH   4  18
TORSDOF 4
ENDMDL
MODEL 8
REMARK VINA RESULT:      -6.2      5.296      7.390
REMARK  Name = 
REMARK  9 active torsions:
REMARK  status: ('A' for Active; 'I' for Inactive)
REMARK    1  A    between atoms: C_1  and  O_2
REMARK    2  A    between atoms: O_2  and  C_3
REMARK    3  A    between atoms: C_6  and  C_7
REMARK    4  A    between atoms: C_10  and  C_11
REMARK    5  A    between atoms: C_11  and  C_12
REMARK    6  A    between atoms: C_11  and  C_13
REMARK    7  A    between atoms: C_11  and  C_14
REMARK    8  A    between atoms: C_18  and  O_19
REMARK    9  A    between atoms: O_19  and  C_20
REMARK                            x       y       z     vdW  Elec       q    Type
REMARK                         _______ _______ _______ _____ _____    ______ ____
ROOT
ATOM      1  C   UNL     1       1.047  10.720  18.981  0.00  0.00    +0.000 C 
ATOM      2  C   UNL     1      -0.160  11.015  18.487  0.00  0.00    +0.000 C 
ATOM      3  N   UNL     1      -1.101  10.138  18.018  0.00  0.00    +0.000 NA
ATOM      4  C   UNL     1      -2.036  10.926  17.589  0.00  0.00    +0.000 C 
ATOM      5  O   UNL     1      -1.858  12.254  17.761  0.00  0.00    +0.000 OA
ATOM      6  C   UNL     1      -0.639  12.413  18.350  0.00  0.00    +0.000 C 
ATOM      7  O   UNL     1      -0.104  13.454  18.673  0.00  0.00    +0.000 OA
ENDROOT
BRANCH   1  11
ATOM      8  C   UNL     1       2.571   6.734  19.176  0.00  0.00    +0.000 A 
ATOM      9  C   UNL     1       2.684   7.486  18.006  0.00  0.00    +0.000 A 
ATOM     10  C   UNL     1       2.175   8.783  17.949  0.00  0.00    +0.000 A 
ATOM     11  C   UNL     1       1.545   9.343  19.066  0.00  0.00    +0.000 A 
ATOM     12  C   UNL     1       1.427   8.592  20.251  0.00  0.00    +0.000 A 
ATOM     13  C   UNL     1       1.938   7.287  20.292  0.00  0.00    +0.000 A 
BRANCH   8  15
ATOM     14  C   UNL     1       4.315   5.344  18.350  0.00  0.00    +0.000 C 
ATOM     15  O   UNL     1       3.121   5.481  19.112  0.00  0.00    +0.000 OA
ENDBRANCH   8  15
BRANCH  12  16
ATOM     16  O   UNL     1       0.805   9.213  21.308  0.00  0.00    +0.000 OA
ATOM     17  C   UNL     1      -0.349   8.580  21.848  0.00  0.00    +0.000 C 
ENDBRANCH  12  16
ENDBRANCH   1  11
BRANCH   4  18
ATOM     18  C   UNL     1      -3.334  10.484  16.951  0.00  0.00    +0.000 C 
ATOM     19  C   UNL     1      -3.885   9.295  17.744  0.00  0.00    +0.000 C 
ATOM     20  C   UNL     1      -4.348  11.636  16.953  0.00  0.00    +0.000 C 
ATOM     21  C   UNL     1      -3.074  10.056  15.498  0.00  0.00    +0.000 C 
ENDBRANCH   4  18
TORSDOF 4
ENDMDL
MODEL 9
REMARK VINA RESULT:      -6.2      5.241      7.481
REMARK  Name = 
REMARK  9 active torsions:
REMARK  status: ('A' for Active; 'I' for Inactive)
REMARK    1  A    between atoms: C_1  and  O_2
REMARK    2  A    between atoms: O_2  and  C_3
REMARK    3  A    between atoms: C_6  and  C_7
REMARK    4  A    between atoms: C_10  and  C_11
REMARK    5  A    between atoms: C_11  and  C_12
REMARK    6  A    between atoms: C_11  and  C_13
REMARK    7  A    between atoms: C_11  and  C_14
REMARK    8  A    between atoms: C_18  and  O_19
REMARK    9  A    between atoms: O_19  and  C_20
REMARK                            x       y       z     vdW  Elec       q    Type
REMARK                         _______ _______ _______ _____ _____    ______ ____
ROOT
ATOM      1  C   UNL     1       1.142  10.657  19.023  0.00  0.00    +0.000 C 
ATOM      2  C   UNL     1      -0.062  10.988  18.543  0.00  0.00    +0.000 C 
ATOM      3  N   UNL     1      -1.017  10.143  18.045  0.00  0.00    +0.000 NA
ATOM      4  C   UNL     1      -1.941  10.960  17.649  0.00  0.00    +0.000 C 
ATOM      5  O   UNL     1      -1.742  12.279  17.869  0.00  0.00    +0.000 OA
ATOM      6  C   UNL     1      -0.520  12.397  18.459  0.00  0.00    +0.000 C 
ATOM      7  O   UNL     1       0.031  13.417  18.819  0.00  0.00    +0.000 OA
ENDROOT
BRANCH   1  11
ATOM      8  C   UNL     1       2.604   6.643  19.065  0.00  0.00    +0.000 A 
ATOM      9  C   UNL     1       2.705   7.428  17.916  0.00  0.00    +0.000 A 
ATOM     10  C   UNL     1       2.215   8.734  17.908  0.00  0.00    +0.000 A 
ATOM     11  C   UNL     1       1.619   9.270  19.056  0.00  0.00    +0.000 A 
ATOM     12  C   UNL     1       1.514   8.485  20.220  0.00  0.00    +0.000 A 
ATOM     13  C   UNL     1       2.004   7.172  20.210  0.00  0.00    +0.000 A 
BRANCH   8  15
ATOM     14  C   UNL     1       3.028   4.541  20.093  0.00  0.00    +0.000 C 
ATOM     15  O   UNL     1       3.132   5.384  18.952  0.00  0.00    +0.000 OA
ENDBRANCH   8  15
BRANCH  12  16
ATOM     16  O   UNL     1       0.925   9.083  21.308  0.00  0.00    +0.000 OA
ATOM     17  C   UNL     1      -0.344   8.587  21.718  0.00  0.00    +0.000 C 
ENDBRANCH  12  16
ENDBRANCH   1  11
BRANCH   4  18
ATOM     18  C   UNL     1      -3.248  10.562  16.998  0.00  0.00    +0.000 C 
ATOM     19  C   UNL     1      -2.992  10.312  15.508  0.00  0.00    +0.000 C 
ATOM     20  C   UNL     1      -3.807   9.294  17.658  0.00  0.00    +0.000 C 
ATOM     21  C   UNL     1      -4.271  11.697  17.160  0.00  0.00    +0.000 C 
ENDBRANCH   4  18
TORSDOF 4
ENDMDL
