MODEL 1
REMARK VINA RESULT:      -7.9      0.000      0.000
REMARK  Name = 
REMARK  7 active torsions:
REMARK  status: ('A' for Active; 'I' for Inactive)
REMARK    1  A    between atoms: C_1  and  C_2
REMARK    2  A    between atoms: C_2  and  C_3
REMARK    3  A    between atoms: C_3  and  S_4
REMARK    4  A    between atoms: S_4  and  N_7
REMARK    5  A    between atoms: C_12  and  C_13
REMARK    6  A    between atoms: C_18  and  C_19
REMARK    7  A    between atoms: N_26  and  C_27
REMARK                            x       y       z     vdW  Elec       q    Type
REMARK                         _______ _______ _______ _____ _____    ______ ____
ROOT
ATOM      1  N   UNL     1       2.992   4.745  20.062  0.00  0.00    +0.000 N 
ATOM      2  C   UNL     1       2.344   5.958  20.029  0.00  0.00    +0.000 A 
ATOM      3  C   UNL     1       2.927   6.733  19.048  0.00  0.00    +0.000 A 
ATOM      4  C   UNL     1       3.984   5.969  18.496  0.00  0.00    +0.000 A 
ATOM      5  C   UNL     1       4.948   6.278  17.522  0.00  0.00    +0.000 A 
ATOM      6  C   UNL     1       5.895   5.325  17.122  0.00  0.00    +0.000 A 
ATOM      7  C   UNL     1       5.927   4.096  17.766  0.00  0.00    +0.000 A 
ATOM      8  C   UNL     1       4.991   3.774  18.774  0.00  0.00    +0.000 A 
ATOM      9  C   UNL     1       4.014   4.717  19.121  0.00  0.00    +0.000 A 
ATOM     10  C   UNL     1       2.550   8.149  18.746  0.00  0.00    +0.000 C 
ATOM     11  N   UNL     1       1.277   8.536  19.416  0.00  0.00    +0.000 NA
ATOM     12  C   UNL     1       1.216   7.997  20.796  0.00  0.00    +0.000 C 
ATOM     13  C   UNL     1       1.214   6.454  20.848  0.00  0.00    +0.000 C 
ENDROOT
BRANCH   6  14
ATOM     14  C   UNL     1       6.875   5.657  16.024  0.00  0.00    +0.000 C 
ATOM     15  O   UNL     1       7.699   6.531  16.215  0.00  0.00    +0.000 OA
ATOM     16  N   UNL     1       6.749   4.962  14.810  0.00  0.00    +0.000 N 
ATOM     17  C   UNL     1       7.685   5.231  13.703  0.00  0.00    +0.000 C 
ATOM     18  C   UNL     1       7.028   4.935  12.346  0.00  0.00    +0.000 C 
ATOM     19  C   UNL     1       6.407   3.525  12.310  0.00  0.00    +0.000 C 
ATOM     20  C   UNL     1       5.631   3.292  11.020  0.00  0.00    +0.000 C 
ATOM     21  C   UNL     1       5.488   3.312  13.513  0.00  0.00    +0.000 C 
ATOM     22  C   UNL     1       6.225   3.603  14.792  0.00  0.00    +0.000 C 
ENDBRANCH   6  14
BRANCH  11  23
ATOM     23  C   UNL     1       1.131  10.018  19.374  0.00  0.00    +0.000 C 
ATOM     24  C   UNL     1       0.775  10.682  20.700  0.00  0.00    +0.000 C 
ATOM     25  C   UNL     1      -0.734  10.650  20.747  0.00  0.00    +0.000 C 
ATOM     26  O   UNL     1      -1.197  10.669  19.394  0.00  0.00    +0.000 OA
ATOM     27  C   UNL     1      -0.066  10.495  18.529  0.00  0.00    +0.000 C 
ENDBRANCH  11  23
BRANCH   1  28
ATOM     28  S   UNL     1       2.553   3.454  21.094  0.00  0.00    +0.000 S 
ATOM     29  O   UNL     1       2.261   4.018  22.384  0.00  0.00    +0.000 OA
ATOM     30  O   UNL     1       3.636   2.484  20.915  0.00  0.00    +0.000 OA
BRANCH  28  31
ATOM     31  C   UNL     1       1.054   2.715  20.463  0.00  0.00    +0.000 C 
BRANCH  31  33
ATOM     32  C   UNL     1       1.838   1.887  18.231  0.00  0.00    +0.000 C 
ATOM     33  C   UNL     1       0.945   2.873  18.963  0.00  0.00    +0.000 C 
ENDBRANCH  31  33
ENDBRANCH  28  31
ENDBRANCH   1  28
TORSDOF 5
ENDMDL
MODEL 2
REMARK VINA RESULT:      -7.8      1.558      7.507
REMARK  Name = 
REMARK  7 active torsions:
REMARK  status: ('A' for Active; 'I' for Inactive)
REMARK    1  A    between atoms: C_1  and  C_2
REMARK    2  A    between atoms: C_2  and  C_3
REMARK    3  A    between atoms: C_3  and  S_4
REMARK    4  A    between atoms: S_4  and  N_7
REMARK    5  A    between atoms: C_12  and  C_13
REMARK    6  A    between atoms: C_18  and  C_19
REMARK    7  A    between atoms: N_26  and  C_27
REMARK                            x       y       z     vdW  Elec       q    Type
REMARK                         _______ _______ _______ _____ _____    ______ ____
ROOT
ATOM      1  N   UNL     1       2.705   4.851  20.038  0.00  0.00    +0.000 N 
ATOM      2  C   UNL     1       3.545   4.895  18.950  0.00  0.00    +0.000 A 
ATOM      3  C   UNL     1       3.523   6.176  18.438  0.00  0.00    +0.000 A 
ATOM      4  C   UNL     1       2.611   6.917  19.228  0.00  0.00    +0.000 A 
ATOM      5  C   UNL     1       2.149   8.240  19.124  0.00  0.00    +0.000 A 
ATOM      6  C   UNL     1       1.245   8.759  20.062  0.00  0.00    +0.000 A 
ATOM      7  C   UNL     1       0.740   7.922  21.046  0.00  0.00    +0.000 A 
ATOM      8  C   UNL     1       1.162   6.579  21.151  0.00  0.00    +0.000 A 
ATOM      9  C   UNL     1       2.111   6.091  20.241  0.00  0.00    +0.000 A 
ATOM     10  C   UNL     1       4.253   6.612  17.208  0.00  0.00    +0.000 C 
ATOM     11  N   UNL     1       5.245   5.593  16.763  0.00  0.00    +0.000 NA
ATOM     12  C   UNL     1       4.692   4.224  16.888  0.00  0.00    +0.000 C 
ATOM     13  C   UNL     1       4.373   3.826  18.346  0.00  0.00    +0.000 C 
ENDROOT
BRANCH   6  14
ATOM     14  C   UNL     1       0.817  10.204  19.970  0.00  0.00    +0.000 C 
ATOM     15  O   UNL     1       1.308  11.013  20.735  0.00  0.00    +0.000 OA
ATOM     16  N   UNL     1      -0.171  10.528  19.027  0.00  0.00    +0.000 N 
ATOM     17  C   UNL     1      -0.622  11.925  18.879  0.00  0.00    +0.000 C 
ATOM     18  C   UNL     1      -2.067  11.982  18.360  0.00  0.00    +0.000 C 
ATOM     19  C   UNL     1      -2.251  11.128  17.090  0.00  0.00    +0.000 C 
ATOM     20  C   UNL     1      -3.713  11.069  16.666  0.00  0.00    +0.000 C 
ATOM     21  C   UNL     1      -1.718   9.713  17.313  0.00  0.00    +0.000 C 
ATOM     22  C   UNL     1      -0.294   9.760  17.796  0.00  0.00    +0.000 C 
ENDBRANCH   6  14
BRANCH  11  23
ATOM     23  C   UNL     1       5.683   5.909  15.375  0.00  0.00    +0.000 C 
ATOM     24  C   UNL     1       5.295   4.884  14.313  0.00  0.00    +0.000 C 
ATOM     25  C   UNL     1       6.427   3.884  14.321  0.00  0.00    +0.000 C 
ATOM     26  O   UNL     1       7.601   4.582  14.741  0.00  0.00    +0.000 OA
ATOM     27  C   UNL     1       7.213   5.887  15.192  0.00  0.00    +0.000 C 
ENDBRANCH  11  23
BRANCH   1  28
ATOM     28  S   UNL     1       2.477   3.466  21.016  0.00  0.00    +0.000 S 
ATOM     29  O   UNL     1       2.311   3.921  22.369  0.00  0.00    +0.000 OA
ATOM     30  O   UNL     1       3.587   2.589  20.638  0.00  0.00    +0.000 OA
BRANCH  28  31
ATOM     31  C   UNL     1       0.961   2.667  20.512  0.00  0.00    +0.000 C 
BRANCH  31  33
ATOM     32  C   UNL     1       0.677   3.305  18.105  0.00  0.00    +0.000 C 
ATOM     33  C   UNL     1       1.031   2.194  19.078  0.00  0.00    +0.000 C 
ENDBRANCH  31  33
ENDBRANCH  28  31
ENDBRANCH   1  28
TORSDOF 5
ENDMDL
MODEL 3
REMARK VINA RESULT:      -7.4      4.448      8.280
REMARK  Name = 
REMARK  7 active torsions:
REMARK  status: ('A' for Active; 'I' for Inactive)
REMARK    1  A    between atoms: C_1  and  C_2
REMARK    2  A    between atoms: C_2  and  C_3
REMARK    3  A    between atoms: C_3  and  S_4
REMARK    4  A    between atoms: S_4  and  N_7
REMARK    5  A    between atoms: C_12  and  C_13
REMARK    6  A    between atoms: C_18  and  C_19
REMARK    7  A    between atoms: N_26  and  C_27
REMARK                            x       y       z     vdW  Elec       q    Type
REMARK                         _______ _______ _______ _____ _____    ______ ____
ROOT
ATOM      1  N   UNL     1      -0.137  12.942  19.905  0.00  0.00    +0.000 N 
ATOM      2  C   UNL     1       0.773  13.868  19.453  0.00  0.00    +0.000 A 
ATOM      3  C   UNL     1       1.758  13.202  18.754  0.00  0.00    +0.000 A 
ATOM      4  C   UNL     1       1.445  11.822  18.819  0.00  0.00    +0.000 A 
ATOM      5  C   UNL     1       2.126  10.688  18.347  0.00  0.00    +0.000 A 
ATOM      6  C   UNL     1       1.588   9.405  18.520  0.00  0.00    +0.000 A 
ATOM      7  C   UNL     1       0.413   9.258  19.243  0.00  0.00    +0.000 A 
ATOM      8  C   UNL     1      -0.273  10.380  19.758  0.00  0.00    +0.000 A 
ATOM      9  C   UNL     1       0.248  11.661  19.527  0.00  0.00    +0.000 A 
ATOM     10  C   UNL     1       2.968  13.851  18.161  0.00  0.00    +0.000 C 
ATOM     11  N   UNL     1       2.847  15.336  18.147  0.00  0.00    +0.000 NA
ATOM     12  C   UNL     1       2.242  15.832  19.406  0.00  0.00    +0.000 C 
ATOM     13  C   UNL     1       0.795  15.339  19.623  0.00  0.00    +0.000 C 
ENDROOT
BRANCH   6  14
ATOM     14  C   UNL     1       2.304   8.208  17.942  0.00  0.00    +0.000 C 
ATOM     15  O   UNL     1       2.844   8.313  16.857  0.00  0.00    +0.000 OA
ATOM     16  N   UNL     1       2.264   7.012  18.677  0.00  0.00    +0.000 N 
ATOM     17  C   UNL     1       2.956   5.812  18.173  0.00  0.00    +0.000 C 
ATOM     18  C   UNL     1       2.280   4.532  18.690  0.00  0.00    +0.000 C 
ATOM     19  C   UNL     1       2.107   4.558  20.221  0.00  0.00    +0.000 C 
ATOM     20  C   UNL     1       1.306   3.358  20.710  0.00  0.00    +0.000 C 
ATOM     21  C   UNL     1       1.425   5.852  20.663  0.00  0.00    +0.000 C 
ATOM     22  C   UNL     1       2.171   7.045  20.130  0.00  0.00    +0.000 C 
ENDBRANCH   6  14
BRANCH  11  23
ATOM     23  C   UNL     1       4.184  15.934  17.879  0.00  0.00    +0.000 C 
ATOM     24  C   UNL     1       5.364  14.970  17.958  0.00  0.00    +0.000 C 
ATOM     25  C   UNL     1       5.773  14.989  19.411  0.00  0.00    +0.000 C 
ATOM     26  O   UNL     1       5.417  16.272  19.932  0.00  0.00    +0.000 OA
ATOM     27  C   UNL     1       4.627  16.954  18.947  0.00  0.00    +0.000 C 
ENDBRANCH  11  23
BRANCH   1  28
ATOM     28  S   UNL     1      -1.558  13.340  20.771  0.00  0.00    +0.000 S 
ATOM     29  O   UNL     1      -2.590  12.439  20.335  0.00  0.00    +0.000 OA
ATOM     30  O   UNL     1      -1.683  14.787  20.584  0.00  0.00    +0.000 OA
BRANCH  28  31
ATOM     31  C   UNL     1      -1.261  13.041  22.506  0.00  0.00    +0.000 C 
BRANCH  31  33
ATOM     32  C   UNL     1      -1.075  10.629  23.160  0.00  0.00    +0.000 C 
ATOM     33  C   UNL     1      -2.004  11.819  22.996  0.00  0.00    +0.000 C 
ENDBRANCH  31  33
ENDBRANCH  28  31
ENDBRANCH   1  28
TORSDOF 5
ENDMDL
MODEL 4
REMARK VINA RESULT:      -7.4      4.385      8.098
REMARK  Name = 
REMARK  7 active torsions:
REMARK  status: ('A' for Active; 'I' for Inactive)
REMARK    1  A    between atoms: C_1  and  C_2
REMARK    2  A    between atoms: C_2  and  C_3
REMARK    3  A    between atoms: C_3  and  S_4
REMARK    4  A    between atoms: S_4  and  N_7
REMARK    5  A    between atoms: C_12  and  C_13
REMARK    6  A    between atoms: C_18  and  C_19
REMARK    7  A    between atoms: N_26  and  C_27
REMARK                            x       y       z     vdW  Elec       q    Type
REMARK                         _______ _______ _______ _____ _____    ______ ____
ROOT
ATOM      1  N   UNL     1      -0.181  12.262  21.491  0.00  0.00    +0.000 N 
ATOM      2  C   UNL     1       0.287  13.366  20.816  0.00  0.00    +0.000 A 
ATOM      3  C   UNL     1       1.019  12.931  19.730  0.00  0.00    +0.000 A 
ATOM      4  C   UNL     1       1.017  11.515  19.776  0.00  0.00    +0.000 A 
ATOM      5  C   UNL     1       1.652  10.556  18.969  0.00  0.00    +0.000 A 
ATOM      6  C   UNL     1       1.472   9.186  19.209  0.00  0.00    +0.000 A 
ATOM      7  C   UNL     1       0.729   8.786  20.310  0.00  0.00    +0.000 A 
ATOM      8  C   UNL     1       0.109   9.731  21.157  0.00  0.00    +0.000 A 
ATOM      9  C   UNL     1       0.250  11.097  20.870  0.00  0.00    +0.000 A 
ATOM     10  C   UNL     1       1.752  13.827  18.785  0.00  0.00    +0.000 C 
ATOM     11  N   UNL     1       1.365  15.255  18.964  0.00  0.00    +0.000 NA
ATOM     12  C   UNL     1       1.228  15.593  20.401  0.00  0.00    +0.000 C 
ATOM     13  C   UNL     1       0.103  14.806  21.108  0.00  0.00    +0.000 C 
ENDROOT
BRANCH   6  14
ATOM     14  C   UNL     1       2.108   8.175  18.286  0.00  0.00    +0.000 C 
ATOM     15  O   UNL     1       2.498   8.539  17.193  0.00  0.00    +0.000 OA
ATOM     16  N   UNL     1       2.170   6.843  18.728  0.00  0.00    +0.000 N 
ATOM     17  C   UNL     1       2.792   5.811  17.878  0.00  0.00    +0.000 C 
ATOM     18  C   UNL     1       2.194   4.426  18.173  0.00  0.00    +0.000 C 
ATOM     19  C   UNL     1       2.228   4.100  19.679  0.00  0.00    +0.000 C 
ATOM     20  C   UNL     1       1.502   2.795  19.982  0.00  0.00    +0.000 C 
ATOM     21  C   UNL     1       1.607   5.238  20.489  0.00  0.00    +0.000 C 
ATOM     22  C   UNL     1       2.272   6.545  20.150  0.00  0.00    +0.000 C 
ENDBRANCH   6  14
BRANCH  11  23
ATOM     23  C   UNL     1       2.351  16.123  18.263  0.00  0.00    +0.000 C 
ATOM     24  C   UNL     1       3.488  15.390  17.557  0.00  0.00    +0.000 C 
ATOM     25  C   UNL     1       4.552  15.230  18.617  0.00  0.00    +0.000 C 
ATOM     26  O   UNL     1       4.400  16.318  19.532  0.00  0.00    +0.000 OA
ATOM     27  C   UNL     1       3.181  17.005  19.216  0.00  0.00    +0.000 C 
ENDBRANCH  11  23
BRANCH   1  28
ATOM     28  S   UNL     1      -1.190  12.341  22.870  0.00  0.00    +0.000 S 
ATOM     29  O   UNL     1      -0.803  13.508  23.616  0.00  0.00    +0.000 OA
ATOM     30  O   UNL     1      -1.088  11.000  23.450  0.00  0.00    +0.000 OA
BRANCH  28  31
ATOM     31  C   UNL     1      -2.874  12.568  22.323  0.00  0.00    +0.000 C 
BRANCH  31  33
ATOM     32  C   UNL     1      -4.198  12.462  24.448  0.00  0.00    +0.000 C 
ATOM     33  C   UNL     1      -3.686  13.352  23.330  0.00  0.00    +0.000 C 
ENDBRANCH  31  33
ENDBRANCH  28  31
ENDBRANCH   1  28
TORSDOF 5
ENDMDL
MODEL 5
REMARK VINA RESULT:      -7.1      4.385      7.975
REMARK  Name = 
REMARK  7 active torsions:
REMARK  status: ('A' for Active; 'I' for Inactive)
REMARK    1  A    between atoms: C_1  and  C_2
REMARK    2  A    between atoms: C_2  and  C_3
REMARK    3  A    between atoms: C_3  and  S_4
REMARK    4  A    between atoms: S_4  and  N_7
REMARK    5  A    between atoms: C_12  and  C_13
REMARK    6  A    between atoms: C_18  and  C_19
REMARK    7  A    between atoms: N_26  and  C_27
REMARK                            x       y       z     vdW  Elec       q    Type
REMARK                         _______ _______ _______ _____ _____    ______ ____
ROOT
ATOM      1  N   UNL     1       0.088  12.383  21.253  0.00  0.00    +0.000 N 
ATOM      2  C   UNL     1       0.647  13.437  20.569  0.00  0.00    +0.000 A 
ATOM      3  C   UNL     1       1.373  12.931  19.511  0.00  0.00    +0.000 A 
ATOM      4  C   UNL     1       1.273  11.520  19.583  0.00  0.00    +0.000 A 
ATOM      5  C   UNL     1       1.860  10.503  18.812  0.00  0.00    +0.000 A 
ATOM      6  C   UNL     1       1.581   9.154  19.073  0.00  0.00    +0.000 A 
ATOM      7  C   UNL     1       0.786   8.828  20.163  0.00  0.00    +0.000 A 
ATOM      8  C   UNL     1       0.213   9.831  20.975  0.00  0.00    +0.000 A 
ATOM      9  C   UNL     1       0.454  11.178  20.666  0.00  0.00    +0.000 A 
ATOM     10  C   UNL     1       2.189  13.755  18.567  0.00  0.00    +0.000 C 
ATOM     11  N   UNL     1       1.896  15.209  18.709  0.00  0.00    +0.000 NA
ATOM     12  C   UNL     1       1.749  15.586  20.135  0.00  0.00    +0.000 C 
ATOM     13  C   UNL     1       0.556  14.892  20.829  0.00  0.00    +0.000 C 
ENDROOT
BRANCH   6  14
ATOM     14  C   UNL     1       2.168   8.082  18.187  0.00  0.00    +0.000 C 
ATOM     15  O   UNL     1       2.573   8.389  17.081  0.00  0.00    +0.000 OA
ATOM     16  N   UNL     1       2.169   6.766  18.675  0.00  0.00    +0.000 N 
ATOM     17  C   UNL     1       2.740   5.676  17.862  0.00  0.00    +0.000 C 
ATOM     18  C   UNL     1       2.080   4.332  18.205  0.00  0.00    +0.000 C 
ATOM     19  C   UNL     1       2.100   4.058  19.721  0.00  0.00    +0.000 C 
ATOM     20  C   UNL     1       1.315   2.799  20.070  0.00  0.00    +0.000 C 
ATOM     21  C   UNL     1       1.535   5.251  20.491  0.00  0.00    +0.000 C 
ATOM     22  C   UNL     1       2.259   6.513  20.106  0.00  0.00    +0.000 C 
ENDBRANCH   6  14
BRANCH  11  23
ATOM     23  C   UNL     1       2.956  15.993  18.017  0.00  0.00    +0.000 C 
ATOM     24  C   UNL     1       4.171  15.193  17.556  0.00  0.00    +0.000 C 
ATOM     25  C   UNL     1       5.102  15.199  18.745  0.00  0.00    +0.000 C 
ATOM     26  O   UNL     1       4.839  16.398  19.479  0.00  0.00    +0.000 OA
ATOM     27  C   UNL     1       3.664  17.013  18.931  0.00  0.00    +0.000 C 
ENDBRANCH  11  23
BRANCH   1  28
ATOM     28  S   UNL     1      -0.945  12.559  22.605  0.00  0.00    +0.000 S 
ATOM     29  O   UNL     1      -0.722  13.872  23.144  0.00  0.00    +0.000 OA
ATOM     30  O   UNL     1      -0.684  11.356  23.399  0.00  0.00    +0.000 OA
BRANCH  28  31
ATOM     31  C   UNL     1      -2.635  12.475  22.035  0.00  0.00    +0.000 C 
BRANCH  31  33
ATOM     32  C   UNL     1      -3.026  12.265  19.568  0.00  0.00    +0.000 C 
ATOM     33  C   UNL     1      -2.820  13.219  20.731  0.00  0.00    +0.000 C 
ENDBRANCH  31  33
ENDBRANCH  28  31
ENDBRANCH   1  28
TORSDOF 5
ENDMDL
MODEL 6
REMARK VINA RESULT:      -7.0      7.992     11.336
REMARK  Name = 
REMARK  7 active torsions:
REMARK  status: ('A' for Active; 'I' for Inactive)
REMARK    1  A    between atoms: C_1  and  C_2
REMARK    2  A    between atoms: C_2  and  C_3
REMARK    3  A    between atoms: C_3  and  S_4
REMARK    4  A    between atoms: S_4  and  N_7
REMARK    5  A    between atoms: C_12  and  C_13
REMARK    6  A    between atoms: C_18  and  C_19
REMARK    7  A    between atoms: N_26  and  C_27
REMARK                            x       y       z     vdW  Elec       q    Type
REMARK                         _______ _______ _______ _____ _____    ______ ____
ROOT
ATOM      1  N   UNL     1       8.398  14.208  19.915  0.00  0.00    +0.000 N 
ATOM      2  C   UNL     1       8.284  13.855  21.240  0.00  0.00    +0.000 A 
ATOM      3  C   UNL     1       7.018  14.195  21.670  0.00  0.00    +0.000 A 
ATOM      4  C   UNL     1       6.362  14.804  20.573  0.00  0.00    +0.000 A 
ATOM      5  C   UNL     1       5.094  15.397  20.458  0.00  0.00    +0.000 A 
ATOM      6  C   UNL     1       4.656  15.921  19.233  0.00  0.00    +0.000 A 
ATOM      7  C   UNL     1       5.527  15.928  18.153  0.00  0.00    +0.000 A 
ATOM      8  C   UNL     1       6.820  15.369  18.253  0.00  0.00    +0.000 A 
ATOM      9  C   UNL     1       7.222  14.797  19.468  0.00  0.00    +0.000 A 
ATOM     10  C   UNL     1       6.526  14.035  23.073  0.00  0.00    +0.000 C 
ATOM     11  N   UNL     1       7.446  13.195  23.890  0.00  0.00    +0.000 NA
ATOM     12  C   UNL     1       8.862  13.521  23.600  0.00  0.00    +0.000 C 
ATOM     13  C   UNL     1       9.272  13.221  22.142  0.00  0.00    +0.000 C 
ENDROOT
BRANCH   6  14
ATOM     14  C   UNL     1       3.263  16.490  19.116  0.00  0.00    +0.000 C 
ATOM     15  O   UNL     1       3.104  17.689  19.249  0.00  0.00    +0.000 OA
ATOM     16  N   UNL     1       2.209  15.587  18.906  0.00  0.00    +0.000 N 
ATOM     17  C   UNL     1       0.827  16.082  18.770  0.00  0.00    +0.000 C 
ATOM     18  C   UNL     1      -0.184  15.014  19.216  0.00  0.00    +0.000 C 
ATOM     19  C   UNL     1       0.068  13.664  18.518  0.00  0.00    +0.000 C 
ATOM     20  C   UNL     1      -0.840  12.573  19.072  0.00  0.00    +0.000 C 
ATOM     21  C   UNL     1       1.531  13.246  18.668  0.00  0.00    +0.000 C 
ATOM     22  C   UNL     1       2.440  14.343  18.184  0.00  0.00    +0.000 C 
ENDBRANCH   6  14
BRANCH  11  23
ATOM     23  C   UNL     1       7.105  13.352  25.331  0.00  0.00    +0.000 C 
ATOM     24  C   UNL     1       7.455  12.165  26.223  0.00  0.00    +0.000 C 
ATOM     25  C   UNL     1       6.243  11.267  26.152  0.00  0.00    +0.000 C 
ATOM     26  O   UNL     1       5.113  12.106  25.899  0.00  0.00    +0.000 OA
ATOM     27  C   UNL     1       5.589  13.426  25.600  0.00  0.00    +0.000 C 
ENDBRANCH  11  23
BRANCH   1  28
ATOM     28  S   UNL     1       9.787  13.910  18.962  0.00  0.00    +0.000 S 
ATOM     29  O   UNL     1      10.789  13.352  19.829  0.00  0.00    +0.000 OA
ATOM     30  O   UNL     1      10.007  15.180  18.265  0.00  0.00    +0.000 OA
BRANCH  28  31
ATOM     31  C   UNL     1       9.373  12.682  17.734  0.00  0.00    +0.000 C 
BRANCH  31  33
ATOM     32  C   UNL     1       8.869  10.325  18.418  0.00  0.00    +0.000 C 
ATOM     33  C   UNL     1       9.955  11.330  18.080  0.00  0.00    +0.000 C 
ENDBRANCH  31  33
ENDBRANCH  28  31
ENDBRANCH   1  28
TORSDOF 5
ENDMDL
MODEL 7
REMARK VINA RESULT:      -7.0      1.891      7.755
REMARK  Name = 
REMARK  7 active torsions:
REMARK  status: ('A' for Active; 'I' for Inactive)
REMARK    1  A    between atoms: C_1  and  C_2
REMARK    2  A    between atoms: C_2  and  C_3
REMARK    3  A    between atoms: C_3  and  S_4
REMARK    4  A    between atoms: S_4  and  N_7
REMARK    5  A    between atoms: C_12  and  C_13
REMARK    6  A    between atoms: C_18  and  C_19
REMARK    7  A    between atoms: N_26  and  C_27
REMARK                            x       y       z     vdW  Elec       q    Type
REMARK                         _______ _______ _______ _____ _____    ______ ____
ROOT
ATOM      1  N   UNL     1       2.317   4.835  20.002  0.00  0.00    +0.000 N 
ATOM      2  C   UNL     1       3.200   4.884  18.948  0.00  0.00    +0.000 A 
ATOM      3  C   UNL     1       3.297   6.194  18.525  0.00  0.00    +0.000 A 
ATOM      4  C   UNL     1       2.413   6.951  19.332  0.00  0.00    +0.000 A 
ATOM      5  C   UNL     1       2.058   8.310  19.302  0.00  0.00    +0.000 A 
ATOM      6  C   UNL     1       1.159   8.836  20.241  0.00  0.00    +0.000 A 
ATOM      7  C   UNL     1       0.554   7.979  21.149  0.00  0.00    +0.000 A 
ATOM      8  C   UNL     1       0.868   6.602  21.176  0.00  0.00    +0.000 A 
ATOM      9  C   UNL     1       1.812   6.102  20.268  0.00  0.00    +0.000 A 
ATOM     10  C   UNL     1       4.106   6.651  17.354  0.00  0.00    +0.000 C 
ATOM     11  N   UNL     1       5.034   5.588  16.874  0.00  0.00    +0.000 NA
ATOM     12  C   UNL     1       4.374   4.261  16.887  0.00  0.00    +0.000 C 
ATOM     13  C   UNL     1       3.968   3.795  18.301  0.00  0.00    +0.000 C 
ENDROOT
BRANCH   6  14
ATOM     14  C   UNL     1       0.847  10.313  20.234  0.00  0.00    +0.000 C 
ATOM     15  O   UNL     1       1.481  11.053  20.963  0.00  0.00    +0.000 OA
ATOM     16  N   UNL     1      -0.204  10.749  19.411  0.00  0.00    +0.000 N 
ATOM     17  C   UNL     1      -0.549  12.181  19.349  0.00  0.00    +0.000 C 
ATOM     18  C   UNL     1      -2.031  12.373  18.990  0.00  0.00    +0.000 C 
ATOM     19  C   UNL     1      -2.417  11.581  17.725  0.00  0.00    +0.000 C 
ATOM     20  C   UNL     1      -3.916  11.656  17.459  0.00  0.00    +0.000 C 
ATOM     21  C   UNL     1      -1.985  10.121  17.853  0.00  0.00    +0.000 C 
ATOM     22  C   UNL     1      -0.519  10.036  18.181  0.00  0.00    +0.000 C 
ENDBRANCH   6  14
BRANCH  11  23
ATOM     23  C   UNL     1       5.550   5.959  15.527  0.00  0.00    +0.000 C 
ATOM     24  C   UNL     1       5.365   4.906  14.439  0.00  0.00    +0.000 C 
ATOM     25  C   UNL     1       6.593   4.033  14.543  0.00  0.00    +0.000 C 
ATOM     26  O   UNL     1       7.646   4.850  15.059  0.00  0.00    +0.000 OA
ATOM     27  C   UNL     1       7.084   6.103  15.473  0.00  0.00    +0.000 C 
ENDBRANCH  11  23
BRANCH   1  28
ATOM     28  S   UNL     1       1.945   3.411  20.873  0.00  0.00    +0.000 S 
ATOM     29  O   UNL     1       0.586   3.063  20.562  0.00  0.00    +0.000 OA
ATOM     30  O   UNL     1       2.354   3.727  22.244  0.00  0.00    +0.000 OA
BRANCH  28  31
ATOM     31  C   UNL     1       3.001   2.098  20.282  0.00  0.00    +0.000 C 
BRANCH  31  33
ATOM     32  C   UNL     1       5.191   0.913  20.564  0.00  0.00    +0.000 C 
ATOM     33  C   UNL     1       4.263   1.984  21.107  0.00  0.00    +0.000 C 
ENDBRANCH  31  33
ENDBRANCH  28  31
ENDBRANCH   1  28
TORSDOF 5
ENDMDL
MODEL 8
REMARK VINA RESULT:      -6.9      4.589      8.399
REMARK  Name = 
REMARK  7 active torsions:
REMARK  status: ('A' for Active; 'I' for Inactive)
REMARK    1  A    between atoms: C_1  and  C_2
REMARK    2  A    between atoms: C_2  and  C_3
REMARK    3  A    between atoms: C_3  and  S_4
REMARK    4  A    between atoms: S_4  and  N_7
REMARK    5  A    between atoms: C_12  and  C_13
REMARK    6  A    between atoms: C_18  and  C_19
REMARK    7  A    between atoms: N_26  and  C_27
REMARK                            x       y       z     vdW  Elec       q    Type
REMARK                         _______ _______ _______ _____ _____    ______ ____
ROOT
ATOM      1  N   UNL     1       0.121  13.140  20.182  0.00  0.00    +0.000 N 
ATOM      2  C   UNL     1       1.043  14.036  19.695  0.00  0.00    +0.000 A 
ATOM      3  C   UNL     1       1.952  13.345  18.922  0.00  0.00    +0.000 A 
ATOM      4  C   UNL     1       1.581  11.979  18.977  0.00  0.00    +0.000 A 
ATOM      5  C   UNL     1       2.181  10.828  18.439  0.00  0.00    +0.000 A 
ATOM      6  C   UNL     1       1.597   9.565  18.617  0.00  0.00    +0.000 A 
ATOM      7  C   UNL     1       0.463   9.453  19.407  0.00  0.00    +0.000 A 
ATOM      8  C   UNL     1      -0.140  10.591  19.988  0.00  0.00    +0.000 A 
ATOM      9  C   UNL     1       0.424  11.853  19.754  0.00  0.00    +0.000 A 
ATOM     10  C   UNL     1       3.152  13.954  18.269  0.00  0.00    +0.000 C 
ATOM     11  N   UNL     1       3.098  15.443  18.295  0.00  0.00    +0.000 NA
ATOM     12  C   UNL     1       2.593  15.935  19.599  0.00  0.00    +0.000 C 
ATOM     13  C   UNL     1       1.141  15.500  19.895  0.00  0.00    +0.000 C 
ENDROOT
BRANCH   6  14
ATOM     14  C   UNL     1       2.222   8.353  17.970  0.00  0.00    +0.000 C 
ATOM     15  O   UNL     1       2.693   8.458  16.853  0.00  0.00    +0.000 OA
ATOM     16  N   UNL     1       2.182   7.145  18.684  0.00  0.00    +0.000 N 
ATOM     17  C   UNL     1       2.787   5.928  18.113  0.00  0.00    +0.000 C 
ATOM     18  C   UNL     1       2.094   4.666  18.651  0.00  0.00    +0.000 C 
ATOM     19  C   UNL     1       2.025   4.667  20.190  0.00  0.00    +0.000 C 
ATOM     20  C   UNL     1       1.209   3.490  20.711  0.00  0.00    +0.000 C 
ATOM     21  C   UNL     1       1.429   5.978  20.701  0.00  0.00    +0.000 C 
ATOM     22  C   UNL     1       2.187   7.151  20.141  0.00  0.00    +0.000 C 
ENDBRANCH   6  14
BRANCH  11  23
ATOM     23  C   UNL     1       4.442  15.989  17.959  0.00  0.00    +0.000 C 
ATOM     24  C   UNL     1       5.584  14.977  17.967  0.00  0.00    +0.000 C 
ATOM     25  C   UNL     1       6.071  14.967  19.396  0.00  0.00    +0.000 C 
ATOM     26  O   UNL     1       5.796  16.259  19.943  0.00  0.00    +0.000 OA
ATOM     27  C   UNL     1       4.984  16.981  19.007  0.00  0.00    +0.000 C 
ENDBRANCH  11  23
BRANCH   1  28
ATOM     28  S   UNL     1      -1.226  13.578  21.142  0.00  0.00    +0.000 S 
ATOM     29  O   UNL     1      -1.805  14.754  20.553  0.00  0.00    +0.000 OA
ATOM     30  O   UNL     1      -0.688  13.596  22.505  0.00  0.00    +0.000 OA
BRANCH  28  31
ATOM     31  C   UNL     1      -2.431  12.263  21.053  0.00  0.00    +0.000 C 
BRANCH  31  33
ATOM     32  C   UNL     1      -3.281  11.800  18.742  0.00  0.00    +0.000 C 
ATOM     33  C   UNL     1      -3.507  12.563  20.034  0.00  0.00    +0.000 C 
ENDBRANCH  31  33
ENDBRANCH  28  31
ENDBRANCH   1  28
TORSDOF 5
ENDMDL
MODEL 9
REMARK VINA RESULT:      -6.9      4.955      9.085
REMARK  Name = 
REMARK  7 active torsions:
REMARK  status: ('A' for Active; 'I' for Inactive)
REMARK    1  A    between atoms: C_1  and  C_2
REMARK    2  A    between atoms: C_2  and  C_3
REMARK    3  A    between atoms: C_3  and  S_4
REMARK    4  A    between atoms: S_4  and  N_7
REMARK    5  A    between atoms: C_12  and  C_13
REMARK    6  A    between atoms: C_18  and  C_19
REMARK    7  A    between atoms: N_26  and  C_27
REMARK                            x       y       z     vdW  Elec       q    Type
REMARK                         _______ _______ _______ _____ _____    ______ ____
ROOT
ATOM      1  N   UNL     1      -2.007  13.202  20.444  0.00  0.00    +0.000 N 
ATOM      2  C   UNL     1      -1.351  14.362  20.104  0.00  0.00    +0.000 A 
ATOM      3  C   UNL     1      -0.203  14.024  19.416  0.00  0.00    +0.000 A 
ATOM      4  C   UNL     1      -0.152  12.609  19.374  0.00  0.00    +0.000 A 
ATOM      5  C   UNL     1       0.815  11.727  18.865  0.00  0.00    +0.000 A 
ATOM      6  C   UNL     1       0.620  10.339  18.923  0.00  0.00    +0.000 A 
ATOM      7  C   UNL     1      -0.502   9.843  19.571  0.00  0.00    +0.000 A 
ATOM      8  C   UNL     1      -1.472  10.709  20.121  0.00  0.00    +0.000 A 
ATOM      9  C   UNL     1      -1.292  12.095  20.004  0.00  0.00    +0.000 A 
ATOM     10  C   UNL     1       0.818  15.004  18.934  0.00  0.00    +0.000 C 
ATOM     11  N   UNL     1       0.319  16.406  19.011  0.00  0.00    +0.000 NA
ATOM     12  C   UNL     1      -0.437  16.633  20.266  0.00  0.00    +0.000 C 
ATOM     13  C   UNL     1      -1.715  15.772  20.372  0.00  0.00    +0.000 C 
ENDROOT
BRANCH   6  14
ATOM     14  C   UNL     1       1.641   9.413  18.308  0.00  0.00    +0.000 C 
ATOM     15  O   UNL     1       2.184   9.742  17.270  0.00  0.00    +0.000 OA
ATOM     16  N   UNL     1       1.873   8.186  18.950  0.00  0.00    +0.000 N 
ATOM     17  C   UNL     1       2.868   7.244  18.405  0.00  0.00    +0.000 C 
ATOM     18  C   UNL     1       2.515   5.797  18.783  0.00  0.00    +0.000 C 
ATOM     19  C   UNL     1       2.275   5.646  20.298  0.00  0.00    +0.000 C 
ATOM     20  C   UNL     1       1.782   4.246  20.646  0.00  0.00    +0.000 C 
ATOM     21  C   UNL     1       1.268   6.686  20.788  0.00  0.00    +0.000 C 
ATOM     22  C   UNL     1       1.711   8.069  20.392  0.00  0.00    +0.000 C 
ENDBRANCH   6  14
BRANCH  11  23
ATOM     23  C   UNL     1       1.466  17.344  18.857  0.00  0.00    +0.000 C 
ATOM     24  C   UNL     1       1.166  18.629  18.092  0.00  0.00    +0.000 C 
ATOM     25  C   UNL     1       1.410  18.275  16.644  0.00  0.00    +0.000 C 
ATOM     26  O   UNL     1       2.390  17.235  16.626  0.00  0.00    +0.000 OA
ATOM     27  C   UNL     1       2.600  16.789  17.973  0.00  0.00    +0.000 C 
ENDBRANCH  11  23
BRANCH   1  28
ATOM     28  S   UNL     1      -3.512  13.156  21.256  0.00  0.00    +0.000 S 
ATOM     29  O   UNL     1      -3.926  14.517  21.463  0.00  0.00    +0.000 OA
ATOM     30  O   UNL     1      -3.269  12.255  22.385  0.00  0.00    +0.000 OA
BRANCH  28  31
ATOM     31  C   UNL     1      -4.705  12.372  20.183  0.00  0.00    +0.000 C 
BRANCH  31  33
ATOM     32  C   UNL     1      -6.933  11.226  20.150  0.00  0.00    +0.000 C 
ATOM     33  C   UNL     1      -6.056  12.249  20.850  0.00  0.00    +0.000 C 
ENDBRANCH  31  33
ENDBRANCH  28  31
ENDBRANCH   1  28
TORSDOF 5
ENDMDL
