MODEL 1
REMARK VINA RESULT:      -7.2      0.000      0.000
REMARK  Name = 
REMARK  8 active torsions:
REMARK  status: ('A' for Active; 'I' for Inactive)
REMARK    1  A    between atoms: C_1  and  C_2
REMARK    2  A    between atoms: C_2  and  O_3
REMARK    3  A    between atoms: O_3  and  C_4
REMARK    4  A    between atoms: C_10  and  S_11
REMARK    5  A    between atoms: S_11  and  N_14
REMARK    6  A    between atoms: N_17  and  C_18
REMARK    7  A    between atoms: C_21  and  C_22
REMARK    8  A    between atoms: C_23  and  C_24
REMARK                            x       y       z     vdW  Elec       q    Type
REMARK                         _______ _______ _______ _____ _____    ______ ____
ROOT
ATOM      1  N   UNL     1       2.526   7.454  19.037  0.00  0.00    +0.000 NA
ATOM      2  C   UNL     1       2.660   8.433  17.936  0.00  0.00    +0.000 C 
ATOM      3  C   UNL     1       1.327   9.117  17.592  0.00  0.00    +0.000 C 
ATOM      4  N   UNL     1       0.548   9.559  18.775  0.00  0.00    +0.000 N 
ATOM      5  C   UNL     1       0.637   8.722  20.008  0.00  0.00    +0.000 C 
ATOM      6  C   UNL     1       2.029   8.113  20.256  0.00  0.00    +0.000 C 
ENDROOT
BRANCH   4   7
ATOM      7  C   UNL     1      -0.698  10.184  18.536  0.00  0.00    +0.000 A 
ATOM      8  C   UNL     1      -1.495   9.817  17.443  0.00  0.00    +0.000 A 
ATOM      9  C   UNL     1      -2.743  10.401  17.190  0.00  0.00    +0.000 A 
ATOM     10  C   UNL     1      -3.270  11.374  18.034  0.00  0.00    +0.000 A 
ATOM     11  C   UNL     1      -4.619  11.959  17.719  0.00  0.00    +0.000 C 
ATOM     12  C   UNL     1      -2.528  11.749  19.166  0.00  0.00    +0.000 A 
ATOM     13  C   UNL     1      -3.032  12.758  20.167  0.00  0.00    +0.000 C 
ATOM     14  C   UNL     1      -1.258  11.157  19.389  0.00  0.00    +0.000 A 
ENDBRANCH   4   7
BRANCH   1  15
ATOM     15  S   UNL     1       2.420   5.780  18.821  0.00  0.00    +0.000 S 
ATOM     16  O   UNL     1       1.352   5.583  17.866  0.00  0.00    +0.000 OA
ATOM     17  O   UNL     1       2.367   5.179  20.140  0.00  0.00    +0.000 OA
BRANCH  15  24
ATOM     18  C   UNL     1       4.070   4.136  17.206  0.00  0.00    +0.000 A 
ATOM     19  C   UNL     1       5.302   3.940  16.550  0.00  0.00    +0.000 A 
ATOM     20  C   UNL     1       6.425   4.725  16.843  0.00  0.00    +0.000 A 
ATOM     21  C   UNL     1       6.331   5.689  17.830  0.00  0.00    +0.000 A 
ATOM     22 CL   UNL     1       7.712   6.609  18.263  0.00  0.00    +0.000 Cl
ATOM     23  C   UNL     1       5.116   5.918  18.463  0.00  0.00    +0.000 A 
ATOM     24  C   UNL     1       3.958   5.230  18.083  0.00  0.00    +0.000 A 
BRANCH  18  25
ATOM     25  O   UNL     1       3.038   3.240  17.064  0.00  0.00    +0.000 OA
BRANCH  25  27
ATOM     26  C   UNL     1       1.792   1.988  18.765  0.00  0.00    +0.000 C 
ATOM     27  C   UNL     1       3.067   2.103  17.947  0.00  0.00    +0.000 C 
ENDBRANCH  25  27
ENDBRANCH  18  25
ENDBRANCH  15  24
ENDBRANCH   1  15
TORSDOF 5
ENDMDL
MODEL 2
REMARK VINA RESULT:      -7.1      0.499      1.413
REMARK  Name = 
REMARK  8 active torsions:
REMARK  status: ('A' for Active; 'I' for Inactive)
REMARK    1  A    between atoms: C_1  and  C_2
REMARK    2  A    between atoms: C_2  and  O_3
REMARK    3  A    between atoms: O_3  and  C_4
REMARK    4  A    between atoms: C_10  and  S_11
REMARK    5  A    between atoms: S_11  and  N_14
REMARK    6  A    between atoms: N_17  and  C_18
REMARK    7  A    between atoms: C_21  and  C_22
REMARK    8  A    between atoms: C_23  and  C_24
REMARK                            x       y       z     vdW  Elec       q    Type
REMARK                         _______ _______ _______ _____ _____    ______ ____
ROOT
ATOM      1  N   UNL     1       2.571   7.554  18.991  0.00  0.00    +0.000 NA
ATOM      2  C   UNL     1       2.686   8.551  17.905  0.00  0.00    +0.000 C 
ATOM      3  C   UNL     1       1.330   9.170  17.529  0.00  0.00    +0.000 C 
ATOM      4  N   UNL     1       0.494   9.556  18.693  0.00  0.00    +0.000 N 
ATOM      5  C   UNL     1       0.591   8.710  19.918  0.00  0.00    +0.000 C 
ATOM      6  C   UNL     1       2.005   8.170  20.202  0.00  0.00    +0.000 C 
ENDROOT
BRANCH   4   7
ATOM      7  C   UNL     1      -0.774  10.119  18.423  0.00  0.00    +0.000 A 
ATOM      8  C   UNL     1      -1.369  11.027  19.310  0.00  0.00    +0.000 A 
ATOM      9  C   UNL     1      -2.614  11.619  19.063  0.00  0.00    +0.000 A 
ATOM     10  C   UNL     1      -3.325  11.345  17.898  0.00  0.00    +0.000 A 
ATOM     11  C   UNL     1      -4.653  12.016  17.680  0.00  0.00    +0.000 C 
ATOM     12  C   UNL     1      -2.756  10.471  16.958  0.00  0.00    +0.000 A 
ATOM     13  C   UNL     1      -3.423  10.148  15.645  0.00  0.00    +0.000 C 
ATOM     14  C   UNL     1      -1.502   9.870  17.241  0.00  0.00    +0.000 A 
ENDBRANCH   4   7
BRANCH   1  15
ATOM     15  S   UNL     1       2.558   5.879  18.754  0.00  0.00    +0.000 S 
ATOM     16  O   UNL     1       1.405   5.618  17.921  0.00  0.00    +0.000 OA
ATOM     17  O   UNL     1       2.699   5.259  20.057  0.00  0.00    +0.000 OA
BRANCH  15  24
ATOM     18  C   UNL     1       4.162   4.313  17.018  0.00  0.00    +0.000 A 
ATOM     19  C   UNL     1       5.307   4.207  16.204  0.00  0.00    +0.000 A 
ATOM     20  C   UNL     1       6.355   5.133  16.285  0.00  0.00    +0.000 A 
ATOM     21  C   UNL     1       6.280   6.152  17.216  0.00  0.00    +0.000 A 
ATOM     22 CL   UNL     1       7.585   7.251  17.391  0.00  0.00    +0.000 Cl
ATOM     23  C   UNL     1       5.143   6.291  18.004  0.00  0.00    +0.000 A 
ATOM     24  C   UNL     1       4.037   5.450  17.836  0.00  0.00    +0.000 A 
BRANCH  18  25
ATOM     25  O   UNL     1       3.236   3.298  17.080  0.00  0.00    +0.000 OA
BRANCH  25  27
ATOM     26  C   UNL     1       2.117   1.945  18.791  0.00  0.00    +0.000 C 
ATOM     27  C   UNL     1       3.430   2.335  18.132  0.00  0.00    +0.000 C 
ENDBRANCH  25  27
ENDBRANCH  18  25
ENDBRANCH  15  24
ENDBRANCH   1  15
TORSDOF 5
ENDMDL
MODEL 3
REMARK VINA RESULT:      -6.7      4.161      9.168
REMARK  Name = 
REMARK  8 active torsions:
REMARK  status: ('A' for Active; 'I' for Inactive)
REMARK    1  A    between atoms: C_1  and  C_2
REMARK    2  A    between atoms: C_2  and  O_3
REMARK    3  A    between atoms: O_3  and  C_4
REMARK    4  A    between atoms: C_10  and  S_11
REMARK    5  A    between atoms: S_11  and  N_14
REMARK    6  A    between atoms: N_17  and  C_18
REMARK    7  A    between atoms: C_21  and  C_22
REMARK    8  A    between atoms: C_23  and  C_24
REMARK                            x       y       z     vdW  Elec       q    Type
REMARK                         _______ _______ _______ _____ _____    ______ ____
ROOT
ATOM      1  N   UNL     1       0.172  11.174  19.505  0.00  0.00    +0.000 NA
ATOM      2  C   UNL     1       0.437  10.517  20.803  0.00  0.00    +0.000 C 
ATOM      3  C   UNL     1       0.781   9.028  20.649  0.00  0.00    +0.000 C 
ATOM      4  N   UNL     1       1.740   8.735  19.555  0.00  0.00    +0.000 N 
ATOM      5  C   UNL     1       1.674   9.594  18.336  0.00  0.00    +0.000 C 
ATOM      6  C   UNL     1       1.346  11.071  18.624  0.00  0.00    +0.000 C 
ENDROOT
BRANCH   4   7
ATOM      7  C   UNL     1       2.092   7.382  19.344  0.00  0.00    +0.000 A 
ATOM      8  C   UNL     1       2.717   6.971  18.158  0.00  0.00    +0.000 A 
ATOM      9  C   UNL     1       3.097   5.643  17.926  0.00  0.00    +0.000 A 
ATOM     10  C   UNL     1       2.888   4.654  18.883  0.00  0.00    +0.000 A 
ATOM     11  C   UNL     1       3.326   3.247  18.585  0.00  0.00    +0.000 C 
ATOM     12  C   UNL     1       2.300   5.021  20.105  0.00  0.00    +0.000 A 
ATOM     13  C   UNL     1       2.075   4.035  21.223  0.00  0.00    +0.000 C 
ATOM     14  C   UNL     1       1.906   6.369  20.307  0.00  0.00    +0.000 A 
ENDBRANCH   4   7
BRANCH   1  15
ATOM     15  S   UNL     1      -1.372  11.505  18.898  0.00  0.00    +0.000 S 
ATOM     16  O   UNL     1      -1.975  10.212  18.660  0.00  0.00    +0.000 OA
ATOM     17  O   UNL     1      -1.215  12.469  17.827  0.00  0.00    +0.000 OA
BRANCH  15  24
ATOM     18  C   UNL     1      -3.693  12.492  20.193  0.00  0.00    +0.000 A 
ATOM     19  C   UNL     1      -4.299  12.992  21.362  0.00  0.00    +0.000 A 
ATOM     20  C   UNL     1      -3.539  13.443  22.450  0.00  0.00    +0.000 A 
ATOM     21  C   UNL     1      -2.160  13.433  22.355  0.00  0.00    +0.000 A 
ATOM     22 CL   UNL     1      -1.209  14.054  23.640  0.00  0.00    +0.000 Cl
ATOM     23  C   UNL     1      -1.546  12.913  21.223  0.00  0.00    +0.000 A 
ATOM     24  C   UNL     1      -2.295  12.339  20.189  0.00  0.00    +0.000 A 
BRANCH  18  25
ATOM     25  O   UNL     1      -4.430  12.243  19.059  0.00  0.00    +0.000 OA
BRANCH  25  27
ATOM     26  C   UNL     1      -6.378  10.983  18.266  0.00  0.00    +0.000 C 
ATOM     27  C   UNL     1      -5.832  11.991  19.264  0.00  0.00    +0.000 C 
ENDBRANCH  25  27
ENDBRANCH  18  25
ENDBRANCH  15  24
ENDBRANCH   1  15
TORSDOF 5
ENDMDL
MODEL 4
REMARK VINA RESULT:      -6.6      3.100      4.558
REMARK  Name = 
REMARK  8 active torsions:
REMARK  status: ('A' for Active; 'I' for Inactive)
REMARK    1  A    between atoms: C_1  and  C_2
REMARK    2  A    between atoms: C_2  and  O_3
REMARK    3  A    between atoms: O_3  and  C_4
REMARK    4  A    between atoms: C_10  and  S_11
REMARK    5  A    between atoms: S_11  and  N_14
REMARK    6  A    between atoms: N_17  and  C_18
REMARK    7  A    between atoms: C_21  and  C_22
REMARK    8  A    between atoms: C_23  and  C_24
REMARK                            x       y       z     vdW  Elec       q    Type
REMARK                         _______ _______ _______ _____ _____    ______ ____
ROOT
ATOM      1  N   UNL     1       3.512   4.650  18.778  0.00  0.00    +0.000 NA
ATOM      2  C   UNL     1       2.571   4.437  19.899  0.00  0.00    +0.000 C 
ATOM      3  C   UNL     1       2.127   5.755  20.553  0.00  0.00    +0.000 C 
ATOM      4  N   UNL     1       1.769   6.823  19.587  0.00  0.00    +0.000 N 
ATOM      5  C   UNL     1       2.529   6.869  18.303  0.00  0.00    +0.000 C 
ATOM      6  C   UNL     1       2.894   5.485  17.736  0.00  0.00    +0.000 C 
ENDROOT
BRANCH   4   7
ATOM      7  C   UNL     1       1.366   8.070  20.117  0.00  0.00    +0.000 A 
ATOM      8  C   UNL     1       1.337   9.222  19.319  0.00  0.00    +0.000 A 
ATOM      9  C   UNL     1       0.922  10.468  19.807  0.00  0.00    +0.000 A 
ATOM     10  C   UNL     1       0.493  10.622  21.122  0.00  0.00    +0.000 A 
ATOM     11  C   UNL     1       0.049  11.981  21.589  0.00  0.00    +0.000 C 
ATOM     12  C   UNL     1       0.465   9.490  21.952  0.00  0.00    +0.000 A 
ATOM     13  C   UNL     1      -0.028   9.542  23.376  0.00  0.00    +0.000 C 
ATOM     14  C   UNL     1       0.909   8.244  21.439  0.00  0.00    +0.000 A 
ENDBRANCH   4   7
BRANCH   1  15
ATOM     15  S   UNL     1       5.189   4.455  18.887  0.00  0.00    +0.000 S 
ATOM     16  O   UNL     1       5.395   3.047  19.143  0.00  0.00    +0.000 OA
ATOM     17  O   UNL     1       5.680   5.465  19.803  0.00  0.00    +0.000 OA
BRANCH  15  24
ATOM     18  C   UNL     1       6.694   5.977  17.028  0.00  0.00    +0.000 A 
ATOM     19  C   UNL     1       7.333   6.058  15.775  0.00  0.00    +0.000 A 
ATOM     20  C   UNL     1       7.085   5.124  14.761  0.00  0.00    +0.000 A 
ATOM     21  C   UNL     1       6.160   4.121  14.984  0.00  0.00    +0.000 A 
ATOM     22 CL   UNL     1       5.780   3.012  13.732  0.00  0.00    +0.000 Cl
ATOM     23  C   UNL     1       5.546   4.006  16.225  0.00  0.00    +0.000 A 
ATOM     24  C   UNL     1       5.886   4.855  17.284  0.00  0.00    +0.000 A 
BRANCH  18  25
ATOM     25  O   UNL     1       6.784   7.002  17.940  0.00  0.00    +0.000 OA
BRANCH  25  27
ATOM     26  C   UNL     1       8.255   8.959  18.076  0.00  0.00    +0.000 C 
ATOM     27  C   UNL     1       8.115   7.455  18.247  0.00  0.00    +0.000 C 
ENDBRANCH  25  27
ENDBRANCH  18  25
ENDBRANCH  15  24
ENDBRANCH   1  15
TORSDOF 5
ENDMDL
MODEL 5
REMARK VINA RESULT:      -6.6      4.273      9.166
REMARK  Name = 
REMARK  8 active torsions:
REMARK  status: ('A' for Active; 'I' for Inactive)
REMARK    1  A    between atoms: C_1  and  C_2
REMARK    2  A    between atoms: C_2  and  O_3
REMARK    3  A    between atoms: O_3  and  C_4
REMARK    4  A    between atoms: C_10  and  S_11
REMARK    5  A    between atoms: S_11  and  N_14
REMARK    6  A    between atoms: N_17  and  C_18
REMARK    7  A    between atoms: C_21  and  C_22
REMARK    8  A    between atoms: C_23  and  C_24
REMARK                            x       y       z     vdW  Elec       q    Type
REMARK                         _______ _______ _______ _____ _____    ______ ____
ROOT
ATOM      1  N   UNL     1       0.071  10.624  19.788  0.00  0.00    +0.000 NA
ATOM      2  C   UNL     1       0.089  10.210  18.368  0.00  0.00    +0.000 C 
ATOM      3  C   UNL     1       1.277   9.293  18.039  0.00  0.00    +0.000 C 
ATOM      4  N   UNL     1       1.515   8.223  19.040  0.00  0.00    +0.000 N 
ATOM      5  C   UNL     1       1.218   8.542  20.468  0.00  0.00    +0.000 C 
ATOM      6  C   UNL     1      -0.010   9.448  20.669  0.00  0.00    +0.000 C 
ENDROOT
BRANCH   4   7
ATOM      7  C   UNL     1       2.603   7.349  18.810  0.00  0.00    +0.000 A 
ATOM      8  C   UNL     1       2.908   6.320  19.711  0.00  0.00    +0.000 A 
ATOM      9  C   UNL     1       3.965   5.424  19.503  0.00  0.00    +0.000 A 
ATOM     10  C   UNL     1       4.763   5.500  18.365  0.00  0.00    +0.000 A 
ATOM     11  C   UNL     1       5.877   4.506  18.188  0.00  0.00    +0.000 C 
ATOM     12  C   UNL     1       4.474   6.490  17.411  0.00  0.00    +0.000 A 
ATOM     13  C   UNL     1       5.247   6.625  16.124  0.00  0.00    +0.000 C 
ATOM     14  C   UNL     1       3.410   7.397  17.655  0.00  0.00    +0.000 A 
ENDBRANCH   4   7
BRANCH   1  15
ATOM     15  S   UNL     1       0.605  12.127  20.353  0.00  0.00    +0.000 S 
ATOM     16  O   UNL     1       0.972  12.873  19.170  0.00  0.00    +0.000 OA
ATOM     17  O   UNL     1       1.565  11.872  21.409  0.00  0.00    +0.000 OA
BRANCH  15  24
ATOM     18  C   UNL     1      -2.089  12.978  20.595  0.00  0.00    +0.000 A 
ATOM     19  C   UNL     1      -3.125  13.479  21.408  0.00  0.00    +0.000 A 
ATOM     20  C   UNL     1      -2.868  14.039  22.666  0.00  0.00    +0.000 A 
ATOM     21  C   UNL     1      -1.560  14.138  23.102  0.00  0.00    +0.000 A 
ATOM     22 CL   UNL     1      -1.212  14.891  24.603  0.00  0.00    +0.000 Cl
ATOM     23  C   UNL     1      -0.529  13.619  22.329  0.00  0.00    +0.000 A 
ATOM     24  C   UNL     1      -0.790  12.940  21.133  0.00  0.00    +0.000 A 
BRANCH  18  25
ATOM     25  O   UNL     1      -2.319  12.619  19.288  0.00  0.00    +0.000 OA
BRANCH  25  27
ATOM     26  C   UNL     1      -3.568  11.225  17.704  0.00  0.00    +0.000 C 
ATOM     27  C   UNL     1      -3.579  11.974  19.027  0.00  0.00    +0.000 C 
ENDBRANCH  25  27
ENDBRANCH  18  25
ENDBRANCH  15  24
ENDBRANCH   1  15
TORSDOF 5
ENDMDL
MODEL 6
REMARK VINA RESULT:      -6.5      4.001      9.188
REMARK  Name = 
REMARK  8 active torsions:
REMARK  status: ('A' for Active; 'I' for Inactive)
REMARK    1  A    between atoms: C_1  and  C_2
REMARK    2  A    between atoms: C_2  and  O_3
REMARK    3  A    between atoms: O_3  and  C_4
REMARK    4  A    between atoms: C_10  and  S_11
REMARK    5  A    between atoms: S_11  and  N_14
REMARK    6  A    between atoms: N_17  and  C_18
REMARK    7  A    between atoms: C_21  and  C_22
REMARK    8  A    between atoms: C_23  and  C_24
REMARK                            x       y       z     vdW  Elec       q    Type
REMARK                         _______ _______ _______ _____ _____    ______ ____
ROOT
ATOM      1  N   UNL     1       0.196  11.043  19.424  0.00  0.00    +0.000 NA
ATOM      2  C   UNL     1       0.427  10.494  20.778  0.00  0.00    +0.000 C 
ATOM      3  C   UNL     1       0.758   8.994  20.756  0.00  0.00    +0.000 C 
ATOM      4  N   UNL     1       1.736   8.603  19.711  0.00  0.00    +0.000 N 
ATOM      5  C   UNL     1       1.704   9.358  18.424  0.00  0.00    +0.000 C 
ATOM      6  C   UNL     1       1.386  10.856  18.580  0.00  0.00    +0.000 C 
ENDROOT
BRANCH   4   7
ATOM      7  C   UNL     1       2.078   7.234  19.621  0.00  0.00    +0.000 A 
ATOM      8  C   UNL     1       1.646   6.313  20.586  0.00  0.00    +0.000 A 
ATOM      9  C   UNL     1       1.949   4.948  20.515  0.00  0.00    +0.000 A 
ATOM     10  C   UNL     1       2.688   4.426  19.457  0.00  0.00    +0.000 A 
ATOM     11  C   UNL     1       2.975   2.950  19.427  0.00  0.00    +0.000 C 
ATOM     12  C   UNL     1       3.111   5.300  18.443  0.00  0.00    +0.000 A 
ATOM     13  C   UNL     1       3.875   4.825  17.232  0.00  0.00    +0.000 C 
ATOM     14  C   UNL     1       2.808   6.682  18.548  0.00  0.00    +0.000 A 
ENDBRANCH   4   7
BRANCH   1  15
ATOM     15  S   UNL     1      -1.332  11.335  18.759  0.00  0.00    +0.000 S 
ATOM     16  O   UNL     1      -1.899  10.028  18.510  0.00  0.00    +0.000 OA
ATOM     17  O   UNL     1      -1.157  12.294  17.685  0.00  0.00    +0.000 OA
BRANCH  15  24
ATOM     18  C   UNL     1      -3.713  12.331  19.932  0.00  0.00    +0.000 A 
ATOM     19  C   UNL     1      -4.380  12.820  21.073  0.00  0.00    +0.000 A 
ATOM     20  C   UNL     1      -3.680  13.243  22.210  0.00  0.00    +0.000 A 
ATOM     21  C   UNL     1      -2.298  13.216  22.196  0.00  0.00    +0.000 A 
ATOM     22 CL   UNL     1      -1.417  13.803  23.545  0.00  0.00    +0.000 Cl
ATOM     23  C   UNL     1      -1.625  12.707  21.093  0.00  0.00    +0.000 A 
ATOM     24  C   UNL     1      -2.319  12.160  20.008  0.00  0.00    +0.000 A 
BRANCH  18  25
ATOM     25  O   UNL     1      -4.385  12.111  18.754  0.00  0.00    +0.000 OA
BRANCH  25  27
ATOM     26  C   UNL     1      -6.484  10.856  18.574  0.00  0.00    +0.000 C 
ATOM     27  C   UNL     1      -5.820  12.201  18.823  0.00  0.00    +0.000 C 
ENDBRANCH  25  27
ENDBRANCH  18  25
ENDBRANCH  15  24
ENDBRANCH   1  15
TORSDOF 5
ENDMDL
MODEL 7
REMARK VINA RESULT:      -6.5      4.757      8.905
REMARK  Name = 
REMARK  8 active torsions:
REMARK  status: ('A' for Active; 'I' for Inactive)
REMARK    1  A    between atoms: C_1  and  C_2
REMARK    2  A    between atoms: C_2  and  O_3
REMARK    3  A    between atoms: O_3  and  C_4
REMARK    4  A    between atoms: C_10  and  S_11
REMARK    5  A    between atoms: S_11  and  N_14
REMARK    6  A    between atoms: N_17  and  C_18
REMARK    7  A    between atoms: C_21  and  C_22
REMARK    8  A    between atoms: C_23  and  C_24
REMARK                            x       y       z     vdW  Elec       q    Type
REMARK                         _______ _______ _______ _____ _____    ______ ____
ROOT
ATOM      1  N   UNL     1       0.367  12.586  19.116  0.00  0.00    +0.000 NA
ATOM      2  C   UNL     1       1.506  12.532  18.173  0.00  0.00    +0.000 C 
ATOM      3  C   UNL     1       2.301  11.222  18.287  0.00  0.00    +0.000 C 
ATOM      4  N   UNL     1       1.457  10.004  18.371  0.00  0.00    +0.000 N 
ATOM      5  C   UNL     1       0.150  10.123  19.081  0.00  0.00    +0.000 C 
ATOM      6  C   UNL     1      -0.561  11.472  18.870  0.00  0.00    +0.000 C 
ENDROOT
BRANCH   4   7
ATOM      7  C   UNL     1       2.121   8.761  18.493  0.00  0.00    +0.000 A 
ATOM      8  C   UNL     1       1.818   7.876  19.537  0.00  0.00    +0.000 A 
ATOM      9  C   UNL     1       2.441   6.629  19.673  0.00  0.00    +0.000 A 
ATOM     10  C   UNL     1       3.392   6.192  18.756  0.00  0.00    +0.000 A 
ATOM     11  C   UNL     1       4.021   4.840  18.947  0.00  0.00    +0.000 C 
ATOM     12  C   UNL     1       3.703   7.025  17.669  0.00  0.00    +0.000 A 
ATOM     13  C   UNL     1       4.683   6.623  16.595  0.00  0.00    +0.000 C 
ATOM     14  C   UNL     1       3.072   8.292  17.564  0.00  0.00    +0.000 A 
ENDBRANCH   4   7
BRANCH   1  15
ATOM     15  S   UNL     1       0.379  13.429  20.582  0.00  0.00    +0.000 S 
ATOM     16  O   UNL     1       0.278  14.827  20.222  0.00  0.00    +0.000 OA
ATOM     17  O   UNL     1       1.500  12.933  21.355  0.00  0.00    +0.000 OA
BRANCH  15  24
ATOM     18  C   UNL     1      -1.131  11.984  22.497  0.00  0.00    +0.000 A 
ATOM     19  C   UNL     1      -2.312  11.861  23.257  0.00  0.00    +0.000 A 
ATOM     20  C   UNL     1      -3.463  12.599  22.952  0.00  0.00    +0.000 A 
ATOM     21  C   UNL     1      -3.452  13.436  21.853  0.00  0.00    +0.000 A 
ATOM     22 CL   UNL     1      -4.873  14.289  21.411  0.00  0.00    +0.000 Cl
ATOM     23  C   UNL     1      -2.287  13.594  21.112  0.00  0.00    +0.000 A 
ATOM     24  C   UNL     1      -1.096  12.963  21.489  0.00  0.00    +0.000 A 
BRANCH  18  25
ATOM     25  O   UNL     1      -0.079  11.117  22.672  0.00  0.00    +0.000 OA
BRANCH  25  27
ATOM     26  C   UNL     1      -0.462   8.729  22.266  0.00  0.00    +0.000 C 
ATOM     27  C   UNL     1      -0.400   9.854  23.285  0.00  0.00    +0.000 C 
ENDBRANCH  25  27
ENDBRANCH  18  25
ENDBRANCH  15  24
ENDBRANCH   1  15
TORSDOF 5
ENDMDL
MODEL 8
REMARK VINA RESULT:      -6.5      4.530      9.286
REMARK  Name = 
REMARK  8 active torsions:
REMARK  status: ('A' for Active; 'I' for Inactive)
REMARK    1  A    between atoms: C_1  and  C_2
REMARK    2  A    between atoms: C_2  and  O_3
REMARK    3  A    between atoms: O_3  and  C_4
REMARK    4  A    between atoms: C_10  and  S_11
REMARK    5  A    between atoms: S_11  and  N_14
REMARK    6  A    between atoms: N_17  and  C_18
REMARK    7  A    between atoms: C_21  and  C_22
REMARK    8  A    between atoms: C_23  and  C_24
REMARK                            x       y       z     vdW  Elec       q    Type
REMARK                         _______ _______ _______ _____ _____    ______ ____
ROOT
ATOM      1  N   UNL     1       0.480  11.129  19.675  0.00  0.00    +0.000 NA
ATOM      2  C   UNL     1       0.305  10.586  18.310  0.00  0.00    +0.000 C 
ATOM      3  C   UNL     1       1.331   9.492  17.976  0.00  0.00    +0.000 C 
ATOM      4  N   UNL     1       1.534   8.498  19.059  0.00  0.00    +0.000 N 
ATOM      5  C   UNL     1       1.423   8.984  20.466  0.00  0.00    +0.000 C 
ATOM      6  C   UNL     1       0.343  10.061  20.677  0.00  0.00    +0.000 C 
ENDROOT
BRANCH   4   7
ATOM      7  C   UNL     1       2.476   7.469  18.828  0.00  0.00    +0.000 A 
ATOM      8  C   UNL     1       2.577   6.370  19.693  0.00  0.00    +0.000 A 
ATOM      9  C   UNL     1       3.484   5.325  19.481  0.00  0.00    +0.000 A 
ATOM     10  C   UNL     1       4.330   5.314  18.376  0.00  0.00    +0.000 A 
ATOM     11  C   UNL     1       5.277   4.161  18.194  0.00  0.00    +0.000 C 
ATOM     12  C   UNL     1       4.241   6.373  17.458  0.00  0.00    +0.000 A 
ATOM     13  C   UNL     1       5.079   6.430  16.205  0.00  0.00    +0.000 C 
ATOM     14  C   UNL     1       3.328   7.430  17.705  0.00  0.00    +0.000 A 
ENDBRANCH   4   7
BRANCH   1  15
ATOM     15  S   UNL     1       1.250  12.592  20.031  0.00  0.00    +0.000 S 
ATOM     16  O   UNL     1       2.163  12.822  18.933  0.00  0.00    +0.000 OA
ATOM     17  O   UNL     1       1.725  12.507  21.398  0.00  0.00    +0.000 OA
BRANCH  15  24
ATOM     18  C   UNL     1      -1.141  13.885  20.836  0.00  0.00    +0.000 A 
ATOM     19  C   UNL     1      -1.930  15.053  20.860  0.00  0.00    +0.000 A 
ATOM     20  C   UNL     1      -1.669  16.135  20.009  0.00  0.00    +0.000 A 
ATOM     21  C   UNL     1      -0.635  16.037  19.097  0.00  0.00    +0.000 A 
ATOM     22 CL   UNL     1      -0.344  17.315  17.991  0.00  0.00    +0.000 Cl
ATOM     23  C   UNL     1       0.174  14.907  19.082  0.00  0.00    +0.000 A 
ATOM     24  C   UNL     1       0.002  13.879  20.017  0.00  0.00    +0.000 A 
BRANCH  18  25
ATOM     25  O   UNL     1      -1.521  12.756  21.521  0.00  0.00    +0.000 OA
BRANCH  25  27
ATOM     26  C   UNL     1      -2.966  12.367  23.463  0.00  0.00    +0.000 C 
ATOM     27  C   UNL     1      -1.637  12.896  22.949  0.00  0.00    +0.000 C 
ENDBRANCH  25  27
ENDBRANCH  18  25
ENDBRANCH  15  24
ENDBRANCH   1  15
TORSDOF 5
ENDMDL
MODEL 9
REMARK VINA RESULT:      -6.5      3.830      8.786
REMARK  Name = 
REMARK  8 active torsions:
REMARK  status: ('A' for Active; 'I' for Inactive)
REMARK    1  A    between atoms: C_1  and  C_2
REMARK    2  A    between atoms: C_2  and  O_3
REMARK    3  A    between atoms: O_3  and  C_4
REMARK    4  A    between atoms: C_10  and  S_11
REMARK    5  A    between atoms: S_11  and  N_14
REMARK    6  A    between atoms: N_17  and  C_18
REMARK    7  A    between atoms: C_21  and  C_22
REMARK    8  A    between atoms: C_23  and  C_24
REMARK                            x       y       z     vdW  Elec       q    Type
REMARK                         _______ _______ _______ _____ _____    ______ ____
ROOT
ATOM      1  N   UNL     1       1.002  10.188  19.433  0.00  0.00    +0.000 NA
ATOM      2  C   UNL     1       1.491   9.602  20.699  0.00  0.00    +0.000 C 
ATOM      3  C   UNL     1       1.577   8.069  20.642  0.00  0.00    +0.000 C 
ATOM      4  N   UNL     1       2.180   7.539  19.394  0.00  0.00    +0.000 N 
ATOM      5  C   UNL     1       1.929   8.299  18.135  0.00  0.00    +0.000 C 
ATOM      6  C   UNL     1       1.891   9.827  18.318  0.00  0.00    +0.000 C 
ENDROOT
BRANCH   4   7
ATOM      7  C   UNL     1       2.278   6.134  19.265  0.00  0.00    +0.000 A 
ATOM      8  C   UNL     1       2.703   5.544  18.067  0.00  0.00    +0.000 A 
ATOM      9  C   UNL     1       2.831   4.158  17.913  0.00  0.00    +0.000 A 
ATOM     10  C   UNL     1       2.556   3.286  18.962  0.00  0.00    +0.000 A 
ATOM     11  C   UNL     1       2.720   1.807  18.743  0.00  0.00    +0.000 C 
ATOM     12  C   UNL     1       2.165   3.829  20.196  0.00  0.00    +0.000 A 
ATOM     13  C   UNL     1       1.892   2.973  21.408  0.00  0.00    +0.000 C 
ATOM     14  C   UNL     1       2.024   5.235  20.321  0.00  0.00    +0.000 A 
ENDBRANCH   4   7
BRANCH   1  15
ATOM     15  S   UNL     1      -0.584  10.716  19.174  0.00  0.00    +0.000 S 
ATOM     16  O   UNL     1      -1.366  10.118  20.234  0.00  0.00    +0.000 OA
ATOM     17  O   UNL     1      -0.897  10.470  17.780  0.00  0.00    +0.000 OA
BRANCH  15  24
ATOM     18  C   UNL     1      -1.642  13.211  20.006  0.00  0.00    +0.000 A 
ATOM     19  C   UNL     1      -1.434  14.579  20.274  0.00  0.00    +0.000 A 
ATOM     20  C   UNL     1      -0.287  15.249  19.831  0.00  0.00    +0.000 A 
ATOM     21  C   UNL     1       0.644  14.560  19.076  0.00  0.00    +0.000 A 
ATOM     22 CL   UNL     1       2.017  15.377  18.453  0.00  0.00    +0.000 Cl
ATOM     23  C   UNL     1       0.471  13.203  18.830  0.00  0.00    +0.000 A 
ATOM     24  C   UNL     1      -0.604  12.497  19.381  0.00  0.00    +0.000 A 
BRANCH  18  25
ATOM     25  O   UNL     1      -2.852  12.611  20.264  0.00  0.00    +0.000 OA
BRANCH  25  27
ATOM     26  C   UNL     1      -2.687  12.256  22.684  0.00  0.00    +0.000 C 
ATOM     27  C   UNL     1      -3.443  12.913  21.541  0.00  0.00    +0.000 C 
ENDBRANCH  25  27
ENDBRANCH  18  25
ENDBRANCH  15  24
ENDBRANCH   1  15
TORSDOF 5
ENDMDL
