MODEL 1
REMARK VINA RESULT:      -7.7      0.000      0.000
REMARK  Name = 
REMARK  2 active torsions:
REMARK  status: ('A' for Active; 'I' for Inactive)
REMARK    1  A    between atoms: C_1  and  C_2
REMARK    2  A    between atoms: C_16  and  C_17
REMARK                            x       y       z     vdW  Elec       q    Type
REMARK                         _______ _______ _______ _____ _____    ______ ____
ROOT
ATOM      1  C   UNL     1      -0.001  18.246  17.825  0.00  0.00    +0.000 C 
ATOM      2  C   UNL     1       0.619  17.045  18.476  0.00  0.00    +0.000 A 
ATOM      3  C   UNL     1       1.868  17.126  19.095  0.00  0.00    +0.000 A 
ATOM      4  C   UNL     1       2.425  15.998  19.695  0.00  0.00    +0.000 A 
ATOM      5  C   UNL     1       1.744  14.779  19.678  0.00  0.00    +0.000 A 
ATOM      6  C   UNL     1       0.506  14.663  19.032  0.00  0.00    +0.000 A 
ATOM      7  C   UNL     1      -0.060  15.817  18.460  0.00  0.00    +0.000 A 
ATOM      8  C   UNL     1      -0.218  13.337  19.035  0.00  0.00    +0.000 C 
ATOM      9  N   UNL     1      -0.860  13.044  17.764  0.00  0.00    +0.000 N 
ATOM     10  C   UNL     1      -1.589  11.861  17.754  0.00  0.00    +0.000 A 
ATOM     11  N   UNL     1      -2.643  11.820  16.919  0.00  0.00    +0.000 NA
ATOM     12  C   UNL     1      -3.345  10.667  16.854  0.00  0.00    +0.000 A 
ATOM     13  C   UNL     1      -3.065   9.548  17.616  0.00  0.00    +0.000 A 
ATOM     14  C   UNL     1      -1.987   9.610  18.488  0.00  0.00    +0.000 A 
ATOM     15  C   UNL     1      -1.208  10.775  18.544  0.00  0.00    +0.000 A 
ATOM     16  C   UNL     1       0.009  10.866  19.457  0.00  0.00    +0.000 C 
ATOM     17  C   UNL     1       0.774  12.200  19.294  0.00  0.00    +0.000 C 
ATOM     18  C   UNL     1       1.593  12.570  20.522  0.00  0.00    +0.000 C 
ATOM     19  O   UNL     1       2.381  13.743  20.306  0.00  0.00    +0.000 OA
ATOM     20  H   UNL     1      -1.412  13.762  17.310  0.00  0.00    +0.000 HD
ENDROOT
BRANCH  16  21
ATOM     21  C   UNL     1       0.937   9.673  19.247  0.00  0.00    +0.000 A 
ATOM     22  C   UNL     1       1.496   9.418  17.982  0.00  0.00    +0.000 A 
ATOM     23  C   UNL     1       2.250   8.271  17.756  0.00  0.00    +0.000 A 
ATOM     24  C   UNL     1       2.462   7.364  18.791  0.00  0.00    +0.000 A 
ATOM     25  C   UNL     1       1.931   7.614  20.056  0.00  0.00    +0.000 A 
ATOM     26  C   UNL     1       1.173   8.762  20.286  0.00  0.00    +0.000 A 
ENDBRANCH  16  21
TORSDOF 1
ENDMDL
MODEL 2
REMARK VINA RESULT:      -7.3      2.684      5.452
REMARK  Name = 
REMARK  2 active torsions:
REMARK  status: ('A' for Active; 'I' for Inactive)
REMARK    1  A    between atoms: C_1  and  C_2
REMARK    2  A    between atoms: C_16  and  C_17
REMARK                            x       y       z     vdW  Elec       q    Type
REMARK                         _______ _______ _______ _____ _____    ______ ____
ROOT
ATOM      1  C   UNL     1      -7.067  13.148  19.602  0.00  0.00    +0.000 C 
ATOM      2  C   UNL     1      -6.028  12.233  19.024  0.00  0.00    +0.000 A 
ATOM      3  C   UNL     1      -6.392  11.083  18.321  0.00  0.00    +0.000 A 
ATOM      4  C   UNL     1      -5.410  10.248  17.790  0.00  0.00    +0.000 A 
ATOM      5  C   UNL     1      -4.058  10.549  17.963  0.00  0.00    +0.000 A 
ATOM      6  C   UNL     1      -3.666  11.676  18.696  0.00  0.00    +0.000 A 
ATOM      7  C   UNL     1      -4.667  12.529  19.197  0.00  0.00    +0.000 A 
ATOM      8  C   UNL     1      -2.198  11.988  18.861  0.00  0.00    +0.000 C 
ATOM      9  N   UNL     1      -1.872  12.472  20.193  0.00  0.00    +0.000 N 
ATOM     10  C   UNL     1      -0.538  12.829  20.358  0.00  0.00    +0.000 A 
ATOM     11  N   UNL     1      -0.290  13.795  21.260  0.00  0.00    +0.000 NA
ATOM     12  C   UNL     1       1.000  14.133  21.476  0.00  0.00    +0.000 A 
ATOM     13  C   UNL     1       2.069  13.572  20.803  0.00  0.00    +0.000 A 
ATOM     14  C   UNL     1       1.798  12.589  19.860  0.00  0.00    +0.000 A 
ATOM     15  C   UNL     1       0.473  12.181  19.647  0.00  0.00    +0.000 A 
ATOM     16  C   UNL     1       0.139  11.076  18.652  0.00  0.00    +0.000 C 
ATOM     17  C   UNL     1      -1.366  10.721  18.643  0.00  0.00    +0.000 C 
ATOM     18  C   UNL     1      -1.820  10.088  17.336  0.00  0.00    +0.000 C 
ATOM     19  O   UNL     1      -3.184   9.664  17.392  0.00  0.00    +0.000 OA
ATOM     20  H   UNL     1      -2.448  13.191  20.614  0.00  0.00    +0.000 HD
ENDROOT
BRANCH  16  21
ATOM     21  C   UNL     1       0.992   9.837  18.909  0.00  0.00    +0.000 A 
ATOM     22  C   UNL     1       1.797   9.300  17.889  0.00  0.00    +0.000 A 
ATOM     23  C   UNL     1       2.488   8.107  18.081  0.00  0.00    +0.000 A 
ATOM     24  C   UNL     1       2.390   7.437  19.298  0.00  0.00    +0.000 A 
ATOM     25  C   UNL     1       1.612   7.969  20.327  0.00  0.00    +0.000 A 
ATOM     26  C   UNL     1       0.917   9.163  20.136  0.00  0.00    +0.000 A 
ENDBRANCH  16  21
TORSDOF 1
ENDMDL
MODEL 3
REMARK VINA RESULT:      -7.2      2.800      5.583
REMARK  Name = 
REMARK  2 active torsions:
REMARK  status: ('A' for Active; 'I' for Inactive)
REMARK    1  A    between atoms: C_1  and  C_2
REMARK    2  A    between atoms: C_16  and  C_17
REMARK                            x       y       z     vdW  Elec       q    Type
REMARK                         _______ _______ _______ _____ _____    ______ ____
ROOT
ATOM      1  C   UNL     1      -7.241  13.513  20.094  0.00  0.00    +0.000 C 
ATOM      2  C   UNL     1      -6.277  12.557  19.455  0.00  0.00    +0.000 A 
ATOM      3  C   UNL     1      -6.730  11.431  18.764  0.00  0.00    +0.000 A 
ATOM      4  C   UNL     1      -5.816  10.558  18.176  0.00  0.00    +0.000 A 
ATOM      5  C   UNL     1      -4.444  10.797  18.277  0.00  0.00    +0.000 A 
ATOM      6  C   UNL     1      -3.963  11.899  18.995  0.00  0.00    +0.000 A 
ATOM      7  C   UNL     1      -4.897  12.791  19.555  0.00  0.00    +0.000 A 
ATOM      8  C   UNL     1      -2.476  12.144  19.082  0.00  0.00    +0.000 C 
ATOM      9  N   UNL     1      -2.057  12.601  20.397  0.00  0.00    +0.000 N 
ATOM     10  C   UNL     1      -0.701  12.897  20.492  0.00  0.00    +0.000 A 
ATOM     11  N   UNL     1      -0.362  13.843  21.386  0.00  0.00    +0.000 NA
ATOM     12  C   UNL     1       0.952  14.122  21.533  0.00  0.00    +0.000 A 
ATOM     13  C   UNL     1       1.956  13.519  20.799  0.00  0.00    +0.000 A 
ATOM     14  C   UNL     1       1.591  12.558  19.867  0.00  0.00    +0.000 A 
ATOM     15  C   UNL     1       0.240  12.211  19.723  0.00  0.00    +0.000 A 
ATOM     16  C   UNL     1      -0.197  11.131  18.741  0.00  0.00    +0.000 C 
ATOM     17  C   UNL     1      -1.714  10.843  18.811  0.00  0.00    +0.000 C 
ATOM     18  C   UNL     1      -2.266  10.242  17.527  0.00  0.00    +0.000 C 
ATOM     19  O   UNL     1      -3.643   9.878  17.654  0.00  0.00    +0.000 OA
ATOM     20  H   UNL     1      -2.576  13.341  20.854  0.00  0.00    +0.000 HD
ENDROOT
BRANCH  16  21
ATOM     21  C   UNL     1       0.613   9.853  18.944  0.00  0.00    +0.000 A 
ATOM     22  C   UNL     1       0.654   9.227  20.202  0.00  0.00    +0.000 A 
ATOM     23  C   UNL     1       1.479   8.128  20.423  0.00  0.00    +0.000 A 
ATOM     24  C   UNL     1       2.270   7.634  19.388  0.00  0.00    +0.000 A 
ATOM     25  C   UNL     1       2.224   8.233  18.129  0.00  0.00    +0.000 A 
ATOM     26  C   UNL     1       1.399   9.336  17.905  0.00  0.00    +0.000 A 
ENDBRANCH  16  21
TORSDOF 1
ENDMDL
MODEL 4
REMARK VINA RESULT:      -7.1      2.797      7.160
REMARK  Name = 
REMARK  2 active torsions:
REMARK  status: ('A' for Active; 'I' for Inactive)
REMARK    1  A    between atoms: C_1  and  C_2
REMARK    2  A    between atoms: C_16  and  C_17
REMARK                            x       y       z     vdW  Elec       q    Type
REMARK                         _______ _______ _______ _____ _____    ______ ____
ROOT
ATOM      1  C   UNL     1       3.757   4.205  19.992  0.00  0.00    +0.000 C 
ATOM      2  C   UNL     1       3.456   5.481  19.262  0.00  0.00    +0.000 A 
ATOM      3  C   UNL     1       4.092   5.788  18.058  0.00  0.00    +0.000 A 
ATOM      4  C   UNL     1       3.796   6.979  17.395  0.00  0.00    +0.000 A 
ATOM      5  C   UNL     1       2.868   7.874  17.931  0.00  0.00    +0.000 A 
ATOM      6  C   UNL     1       2.244   7.606  19.156  0.00  0.00    +0.000 A 
ATOM      7  C   UNL     1       2.526   6.386  19.797  0.00  0.00    +0.000 A 
ATOM      8  C   UNL     1       1.236   8.584  19.711  0.00  0.00    +0.000 C 
ATOM      9  N   UNL     1       1.348   8.750  21.151  0.00  0.00    +0.000 N 
ATOM     10  C   UNL     1       0.392   9.596  21.703  0.00  0.00    +0.000 A 
ATOM     11  N   UNL     1       0.038   9.340  22.975  0.00  0.00    +0.000 NA
ATOM     12  C   UNL     1      -0.857  10.171  23.554  0.00  0.00    +0.000 A 
ATOM     13  C   UNL     1      -1.449  11.240  22.908  0.00  0.00    +0.000 A 
ATOM     14  C   UNL     1      -1.089  11.481  21.589  0.00  0.00    +0.000 A 
ATOM     15  C   UNL     1      -0.128  10.666  20.974  0.00  0.00    +0.000 A 
ATOM     16  C   UNL     1       0.325  10.924  19.542  0.00  0.00    +0.000 C 
ATOM     17  C   UNL     1       1.456   9.969  19.095  0.00  0.00    +0.000 C 
ATOM     18  C   UNL     1       1.529   9.798  17.585  0.00  0.00    +0.000 C 
ATOM     19  O   UNL     1       2.651   9.004  17.190  0.00  0.00    +0.000 OA
ATOM     20  H   UNL     1       1.425   7.930  21.741  0.00  0.00    +0.000 HD
ENDROOT
BRANCH  16  21
ATOM     21  C   UNL     1       0.737  12.382  19.357  0.00  0.00    +0.000 A 
ATOM     22  C   UNL     1       1.919  12.870  19.941  0.00  0.00    +0.000 A 
ATOM     23  C   UNL     1       2.241  14.223  19.872  0.00  0.00    +0.000 A 
ATOM     24  C   UNL     1       1.390  15.107  19.214  0.00  0.00    +0.000 A 
ATOM     25  C   UNL     1       0.224  14.634  18.612  0.00  0.00    +0.000 A 
ATOM     26  C   UNL     1      -0.103  13.279  18.681  0.00  0.00    +0.000 A 
ENDBRANCH  16  21
TORSDOF 1
ENDMDL
MODEL 5
REMARK VINA RESULT:      -7.0      2.756      7.028
REMARK  Name = 
REMARK  2 active torsions:
REMARK  status: ('A' for Active; 'I' for Inactive)
REMARK    1  A    between atoms: C_1  and  C_2
REMARK    2  A    between atoms: C_16  and  C_17
REMARK                            x       y       z     vdW  Elec       q    Type
REMARK                         _______ _______ _______ _____ _____    ______ ____
ROOT
ATOM      1  C   UNL     1       2.780   4.215  20.427  0.00  0.00    +0.000 C 
ATOM      2  C   UNL     1       2.731   5.509  19.669  0.00  0.00    +0.000 A 
ATOM      3  C   UNL     1       3.533   5.716  18.545  0.00  0.00    +0.000 A 
ATOM      4  C   UNL     1       3.469   6.926  17.855  0.00  0.00    +0.000 A 
ATOM      5  C   UNL     1       2.610   7.940  18.283  0.00  0.00    +0.000 A 
ATOM      6  C   UNL     1       1.822   7.771  19.429  0.00  0.00    +0.000 A 
ATOM      7  C   UNL     1       1.871   6.533  20.096  0.00  0.00    +0.000 A 
ATOM      8  C   UNL     1       0.893   8.877  19.868  0.00  0.00    +0.000 C 
ATOM      9  N   UNL     1       0.862   9.046  21.311  0.00  0.00    +0.000 N 
ATOM     10  C   UNL     1      -0.032  10.015  21.752  0.00  0.00    +0.000 A 
ATOM     11  N   UNL     1      -0.558   9.824  22.975  0.00  0.00    +0.000 NA
ATOM     12  C   UNL     1      -1.397  10.771  23.450  0.00  0.00    +0.000 A 
ATOM     13  C   UNL     1      -1.770  11.898  22.742  0.00  0.00    +0.000 A 
ATOM     14  C   UNL     1      -1.235  12.073  21.473  0.00  0.00    +0.000 A 
ATOM     15  C   UNL     1      -0.324  11.134  20.970  0.00  0.00    +0.000 A 
ATOM     16  C   UNL     1       0.317  11.313  19.599  0.00  0.00    +0.000 C 
ATOM     17  C   UNL     1       1.358  10.214  19.282  0.00  0.00    +0.000 C 
ATOM     18  C   UNL     1       1.578  10.015  17.790  0.00  0.00    +0.000 C 
ATOM     19  O   UNL     1       2.625   9.078  17.523  0.00  0.00    +0.000 OA
ATOM     20  H   UNL     1       0.766   8.231  21.904  0.00  0.00    +0.000 HD
ENDROOT
BRANCH  16  21
ATOM     21  C   UNL     1       0.931  12.703  19.463  0.00  0.00    +0.000 A 
ATOM     22  C   UNL     1       0.266  13.710  18.741  0.00  0.00    +0.000 A 
ATOM     23  C   UNL     1       0.871  14.943  18.517  0.00  0.00    +0.000 A 
ATOM     24  C   UNL     1       2.147  15.191  19.018  0.00  0.00    +0.000 A 
ATOM     25  C   UNL     1       2.810  14.210  19.754  0.00  0.00    +0.000 A 
ATOM     26  C   UNL     1       2.207  12.971  19.978  0.00  0.00    +0.000 A 
ENDBRANCH  16  21
TORSDOF 1
ENDMDL
MODEL 6
REMARK VINA RESULT:      -7.0      0.527      1.099
REMARK  Name = 
REMARK  2 active torsions:
REMARK  status: ('A' for Active; 'I' for Inactive)
REMARK    1  A    between atoms: C_1  and  C_2
REMARK    2  A    between atoms: C_16  and  C_17
REMARK                            x       y       z     vdW  Elec       q    Type
REMARK                         _______ _______ _______ _____ _____    ______ ____
ROOT
ATOM      1  C   UNL     1      -0.620  18.203  18.592  0.00  0.00    +0.000 C 
ATOM      2  C   UNL     1       0.045  16.972  19.134  0.00  0.00    +0.000 A 
ATOM      3  C   UNL     1       1.279  17.046  19.783  0.00  0.00    +0.000 A 
ATOM      4  C   UNL     1       1.878  15.890  20.280  0.00  0.00    +0.000 A 
ATOM      5  C   UNL     1       1.255  14.650  20.128  0.00  0.00    +0.000 A 
ATOM      6  C   UNL     1       0.035  14.543  19.448  0.00  0.00    +0.000 A 
ATOM      7  C   UNL     1      -0.575  15.722  18.982  0.00  0.00    +0.000 A 
ATOM      8  C   UNL     1      -0.626  13.193  19.305  0.00  0.00    +0.000 C 
ATOM      9  N   UNL     1      -1.234  13.000  17.998  0.00  0.00    +0.000 N 
ATOM     10  C   UNL     1      -1.906  11.792  17.855  0.00  0.00    +0.000 A 
ATOM     11  N   UNL     1      -2.943  11.788  16.999  0.00  0.00    +0.000 NA
ATOM     12  C   UNL     1      -3.589  10.617  16.805  0.00  0.00    +0.000 A 
ATOM     13  C   UNL     1      -3.270   9.441  17.458  0.00  0.00    +0.000 A 
ATOM     14  C   UNL     1      -2.210   9.463  18.353  0.00  0.00    +0.000 A 
ATOM     15  C   UNL     1      -1.488  10.651  18.542  0.00  0.00    +0.000 A 
ATOM     16  C   UNL     1      -0.291  10.705  19.484  0.00  0.00    +0.000 C 
ATOM     17  C   UNL     1       0.413  12.081  19.470  0.00  0.00    +0.000 C 
ATOM     18  C   UNL     1       1.195  12.362  20.745  0.00  0.00    +0.000 C 
ATOM     19  O   UNL     1       1.930  13.586  20.663  0.00  0.00    +0.000 OA
ATOM     20  H   UNL     1      -1.811  13.734  17.606  0.00  0.00    +0.000 HD
ENDROOT
BRANCH  16  21
ATOM     21  C   UNL     1       0.695   9.582  19.176  0.00  0.00    +0.000 A 
ATOM     22  C   UNL     1       1.038   8.642  20.163  0.00  0.00    +0.000 A 
ATOM     23  C   UNL     1       2.020   7.685  19.925  0.00  0.00    +0.000 A 
ATOM     24  C   UNL     1       2.670   7.649  18.693  0.00  0.00    +0.000 A 
ATOM     25  C   UNL     1       2.326   8.562  17.697  0.00  0.00    +0.000 A 
ATOM     26  C   UNL     1       1.343   9.524  17.934  0.00  0.00    +0.000 A 
ENDBRANCH  16  21
TORSDOF 1
ENDMDL
MODEL 7
REMARK VINA RESULT:      -6.9      2.552      4.297
REMARK  Name = 
REMARK  2 active torsions:
REMARK  status: ('A' for Active; 'I' for Inactive)
REMARK    1  A    between atoms: C_1  and  C_2
REMARK    2  A    between atoms: C_16  and  C_17
REMARK                            x       y       z     vdW  Elec       q    Type
REMARK                         _______ _______ _______ _____ _____    ______ ____
ROOT
ATOM      1  C   UNL     1       1.016  17.752  23.658  0.00  0.00    +0.000 C 
ATOM      2  C   UNL     1       0.681  17.108  22.345  0.00  0.00    +0.000 A 
ATOM      3  C   UNL     1       0.399  17.880  21.216  0.00  0.00    +0.000 A 
ATOM      4  C   UNL     1       0.093  17.261  20.005  0.00  0.00    +0.000 A 
ATOM      5  C   UNL     1       0.059  15.869  19.911  0.00  0.00    +0.000 A 
ATOM      6  C   UNL     1       0.302  15.072  21.038  0.00  0.00    +0.000 A 
ATOM      7  C   UNL     1       0.644  15.709  22.245  0.00  0.00    +0.000 A 
ATOM      8  C   UNL     1       0.270  13.568  20.911  0.00  0.00    +0.000 C 
ATOM      9  N   UNL     1      -0.354  12.920  22.053  0.00  0.00    +0.000 N 
ATOM     10  C   UNL     1      -0.342  11.531  21.997  0.00  0.00    +0.000 A 
ATOM     11  N   UNL     1      -0.318  10.890  23.179  0.00  0.00    +0.000 NA
ATOM     12  C   UNL     1      -0.350   9.539  23.158  0.00  0.00    +0.000 A 
ATOM     13  C   UNL     1      -0.371   8.784  22.001  0.00  0.00    +0.000 A 
ATOM     14  C   UNL     1      -0.376   9.458  20.787  0.00  0.00    +0.000 A 
ATOM     15  C   UNL     1      -0.392  10.860  20.774  0.00  0.00    +0.000 A 
ATOM     16  C   UNL     1      -0.441  11.636  19.463  0.00  0.00    +0.000 C 
ATOM     17  C   UNL     1      -0.546  13.163  19.681  0.00  0.00    +0.000 C 
ATOM     18  C   UNL     1      -0.032  13.969  18.497  0.00  0.00    +0.000 C 
ATOM     19  O   UNL     1      -0.244  15.373  18.672  0.00  0.00    +0.000 OA
ATOM     20  H   UNL     1      -0.091  13.203  22.989  0.00  0.00    +0.000 HD
ENDROOT
BRANCH  16  21
ATOM     21  C   UNL     1      -1.574  11.130  18.575  0.00  0.00    +0.000 A 
ATOM     22  C   UNL     1      -1.317  10.209  17.545  0.00  0.00    +0.000 A 
ATOM     23  C   UNL     1      -2.323   9.831  16.660  0.00  0.00    +0.000 A 
ATOM     24  C   UNL     1      -3.602  10.364  16.795  0.00  0.00    +0.000 A 
ATOM     25  C   UNL     1      -3.877  11.264  17.824  0.00  0.00    +0.000 A 
ATOM     26  C   UNL     1      -2.871  11.646  18.712  0.00  0.00    +0.000 A 
ENDBRANCH  16  21
TORSDOF 1
ENDMDL
MODEL 8
REMARK VINA RESULT:      -6.7      3.698      4.612
REMARK  Name = 
REMARK  2 active torsions:
REMARK  status: ('A' for Active; 'I' for Inactive)
REMARK    1  A    between atoms: C_1  and  C_2
REMARK    2  A    between atoms: C_16  and  C_17
REMARK                            x       y       z     vdW  Elec       q    Type
REMARK                         _______ _______ _______ _____ _____    ______ ____
ROOT
ATOM      1  C   UNL     1      -6.293  15.041  23.816  0.00  0.00    +0.000 C 
ATOM      2  C   UNL     1      -4.911  14.507  23.578  0.00  0.00    +0.000 A 
ATOM      3  C   UNL     1      -3.862  14.812  24.447  0.00  0.00    +0.000 A 
ATOM      4  C   UNL     1      -2.586  14.304  24.208  0.00  0.00    +0.000 A 
ATOM      5  C   UNL     1      -2.345  13.493  23.098  0.00  0.00    +0.000 A 
ATOM      6  C   UNL     1      -3.372  13.202  22.190  0.00  0.00    +0.000 A 
ATOM      7  C   UNL     1      -4.662  13.694  22.462  0.00  0.00    +0.000 A 
ATOM      8  C   UNL     1      -3.091  12.315  21.001  0.00  0.00    +0.000 C 
ATOM      9  N   UNL     1      -3.756  12.768  19.791  0.00  0.00    +0.000 N 
ATOM     10  C   UNL     1      -3.569  11.937  18.693  0.00  0.00    +0.000 A 
ATOM     11  N   UNL     1      -4.563  11.918  17.787  0.00  0.00    +0.000 NA
ATOM     12  C   UNL     1      -4.392  11.154  16.686  0.00  0.00    +0.000 A 
ATOM     13  C   UNL     1      -3.278  10.369  16.456  0.00  0.00    +0.000 A 
ATOM     14  C   UNL     1      -2.268  10.382  17.408  0.00  0.00    +0.000 A 
ATOM     15  C   UNL     1      -2.393  11.202  18.539  0.00  0.00    +0.000 A 
ATOM     16  C   UNL     1      -1.287  11.276  19.586  0.00  0.00    +0.000 C 
ATOM     17  C   UNL     1      -1.590  12.308  20.696  0.00  0.00    +0.000 C 
ATOM     18  C   UNL     1      -0.854  12.017  21.996  0.00  0.00    +0.000 C 
ATOM     19  O   UNL     1      -1.058  13.045  22.969  0.00  0.00    +0.000 OA
ATOM     20  H   UNL     1      -4.734  13.028  19.830  0.00  0.00    +0.000 HD
ENDROOT
BRANCH  16  21
ATOM     21  C   UNL     1       0.062  11.557  18.931  0.00  0.00    +0.000 A 
ATOM     22  C   UNL     1       0.957  10.506  18.662  0.00  0.00    +0.000 A 
ATOM     23  C   UNL     1       2.233  10.766  18.171  0.00  0.00    +0.000 A 
ATOM     24  C   UNL     1       2.632  12.080  17.935  0.00  0.00    +0.000 A 
ATOM     25  C   UNL     1       1.747  13.131  18.177  0.00  0.00    +0.000 A 
ATOM     26  C   UNL     1       0.468  12.873  18.672  0.00  0.00    +0.000 A 
ENDBRANCH  16  21
TORSDOF 1
ENDMDL
MODEL 9
REMARK VINA RESULT:      -6.6      4.869      7.138
REMARK  Name = 
REMARK  2 active torsions:
REMARK  status: ('A' for Active; 'I' for Inactive)
REMARK    1  A    between atoms: C_1  and  C_2
REMARK    2  A    between atoms: C_16  and  C_17
REMARK                            x       y       z     vdW  Elec       q    Type
REMARK                         _______ _______ _______ _____ _____    ______ ____
ROOT
ATOM      1  C   UNL     1       0.701   9.700  18.272  0.00  0.00    +0.000 C 
ATOM      2  C   UNL     1       0.031  10.496  19.353  0.00  0.00    +0.000 A 
ATOM      3  C   UNL     1       0.592  10.594  20.628  0.00  0.00    +0.000 A 
ATOM      4  C   UNL     1      -0.046  11.340  21.617  0.00  0.00    +0.000 A 
ATOM      5  C   UNL     1      -1.251  11.990  21.345  0.00  0.00    +0.000 A 
ATOM      6  C   UNL     1      -1.854  11.878  20.085  0.00  0.00    +0.000 A 
ATOM      7  C   UNL     1      -1.181  11.150  19.086  0.00  0.00    +0.000 A 
ATOM      8  C   UNL     1      -3.152  12.598  19.810  0.00  0.00    +0.000 C 
ATOM      9  N   UNL     1      -4.075  11.807  19.012  0.00  0.00    +0.000 N 
ATOM     10  C   UNL     1      -5.255  12.467  18.687  0.00  0.00    +0.000 A 
ATOM     11  N   UNL     1      -5.840  12.102  17.532  0.00  0.00    +0.000 NA
ATOM     12  C   UNL     1      -7.011  12.693  17.210  0.00  0.00    +0.000 A 
ATOM     13  C   UNL     1      -7.621  13.668  17.977  0.00  0.00    +0.000 A 
ATOM     14  C   UNL     1      -6.998  14.050  19.156  0.00  0.00    +0.000 A 
ATOM     15  C   UNL     1      -5.805  13.421  19.544  0.00  0.00    +0.000 A 
ATOM     16  C   UNL     1      -5.113  13.782  20.853  0.00  0.00    +0.000 C 
ATOM     17  C   UNL     1      -3.869  12.906  21.127  0.00  0.00    +0.000 C 
ATOM     18  C   UNL     1      -2.865  13.572  22.057  0.00  0.00    +0.000 C 
ATOM     19  O   UNL     1      -1.781  12.701  22.388  0.00  0.00    +0.000 OA
ATOM     20  H   UNL     1      -3.736  11.336  18.183  0.00  0.00    +0.000 HD
ENDROOT
BRANCH  16  21
ATOM     21  C   UNL     1      -6.094  13.722  22.021  0.00  0.00    +0.000 A 
ATOM     22  C   UNL     1      -6.352  14.867  22.795  0.00  0.00    +0.000 A 
ATOM     23  C   UNL     1      -7.156  14.792  23.929  0.00  0.00    +0.000 A 
ATOM     24  C   UNL     1      -7.719  13.574  24.302  0.00  0.00    +0.000 A 
ATOM     25  C   UNL     1      -7.488  12.434  23.532  0.00  0.00    +0.000 A 
ATOM     26  C   UNL     1      -6.680  12.506  22.396  0.00  0.00    +0.000 A 
ENDBRANCH  16  21
TORSDOF 1
ENDMDL
