MODEL 1
REMARK VINA RESULT:      -8.3      0.000      0.000
REMARK  Name = 
REMARK  6 active torsions:
REMARK  status: ('A' for Active; 'I' for Inactive)
REMARK    1  A    between atoms: N_1  and  S_2
REMARK    2  A    between atoms: S_2  and  C_5
REMARK    3  A    between atoms: C_11  and  N_12
REMARK    4  A    between atoms: N_12  and  S_13
REMARK    5  A    between atoms: S_13  and  C_16
REMARK    6  A    between atoms: C_17  and  C_18
REMARK                            x       y       z     vdW  Elec       q    Type
REMARK                         _______ _______ _______ _____ _____    ______ ____
ROOT
ATOM      1  N   UNL     1       5.255   3.477  17.672  0.00  0.00    +0.000 N 
ATOM      2  H   UNL     1       5.673   2.577  17.961  0.00  0.00    +0.000 HD
ENDROOT
BRANCH   1   9
ATOM      3  C   UNL     1       6.559   5.494  16.906  0.00  0.00    +0.000 A 
ATOM      4  C   UNL     1       7.424   6.553  17.221  0.00  0.00    +0.000 A 
ATOM      5  C   UNL     1       7.884   6.693  18.520  0.00  0.00    +0.000 A 
ATOM      6  F   UNL     1       8.718   7.696  18.820  0.00  0.00    +0.000 F 
ATOM      7  C   UNL     1       7.493   5.806  19.512  0.00  0.00    +0.000 A 
ATOM      8  C   UNL     1       6.611   4.766  19.205  0.00  0.00    +0.000 A 
ATOM      9  C   UNL     1       6.119   4.607  17.904  0.00  0.00    +0.000 A 
BRANCH   3  10
ATOM     10  S   UNL     1       6.025   5.394  15.224  0.00  0.00    +0.000 S 
ATOM     11  O   UNL     1       5.245   6.570  14.913  0.00  0.00    +0.000 OA
ATOM     12  O   UNL     1       5.514   4.058  15.007  0.00  0.00    +0.000 OA
BRANCH  10  13
ATOM     13  N   UNL     1       7.474   5.486  14.374  0.00  0.00    +0.000 NA
ATOM     14  H   UNL     1       7.767   4.543  14.107  0.00  0.00    +0.000 HD
ATOM     15  H   UNL     1       8.231   5.909  14.925  0.00  0.00    +0.000 HD
ENDBRANCH  10  13
ENDBRANCH   3  10
ENDBRANCH   1   9
BRANCH   1  16
ATOM     16  S   UNL     1       3.704   3.541  18.385  0.00  0.00    +0.000 S 
ATOM     17  O   UNL     1       2.935   2.541  17.677  0.00  0.00    +0.000 OA
ATOM     18  O   UNL     1       3.906   3.409  19.820  0.00  0.00    +0.000 OA
BRANCH  16  19
ATOM     19  C   UNL     1       3.004   5.101  18.026  0.00  0.00    +0.000 C 
ATOM     20  C   UNL     1       2.977   6.012  19.015  0.00  0.00    +0.000 C 
BRANCH  20  21
ATOM     21  C   UNL     1       2.343   7.344  18.984  0.00  0.00    +0.000 A 
ATOM     22  C   UNL     1       1.739   7.819  20.163  0.00  0.00    +0.000 A 
ATOM     23  C   UNL     1       1.148   9.088  20.216  0.00  0.00    +0.000 A 
ATOM     24  C   UNL     1       1.165   9.902  19.089  0.00  0.00    +0.000 A 
ATOM     25 CL   UNL     1       0.439  11.462  19.148  0.00  0.00    +0.000 Cl
ATOM     26  C   UNL     1       1.771   9.460  17.915  0.00  0.00    +0.000 A 
ATOM     27  C   UNL     1       2.361   8.187  17.864  0.00  0.00    +0.000 A 
ENDBRANCH  20  21
ENDBRANCH  16  19
ENDBRANCH   1  16
TORSDOF 6
ENDMDL
MODEL 2
REMARK VINA RESULT:      -8.3      0.743      1.312
REMARK  Name = 
REMARK  6 active torsions:
REMARK  status: ('A' for Active; 'I' for Inactive)
REMARK    1  A    between atoms: N_1  and  S_2
REMARK    2  A    between atoms: S_2  and  C_5
REMARK    3  A    between atoms: C_11  and  N_12
REMARK    4  A    between atoms: N_12  and  S_13
REMARK    5  A    between atoms: S_13  and  C_16
REMARK    6  A    between atoms: C_17  and  C_18
REMARK                            x       y       z     vdW  Elec       q    Type
REMARK                         _______ _______ _______ _____ _____    ______ ____
ROOT
ATOM      1  N   UNL     1       5.285   3.469  17.797  0.00  0.00    +0.000 N 
ATOM      2  H   UNL     1       5.689   2.587  18.154  0.00  0.00    +0.000 HD
ENDROOT
BRANCH   1   9
ATOM      3  C   UNL     1       6.581   5.469  16.976  0.00  0.00    +0.000 A 
ATOM      4  C   UNL     1       7.437   6.543  17.263  0.00  0.00    +0.000 A 
ATOM      5  C   UNL     1       7.890   6.726  18.559  0.00  0.00    +0.000 A 
ATOM      6  F   UNL     1       8.716   7.742  18.833  0.00  0.00    +0.000 F 
ATOM      7  C   UNL     1       7.499   5.867  19.576  0.00  0.00    +0.000 A 
ATOM      8  C   UNL     1       6.625   4.813  19.297  0.00  0.00    +0.000 A 
ATOM      9  C   UNL     1       6.140   4.610  17.999  0.00  0.00    +0.000 A 
BRANCH   3  10
ATOM     10  S   UNL     1       6.056   5.314  15.296  0.00  0.00    +0.000 S 
ATOM     11  O   UNL     1       5.122   4.216  15.200  0.00  0.00    +0.000 OA
ATOM     12  O   UNL     1       7.235   5.389  14.461  0.00  0.00    +0.000 OA
BRANCH  10  13
ATOM     13  N   UNL     1       5.210   6.746  15.042  0.00  0.00    +0.000 NA
ATOM     14  H   UNL     1       4.434   6.568  14.399  0.00  0.00    +0.000 HD
ATOM     15  H   UNL     1       5.795   7.485  14.635  0.00  0.00    +0.000 HD
ENDBRANCH  10  13
ENDBRANCH   3  10
ENDBRANCH   1   9
BRANCH   1  16
ATOM     16  S   UNL     1       3.706   3.573  18.442  0.00  0.00    +0.000 S 
ATOM     17  O   UNL     1       2.929   2.640  17.657  0.00  0.00    +0.000 OA
ATOM     18  O   UNL     1       3.836   3.371  19.878  0.00  0.00    +0.000 OA
BRANCH  16  19
ATOM     19  C   UNL     1       3.092   5.177  18.122  0.00  0.00    +0.000 C 
ATOM     20  C   UNL     1       2.939   6.004  19.172  0.00  0.00    +0.000 C 
BRANCH  20  21
ATOM     21  C   UNL     1       2.339   7.353  19.165  0.00  0.00    +0.000 A 
ATOM     22  C   UNL     1       2.416   8.106  17.979  0.00  0.00    +0.000 A 
ATOM     23  C   UNL     1       1.840   9.379  17.890  0.00  0.00    +0.000 A 
ATOM     24  C   UNL     1       1.168   9.910  18.986  0.00  0.00    +0.000 A 
ATOM     25 CL   UNL     1       0.458  11.474  18.882  0.00  0.00    +0.000 Cl
ATOM     26  C   UNL     1       1.065   9.175  20.165  0.00  0.00    +0.000 A 
ATOM     27  C   UNL     1       1.646   7.900  20.254  0.00  0.00    +0.000 A 
ENDBRANCH  20  21
ENDBRANCH  16  19
ENDBRANCH   1  16
TORSDOF 6
ENDMDL
MODEL 3
REMARK VINA RESULT:      -8.1      0.868      1.337
REMARK  Name = 
REMARK  6 active torsions:
REMARK  status: ('A' for Active; 'I' for Inactive)
REMARK    1  A    between atoms: N_1  and  S_2
REMARK    2  A    between atoms: S_2  and  C_5
REMARK    3  A    between atoms: C_11  and  N_12
REMARK    4  A    between atoms: N_12  and  S_13
REMARK    5  A    between atoms: S_13  and  C_16
REMARK    6  A    between atoms: C_17  and  C_18
REMARK                            x       y       z     vdW  Elec       q    Type
REMARK                         _______ _______ _______ _____ _____    ______ ____
ROOT
ATOM      1  N   UNL     1       4.888   3.521  17.413  0.00  0.00    +0.000 N 
ATOM      2  H   UNL     1       5.175   2.580  17.730  0.00  0.00    +0.000 HD
ENDROOT
BRANCH   1   9
ATOM      3  C   UNL     1       6.594   5.267  16.785  0.00  0.00    +0.000 A 
ATOM      4  C   UNL     1       7.528   6.232  17.192  0.00  0.00    +0.000 A 
ATOM      5  C   UNL     1       7.748   6.440  18.543  0.00  0.00    +0.000 A 
ATOM      6  F   UNL     1       8.646   7.351  18.934  0.00  0.00    +0.000 F 
ATOM      7  C   UNL     1       7.050   5.713  19.497  0.00  0.00    +0.000 A 
ATOM      8  C   UNL     1       6.100   4.770  19.093  0.00  0.00    +0.000 A 
ATOM      9  C   UNL     1       5.847   4.547  17.734  0.00  0.00    +0.000 A 
BRANCH   3  10
ATOM     10  S   UNL     1       6.382   5.070  15.041  0.00  0.00    +0.000 S 
ATOM     11  O   UNL     1       7.581   5.520  14.373  0.00  0.00    +0.000 OA
ATOM     12  O   UNL     1       5.075   5.588  14.699  0.00  0.00    +0.000 OA
BRANCH  10  13
ATOM     13  N   UNL     1       6.283   3.399  14.871  0.00  0.00    +0.000 NA
ATOM     14  H   UNL     1       6.821   2.953  15.618  0.00  0.00    +0.000 HD
ATOM     15  H   UNL     1       6.657   3.070  13.972  0.00  0.00    +0.000 HD
ENDBRANCH  10  13
ENDBRANCH   3  10
ENDBRANCH   1   9
BRANCH   1  16
ATOM     16  S   UNL     1       3.295   3.757  17.983  0.00  0.00    +0.000 S 
ATOM     17  O   UNL     1       2.462   3.024  17.055  0.00  0.00    +0.000 OA
ATOM     18  O   UNL     1       3.303   3.385  19.390  0.00  0.00    +0.000 OA
BRANCH  16  19
ATOM     19  C   UNL     1       2.905   5.452  17.821  0.00  0.00    +0.000 C 
ATOM     20  C   UNL     1       2.619   6.135  18.944  0.00  0.00    +0.000 C 
BRANCH  20  21
ATOM     21  C   UNL     1       2.156   7.532  19.046  0.00  0.00    +0.000 A 
ATOM     22  C   UNL     1       2.282   8.356  17.913  0.00  0.00    +0.000 A 
ATOM     23  C   UNL     1       1.834   9.683  17.927  0.00  0.00    +0.000 A 
ATOM     24  C   UNL     1       1.243  10.198  19.075  0.00  0.00    +0.000 A 
ATOM     25 CL   UNL     1       0.691  11.828  19.098  0.00  0.00    +0.000 Cl
ATOM     26  C   UNL     1       1.093   9.396  20.204  0.00  0.00    +0.000 A 
ATOM     27  C   UNL     1       1.545   8.067  20.189  0.00  0.00    +0.000 A 
ENDBRANCH  20  21
ENDBRANCH  16  19
ENDBRANCH   1  16
TORSDOF 6
ENDMDL
MODEL 4
REMARK VINA RESULT:      -7.8      3.964      6.135
REMARK  Name = 
REMARK  6 active torsions:
REMARK  status: ('A' for Active; 'I' for Inactive)
REMARK    1  A    between atoms: N_1  and  S_2
REMARK    2  A    between atoms: S_2  and  C_5
REMARK    3  A    between atoms: C_11  and  N_12
REMARK    4  A    between atoms: N_12  and  S_13
REMARK    5  A    between atoms: S_13  and  C_16
REMARK    6  A    between atoms: C_17  and  C_18
REMARK                            x       y       z     vdW  Elec       q    Type
REMARK                         _______ _______ _______ _____ _____    ______ ____
ROOT
ATOM      1  N   UNL     1       5.052   6.530  16.737  0.00  0.00    +0.000 N 
ATOM      2  H   UNL     1       4.865   7.338  16.120  0.00  0.00    +0.000 HD
ENDROOT
BRANCH   1   9
ATOM      3  C   UNL     1       3.649   5.130  18.294  0.00  0.00    +0.000 A 
ATOM      4  C   UNL     1       2.664   5.068  19.292  0.00  0.00    +0.000 A 
ATOM      5  C   UNL     1       2.069   6.237  19.735  0.00  0.00    +0.000 A 
ATOM      6  F   UNL     1       1.121   6.180  20.678  0.00  0.00    +0.000 F 
ATOM      7  C   UNL     1       2.441   7.468  19.212  0.00  0.00    +0.000 A 
ATOM      8  C   UNL     1       3.441   7.533  18.237  0.00  0.00    +0.000 A 
ATOM      9  C   UNL     1       4.070   6.369  17.778  0.00  0.00    +0.000 A 
BRANCH   3  10
ATOM     10  S   UNL     1       4.351   3.588  17.790  0.00  0.00    +0.000 S 
ATOM     11  O   UNL     1       4.920   3.746  16.471  0.00  0.00    +0.000 OA
ATOM     12  O   UNL     1       3.387   2.552  18.088  0.00  0.00    +0.000 OA
BRANCH  10  13
ATOM     13  N   UNL     1       5.612   3.385  18.884  0.00  0.00    +0.000 NA
ATOM     14  H   UNL     1       6.433   3.895  18.549  0.00  0.00    +0.000 HD
ATOM     15  H   UNL     1       5.878   2.400  19.004  0.00  0.00    +0.000 HD
ENDBRANCH  10  13
ENDBRANCH   3  10
ENDBRANCH   1   9
BRANCH   1  16
ATOM     16  S   UNL     1       6.680   6.671  17.236  0.00  0.00    +0.000 S 
ATOM     17  O   UNL     1       6.721   6.033  18.533  0.00  0.00    +0.000 OA
ATOM     18  O   UNL     1       7.490   6.140  16.149  0.00  0.00    +0.000 OA
BRANCH  16  19
ATOM     19  C   UNL     1       7.034   8.366  17.465  0.00  0.00    +0.000 C 
ATOM     20  C   UNL     1       8.223   8.684  18.009  0.00  0.00    +0.000 C 
BRANCH  20  21
ATOM     21  C   UNL     1       8.695  10.027  18.398  0.00  0.00    +0.000 A 
ATOM     22  C   UNL     1       9.428  10.152  19.592  0.00  0.00    +0.000 A 
ATOM     23  C   UNL     1       9.936  11.390  20.006  0.00  0.00    +0.000 A 
ATOM     24  C   UNL     1       9.725  12.518  19.221  0.00  0.00    +0.000 A 
ATOM     25 CL   UNL     1      10.346  14.042  19.725  0.00  0.00    +0.000 Cl
ATOM     26  C   UNL     1       9.016  12.415  18.026  0.00  0.00    +0.000 A 
ATOM     27  C   UNL     1       8.505  11.174  17.614  0.00  0.00    +0.000 A 
ENDBRANCH  20  21
ENDBRANCH  16  19
ENDBRANCH   1  16
TORSDOF 6
ENDMDL
MODEL 5
REMARK VINA RESULT:      -7.8      1.059      1.175
REMARK  Name = 
REMARK  6 active torsions:
REMARK  status: ('A' for Active; 'I' for Inactive)
REMARK    1  A    between atoms: N_1  and  S_2
REMARK    2  A    between atoms: S_2  and  C_5
REMARK    3  A    between atoms: C_11  and  N_12
REMARK    4  A    between atoms: N_12  and  S_13
REMARK    5  A    between atoms: S_13  and  C_16
REMARK    6  A    between atoms: C_17  and  C_18
REMARK                            x       y       z     vdW  Elec       q    Type
REMARK                         _______ _______ _______ _____ _____    ______ ____
ROOT
ATOM      1  N   UNL     1       6.343   3.749  18.373  0.00  0.00    +0.000 N 
ATOM      2  H   UNL     1       6.940   3.183  19.001  0.00  0.00    +0.000 HD
ENDROOT
BRANCH   1   9
ATOM      3  C   UNL     1       6.820   5.756  16.925  0.00  0.00    +0.000 A 
ATOM      4  C   UNL     1       7.358   7.046  16.804  0.00  0.00    +0.000 A 
ATOM      5  C   UNL     1       7.963   7.639  17.900  0.00  0.00    +0.000 A 
ATOM      6  F   UNL     1       8.486   8.864  17.784  0.00  0.00    +0.000 F 
ATOM      7  C   UNL     1       8.033   6.976  19.117  0.00  0.00    +0.000 A 
ATOM      8  C   UNL     1       7.474   5.701  19.246  0.00  0.00    +0.000 A 
ATOM      9  C   UNL     1       6.845   5.082  18.159  0.00  0.00    +0.000 A 
BRANCH   3  10
ATOM     10  S   UNL     1       6.071   5.081  15.474  0.00  0.00    +0.000 S 
ATOM     11  O   UNL     1       6.827   5.510  14.319  0.00  0.00    +0.000 OA
ATOM     12  O   UNL     1       4.645   5.296  15.577  0.00  0.00    +0.000 OA
BRANCH  10  13
ATOM     13  N   UNL     1       6.312   3.428  15.672  0.00  0.00    +0.000 NA
ATOM     14  H   UNL     1       5.848   2.927  14.910  0.00  0.00    +0.000 HD
ATOM     15  H   UNL     1       5.933   3.076  16.560  0.00  0.00    +0.000 HD
ENDBRANCH  10  13
ENDBRANCH   3  10
ENDBRANCH   1   9
BRANCH   1  16
ATOM     16  S   UNL     1       4.750   3.619  18.975  0.00  0.00    +0.000 S 
ATOM     17  O   UNL     1       3.974   3.135  17.854  0.00  0.00    +0.000 OA
ATOM     18  O   UNL     1       4.834   2.820  20.189  0.00  0.00    +0.000 OA
BRANCH  16  19
ATOM     19  C   UNL     1       4.181   5.225  19.360  0.00  0.00    +0.000 C 
ATOM     20  C   UNL     1       3.083   5.666  18.719  0.00  0.00    +0.000 C 
BRANCH  20  21
ATOM     21  C   UNL     1       2.488   7.014  18.795  0.00  0.00    +0.000 A 
ATOM     22  C   UNL     1       1.956   7.435  20.028  0.00  0.00    +0.000 A 
ATOM     23  C   UNL     1       1.405   8.713  20.182  0.00  0.00    +0.000 A 
ATOM     24  C   UNL     1       1.391   9.591  19.104  0.00  0.00    +0.000 A 
ATOM     25 CL   UNL     1       0.715  11.163  19.287  0.00  0.00    +0.000 Cl
ATOM     26  C   UNL     1       1.927   9.202  17.878  0.00  0.00    +0.000 A 
ATOM     27  C   UNL     1       2.476   7.919  17.725  0.00  0.00    +0.000 A 
ENDBRANCH  20  21
ENDBRANCH  16  19
ENDBRANCH   1  16
TORSDOF 6
ENDMDL
MODEL 6
REMARK VINA RESULT:      -7.5      3.752      6.048
REMARK  Name = 
REMARK  6 active torsions:
REMARK  status: ('A' for Active; 'I' for Inactive)
REMARK    1  A    between atoms: N_1  and  S_2
REMARK    2  A    between atoms: S_2  and  C_5
REMARK    3  A    between atoms: C_11  and  N_12
REMARK    4  A    between atoms: N_12  and  S_13
REMARK    5  A    between atoms: S_13  and  C_16
REMARK    6  A    between atoms: C_17  and  C_18
REMARK                            x       y       z     vdW  Elec       q    Type
REMARK                         _______ _______ _______ _____ _____    ______ ____
ROOT
ATOM      1  N   UNL     1       5.144   5.970  16.871  0.00  0.00    +0.000 N 
ATOM      2  H   UNL     1       5.031   6.674  16.123  0.00  0.00    +0.000 HD
ENDROOT
BRANCH   1   9
ATOM      3  C   UNL     1       3.554   4.953  18.542  0.00  0.00    +0.000 A 
ATOM      4  C   UNL     1       2.553   5.134  19.509  0.00  0.00    +0.000 A 
ATOM      5  C   UNL     1       2.099   6.412  19.788  0.00  0.00    +0.000 A 
ATOM      6  F   UNL     1       1.137   6.587  20.702  0.00  0.00    +0.000 F 
ATOM      7  C   UNL     1       2.629   7.514  19.132  0.00  0.00    +0.000 A 
ATOM      8  C   UNL     1       3.645   7.337  18.188  0.00  0.00    +0.000 A 
ATOM      9  C   UNL     1       4.133   6.058  17.893  0.00  0.00    +0.000 A 
BRANCH   3  10
ATOM     10  S   UNL     1       4.068   3.287  18.251  0.00  0.00    +0.000 S 
ATOM     11  O   UNL     1       4.568   3.185  16.899  0.00  0.00    +0.000 OA
ATOM     12  O   UNL     1       3.028   2.415  18.750  0.00  0.00    +0.000 OA
BRANCH  10  13
ATOM     13  N   UNL     1       5.369   3.116  19.304  0.00  0.00    +0.000 NA
ATOM     14  H   UNL     1       5.348   2.179  19.714  0.00  0.00    +0.000 HD
ATOM     15  H   UNL     1       5.350   3.798  20.072  0.00  0.00    +0.000 HD
ENDBRANCH  10  13
ENDBRANCH   3  10
ENDBRANCH   1   9
BRANCH   1  16
ATOM     16  S   UNL     1       6.768   6.073  17.391  0.00  0.00    +0.000 S 
ATOM     17  O   UNL     1       6.728   5.708  18.790  0.00  0.00    +0.000 OA
ATOM     18  O   UNL     1       7.549   5.271  16.461  0.00  0.00    +0.000 OA
BRANCH  16  19
ATOM     19  C   UNL     1       7.265   7.745  17.293  0.00  0.00    +0.000 C 
ATOM     20  C   UNL     1       8.134   8.191  18.218  0.00  0.00    +0.000 C 
BRANCH  20  21
ATOM     21  C   UNL     1       8.607   9.576  18.404  0.00  0.00    +0.000 A 
ATOM     22  C   UNL     1       8.094  10.571  17.552  0.00  0.00    +0.000 A 
ATOM     23  C   UNL     1       8.473  11.912  17.693  0.00  0.00    +0.000 A 
ATOM     24  C   UNL     1       9.362  12.275  18.698  0.00  0.00    +0.000 A 
ATOM     25 CL   UNL     1       9.831  13.922  18.875  0.00  0.00    +0.000 Cl
ATOM     26  C   UNL     1       9.870  11.309  19.565  0.00  0.00    +0.000 A 
ATOM     27  C   UNL     1       9.491   9.965  19.420  0.00  0.00    +0.000 A 
ENDBRANCH  20  21
ENDBRANCH  16  19
ENDBRANCH   1  16
TORSDOF 6
ENDMDL
MODEL 7
REMARK VINA RESULT:      -7.5      3.266      4.219
REMARK  Name = 
REMARK  6 active torsions:
REMARK  status: ('A' for Active; 'I' for Inactive)
REMARK    1  A    between atoms: N_1  and  S_2
REMARK    2  A    between atoms: S_2  and  C_5
REMARK    3  A    between atoms: C_11  and  N_12
REMARK    4  A    between atoms: N_12  and  S_13
REMARK    5  A    between atoms: S_13  and  C_16
REMARK    6  A    between atoms: C_17  and  C_18
REMARK                            x       y       z     vdW  Elec       q    Type
REMARK                         _______ _______ _______ _____ _____    ______ ____
ROOT
ATOM      1  N   UNL     1       3.885   5.562  19.747  0.00  0.00    +0.000 N 
ATOM      2  H   UNL     1       4.358   6.401  20.124  0.00  0.00    +0.000 HD
ENDROOT
BRANCH   1   9
ATOM      3  C   UNL     1       4.342   3.918  17.891  0.00  0.00    +0.000 A 
ATOM      4  C   UNL     1       4.791   3.681  16.583  0.00  0.00    +0.000 A 
ATOM      5  C   UNL     1       5.246   4.740  15.816  0.00  0.00    +0.000 A 
ATOM      6  F   UNL     1       5.685   4.515  14.573  0.00  0.00    +0.000 F 
ATOM      7  C   UNL     1       5.254   6.032  16.322  0.00  0.00    +0.000 A 
ATOM      8  C   UNL     1       4.782   6.273  17.616  0.00  0.00    +0.000 A 
ATOM      9  C   UNL     1       4.304   5.224  18.410  0.00  0.00    +0.000 A 
BRANCH   3  10
ATOM     10  S   UNL     1       3.782   2.506  18.795  0.00  0.00    +0.000 S 
ATOM     11  O   UNL     1       4.329   2.563  20.131  0.00  0.00    +0.000 OA
ATOM     12  O   UNL     1       3.955   1.347  17.946  0.00  0.00    +0.000 OA
BRANCH  10  13
ATOM     13  N   UNL     1       2.124   2.770  18.896  0.00  0.00    +0.000 NA
ATOM     14  H   UNL     1       1.830   3.361  18.115  0.00  0.00    +0.000 HD
ATOM     15  H   UNL     1       1.849   3.237  19.769  0.00  0.00    +0.000 HD
ENDBRANCH  10  13
ENDBRANCH   3  10
ENDBRANCH   1   9
BRANCH   1  16
ATOM     16  S   UNL     1       2.211   5.803  19.986  0.00  0.00    +0.000 S 
ATOM     17  O   UNL     1       1.621   5.582  18.685  0.00  0.00    +0.000 OA
ATOM     18  O   UNL     1       1.829   4.950  21.103  0.00  0.00    +0.000 OA
BRANCH  16  19
ATOM     19  C   UNL     1       1.958   7.479  20.407  0.00  0.00    +0.000 C 
ATOM     20  C   UNL     1       0.860   7.781  21.125  0.00  0.00    +0.000 C 
BRANCH  20  21
ATOM     21  C   UNL     1       0.381   9.125  21.500  0.00  0.00    +0.000 A 
ATOM     22  C   UNL     1      -0.409   9.248  22.657  0.00  0.00    +0.000 A 
ATOM     23  C   UNL     1      -0.871  10.497  23.091  0.00  0.00    +0.000 A 
ATOM     24  C   UNL     1      -0.536  11.642  22.376  0.00  0.00    +0.000 A 
ATOM     25 CL   UNL     1      -1.101  13.179  22.904  0.00  0.00    +0.000 Cl
ATOM     26  C   UNL     1       0.260  11.546  21.236  0.00  0.00    +0.000 A 
ATOM     27  C   UNL     1       0.719  10.293  20.801  0.00  0.00    +0.000 A 
ENDBRANCH  20  21
ENDBRANCH  16  19
ENDBRANCH   1  16
TORSDOF 6
ENDMDL
MODEL 8
REMARK VINA RESULT:      -7.4      3.338      4.370
REMARK  Name = 
REMARK  6 active torsions:
REMARK  status: ('A' for Active; 'I' for Inactive)
REMARK    1  A    between atoms: N_1  and  S_2
REMARK    2  A    between atoms: S_2  and  C_5
REMARK    3  A    between atoms: C_11  and  N_12
REMARK    4  A    between atoms: N_12  and  S_13
REMARK    5  A    between atoms: S_13  and  C_16
REMARK    6  A    between atoms: C_17  and  C_18
REMARK                            x       y       z     vdW  Elec       q    Type
REMARK                         _______ _______ _______ _____ _____    ______ ____
ROOT
ATOM      1  N   UNL     1       3.810   5.480  19.783  0.00  0.00    +0.000 N 
ATOM      2  H   UNL     1       4.290   6.338  20.103  0.00  0.00    +0.000 HD
ENDROOT
BRANCH   1   9
ATOM      3  C   UNL     1       4.187   3.711  18.027  0.00  0.00    +0.000 A 
ATOM      4  C   UNL     1       4.651   3.372  16.747  0.00  0.00    +0.000 A 
ATOM      5  C   UNL     1       5.209   4.352  15.943  0.00  0.00    +0.000 A 
ATOM      6  F   UNL     1       5.663   4.029  14.726  0.00  0.00    +0.000 F 
ATOM      7  C   UNL     1       5.305   5.664  16.384  0.00  0.00    +0.000 A 
ATOM      8  C   UNL     1       4.818   6.008  17.648  0.00  0.00    +0.000 A 
ATOM      9  C   UNL     1       4.237   5.042  18.478  0.00  0.00    +0.000 A 
BRANCH   3  10
ATOM     10  S   UNL     1       3.493   2.396  18.981  0.00  0.00    +0.000 S 
ATOM     11  O   UNL     1       2.069   2.347  18.740  0.00  0.00    +0.000 OA
ATOM     12  O   UNL     1       4.039   2.490  20.318  0.00  0.00    +0.000 OA
BRANCH  10  13
ATOM     13  N   UNL     1       4.189   1.031  18.286  0.00  0.00    +0.000 NA
ATOM     14  H   UNL     1       4.105   1.093  17.268  0.00  0.00    +0.000 HD
ATOM     15  H   UNL     1       3.739   0.159  18.588  0.00  0.00    +0.000 HD
ENDBRANCH  10  13
ENDBRANCH   3  10
ENDBRANCH   1   9
BRANCH   1  16
ATOM     16  S   UNL     1       2.137   5.757  19.987  0.00  0.00    +0.000 S 
ATOM     17  O   UNL     1       1.576   5.591  18.664  0.00  0.00    +0.000 OA
ATOM     18  O   UNL     1       1.705   4.882  21.066  0.00  0.00    +0.000 OA
BRANCH  16  19
ATOM     19  C   UNL     1       1.915   7.426  20.452  0.00  0.00    +0.000 C 
ATOM     20  C   UNL     1       0.840   7.724  21.205  0.00  0.00    +0.000 C 
BRANCH  20  21
ATOM     21  C   UNL     1       0.387   9.065  21.623  0.00  0.00    +0.000 A 
ATOM     22  C   UNL     1       0.715  10.160  20.803  0.00  0.00    +0.000 A 
ATOM     23  C   UNL     1       0.289  11.456  21.120  0.00  0.00    +0.000 A 
ATOM     24  C   UNL     1      -0.480  11.670  22.258  0.00  0.00    +0.000 A 
ATOM     25 CL   UNL     1      -1.005  13.261  22.653  0.00  0.00    +0.000 Cl
ATOM     26  C   UNL     1      -0.830  10.597  23.076  0.00  0.00    +0.000 A 
ATOM     27  C   UNL     1      -0.400   9.299  22.758  0.00  0.00    +0.000 A 
ENDBRANCH  20  21
ENDBRANCH  16  19
ENDBRANCH   1  16
TORSDOF 6
ENDMDL
MODEL 9
REMARK VINA RESULT:      -7.4      3.176      4.237
REMARK  Name = 
REMARK  6 active torsions:
REMARK  status: ('A' for Active; 'I' for Inactive)
REMARK    1  A    between atoms: N_1  and  S_2
REMARK    2  A    between atoms: S_2  and  C_5
REMARK    3  A    between atoms: C_11  and  N_12
REMARK    4  A    between atoms: N_12  and  S_13
REMARK    5  A    between atoms: S_13  and  C_16
REMARK    6  A    between atoms: C_17  and  C_18
REMARK                            x       y       z     vdW  Elec       q    Type
REMARK                         _______ _______ _______ _____ _____    ______ ____
ROOT
ATOM      1  N   UNL     1       2.311   5.720  18.118  0.00  0.00    +0.000 N 
ATOM      2  H   UNL     1       1.505   5.093  17.952  0.00  0.00    +0.000 HD
ENDROOT
BRANCH   1   9
ATOM      3  C   UNL     1       3.953   3.957  17.376  0.00  0.00    +0.000 A 
ATOM      4  C   UNL     1       5.154   3.635  16.725  0.00  0.00    +0.000 A 
ATOM      5  C   UNL     1       5.934   4.648  16.193  0.00  0.00    +0.000 A 
ATOM      6  F   UNL     1       7.085   4.345  15.582  0.00  0.00    +0.000 F 
ATOM      7  C   UNL     1       5.538   5.975  16.289  0.00  0.00    +0.000 A 
ATOM      8  C   UNL     1       4.329   6.294  16.913  0.00  0.00    +0.000 A 
ATOM      9  C   UNL     1       3.513   5.291  17.449  0.00  0.00    +0.000 A 
BRANCH   3  10
ATOM     10  S   UNL     1       3.026   2.600  18.024  0.00  0.00    +0.000 S 
ATOM     11  O   UNL     1       3.682   1.368  17.651  0.00  0.00    +0.000 OA
ATOM     12  O   UNL     1       1.631   2.842  17.728  0.00  0.00    +0.000 OA
BRANCH  10  13
ATOM     13  N   UNL     1       3.195   2.800  19.686  0.00  0.00    +0.000 NA
ATOM     14  H   UNL     1       4.056   2.341  19.993  0.00  0.00    +0.000 HD
ATOM     15  H   UNL     1       2.413   2.396  20.215  0.00  0.00    +0.000 HD
ENDBRANCH  10  13
ENDBRANCH   3  10
ENDBRANCH   1   9
BRANCH   1  16
ATOM     16  S   UNL     1       2.414   5.938  19.809  0.00  0.00    +0.000 S 
ATOM     17  O   UNL     1       1.388   5.075  20.352  0.00  0.00    +0.000 OA
ATOM     18  O   UNL     1       3.806   5.712  20.168  0.00  0.00    +0.000 OA
BRANCH  16  19
ATOM     19  C   UNL     1       1.968   7.587  20.173  0.00  0.00    +0.000 C 
ATOM     20  C   UNL     1       1.092   7.788  21.174  0.00  0.00    +0.000 C 
BRANCH  20  21
ATOM     21  C   UNL     1       0.487   9.069  21.586  0.00  0.00    +0.000 A 
ATOM     22  C   UNL     1       0.589  10.164  20.708  0.00  0.00    +0.000 A 
ATOM     23  C   UNL     1       0.010  11.400  21.019  0.00  0.00    +0.000 A 
ATOM     24  C   UNL     1      -0.690  11.553  22.211  0.00  0.00    +0.000 A 
ATOM     25 CL   UNL     1      -1.404  13.070  22.599  0.00  0.00    +0.000 Cl
ATOM     26  C   UNL     1      -0.819  10.478  23.088  0.00  0.00    +0.000 A 
ATOM     27  C   UNL     1      -0.235   9.240  22.776  0.00  0.00    +0.000 A 
ENDBRANCH  20  21
ENDBRANCH  16  19
ENDBRANCH   1  16
TORSDOF 6
ENDMDL
