MODEL 1
REMARK VINA RESULT:      -7.7      0.000      0.000
REMARK  Name = 
REMARK  6 active torsions:
REMARK  status: ('A' for Active; 'I' for Inactive)
REMARK    1  A    between atoms: C_1  and  C_2
REMARK    2  A    between atoms: C_8  and  N_9
REMARK    3  A    between atoms: C_15  and  N_16
REMARK    4  A    between atoms: N_16  and  C_17
REMARK    5  A    between atoms: C_17  and  C_18
REMARK    6  A    between atoms: C_18  and  N_19
REMARK                            x       y       z     vdW  Elec       q    Type
REMARK                         _______ _______ _______ _____ _____    ______ ____
ROOT
ATOM      1  N   UNL     1      -4.929  12.793  19.099  0.00  0.00    +0.000 N 
ATOM      2  C   UNL     1      -3.776  12.102  18.818  0.00  0.00    +0.000 A 
ATOM      3  N   UNL     1      -2.803  12.031  19.691  0.00  0.00    +0.000 NA
ATOM      4  C   UNL     1      -1.632  11.313  19.404  0.00  0.00    +0.000 A 
ATOM      5  C   UNL     1      -0.648  11.287  20.376  0.00  0.00    +0.000 A 
ATOM      6  C   UNL     1       0.569  10.662  20.117  0.00  0.00    +0.000 A 
ATOM      7  C   UNL     1       0.810   9.989  18.909  0.00  0.00    +0.000 A 
ATOM      8  C   UNL     1      -0.193  10.008  17.927  0.00  0.00    +0.000 A 
ATOM      9  C   UNL     1      -1.400  10.662  18.188  0.00  0.00    +0.000 A 
ATOM     10  N   UNL     1      -2.440  10.763  17.256  0.00  0.00    +0.000 N 
ATOM     11  C   UNL     1      -2.566  10.280  15.981  0.00  0.00    +0.000 A 
ATOM     12  N   UNL     1      -3.717  10.625  15.443  0.00  0.00    +0.000 NA
ATOM     13  C   UNL     1      -4.361  11.363  16.409  0.00  0.00    +0.000 A 
ATOM     14  C   UNL     1      -3.580  11.469  17.539  0.00  0.00    +0.000 A 
ATOM     15  H   UNL     1      -5.018  13.606  18.496  0.00  0.00    +0.000 HD
ENDROOT
BRANCH   1  23
ATOM     16  C   UNL     1      -3.970  15.225  20.733  0.00  0.00    +0.000 C 
ATOM     17  C   UNL     1      -4.969  14.191  21.183  0.00  0.00    +0.000 A 
ATOM     18  C   UNL     1      -5.396  14.290  22.527  0.00  0.00    +0.000 A 
ATOM     19  C   UNL     1      -6.278  13.374  23.089  0.00  0.00    +0.000 A 
ATOM     20  C   UNL     1      -6.772  12.335  22.315  0.00  0.00    +0.000 A 
ATOM     21  C   UNL     1      -6.349  12.203  20.992  0.00  0.00    +0.000 A 
ATOM     22 CL   UNL     1      -6.988  10.873  20.079  0.00  0.00    +0.000 Cl
ATOM     23  C   UNL     1      -5.429  13.105  20.399  0.00  0.00    +0.000 A 
ENDBRANCH   1  23
BRANCH   7  24
ATOM     24  N   UNL     1       2.062   9.439  18.588  0.00  0.00    +0.000 N 
ATOM     25  H   UNL     1       2.694  10.131  18.196  0.00  0.00    +0.000 HD
BRANCH  24  26
ATOM     26  C   UNL     1       2.048   8.182  17.833  0.00  0.00    +0.000 C 
BRANCH  26  27
ATOM     27  C   UNL     1       2.584   7.018  18.683  0.00  0.00    +0.000 C 
BRANCH  27  28
ATOM     28  N   UNL     1       2.632   5.726  17.967  0.00  0.00    +0.000 NA
ATOM     29  C   UNL     1       2.111   4.585  18.759  0.00  0.00    +0.000 C 
ATOM     30  C   UNL     1       2.993   4.224  19.964  0.00  0.00    +0.000 C 
ATOM     31  O   UNL     1       4.331   3.915  19.546  0.00  0.00    +0.000 OA
ATOM     32  C   UNL     1       4.906   4.994  18.797  0.00  0.00    +0.000 C 
ATOM     33  C   UNL     1       4.027   5.390  17.595  0.00  0.00    +0.000 C 
ENDBRANCH  27  28
ENDBRANCH  26  27
ENDBRANCH  24  26
ENDBRANCH   7  24
TORSDOF 5
ENDMDL
MODEL 2
REMARK VINA RESULT:      -7.6      0.864      1.142
REMARK  Name = 
REMARK  6 active torsions:
REMARK  status: ('A' for Active; 'I' for Inactive)
REMARK    1  A    between atoms: C_1  and  C_2
REMARK    2  A    between atoms: C_8  and  N_9
REMARK    3  A    between atoms: C_15  and  N_16
REMARK    4  A    between atoms: N_16  and  C_17
REMARK    5  A    between atoms: C_17  and  C_18
REMARK    6  A    between atoms: C_18  and  N_19
REMARK                            x       y       z     vdW  Elec       q    Type
REMARK                         _______ _______ _______ _____ _____    ______ ____
ROOT
ATOM      1  N   UNL     1      -4.612  12.918  19.187  0.00  0.00    +0.000 N 
ATOM      2  C   UNL     1      -3.542  12.123  18.855  0.00  0.00    +0.000 A 
ATOM      3  N   UNL     1      -2.532  11.975  19.674  0.00  0.00    +0.000 NA
ATOM      4  C   UNL     1      -1.447  11.152  19.335  0.00  0.00    +0.000 A 
ATOM      5  C   UNL     1      -0.417  11.047  20.252  0.00  0.00    +0.000 A 
ATOM      6  C   UNL     1       0.724  10.315  19.937  0.00  0.00    +0.000 A 
ATOM      7  C   UNL     1       0.837   9.611  18.727  0.00  0.00    +0.000 A 
ATOM      8  C   UNL     1      -0.214   9.710  17.801  0.00  0.00    +0.000 A 
ATOM      9  C   UNL     1      -1.342  10.471  18.117  0.00  0.00    +0.000 A 
ATOM     10  N   UNL     1      -2.418  10.656  17.242  0.00  0.00    +0.000 N 
ATOM     11  C   UNL     1      -2.657  10.174  15.983  0.00  0.00    +0.000 A 
ATOM     12  N   UNL     1      -3.801  10.615  15.504  0.00  0.00    +0.000 NA
ATOM     13  C   UNL     1      -4.323  11.416  16.492  0.00  0.00    +0.000 A 
ATOM     14  C   UNL     1      -3.475  11.463  17.577  0.00  0.00    +0.000 A 
ATOM     15  H   UNL     1      -4.662  13.729  18.578  0.00  0.00    +0.000 HD
ENDROOT
BRANCH   1  23
ATOM     16  C   UNL     1      -3.384  15.298  20.714  0.00  0.00    +0.000 C 
ATOM     17  C   UNL     1      -4.426  14.347  21.242  0.00  0.00    +0.000 A 
ATOM     18  C   UNL     1      -4.763  14.498  22.607  0.00  0.00    +0.000 A 
ATOM     19  C   UNL     1      -5.674  13.658  23.238  0.00  0.00    +0.000 A 
ATOM     20  C   UNL     1      -6.288  12.646  22.515  0.00  0.00    +0.000 A 
ATOM     21  C   UNL     1      -5.955  12.462  21.172  0.00  0.00    +0.000 A 
ATOM     22 CL   UNL     1      -6.742  11.169  20.324  0.00  0.00    +0.000 Cl
ATOM     23  C   UNL     1      -5.010  13.286  20.509  0.00  0.00    +0.000 A 
ENDBRANCH   1  23
BRANCH   7  24
ATOM     24  N   UNL     1       2.015   8.948  18.347  0.00  0.00    +0.000 N 
ATOM     25  H   UNL     1       2.105   8.877  17.337  0.00  0.00    +0.000 HD
BRANCH  24  26
ATOM     26  C   UNL     1       2.306   7.687  19.037  0.00  0.00    +0.000 C 
BRANCH  26  27
ATOM     27  C   UNL     1       3.063   6.714  18.119  0.00  0.00    +0.000 C 
BRANCH  27  28
ATOM     28  N   UNL     1       3.326   5.394  18.730  0.00  0.00    +0.000 NA
ATOM     29  C   UNL     1       4.674   5.275  19.338  0.00  0.00    +0.000 C 
ATOM     30  C   UNL     1       5.813   5.292  18.307  0.00  0.00    +0.000 C 
ATOM     31  O   UNL     1       5.651   4.238  17.348  0.00  0.00    +0.000 OA
ATOM     32  C   UNL     1       4.374   4.312  16.699  0.00  0.00    +0.000 C 
ATOM     33  C   UNL     1       3.216   4.320  17.714  0.00  0.00    +0.000 C 
ENDBRANCH  27  28
ENDBRANCH  26  27
ENDBRANCH  24  26
ENDBRANCH   7  24
TORSDOF 5
ENDMDL
MODEL 3
REMARK VINA RESULT:      -7.6      2.022      2.641
REMARK  Name = 
REMARK  6 active torsions:
REMARK  status: ('A' for Active; 'I' for Inactive)
REMARK    1  A    between atoms: C_1  and  C_2
REMARK    2  A    between atoms: C_8  and  N_9
REMARK    3  A    between atoms: C_15  and  N_16
REMARK    4  A    between atoms: N_16  and  C_17
REMARK    5  A    between atoms: C_17  and  C_18
REMARK    6  A    between atoms: C_18  and  N_19
REMARK                            x       y       z     vdW  Elec       q    Type
REMARK                         _______ _______ _______ _____ _____    ______ ____
ROOT
ATOM      1  N   UNL     1      -3.099  13.510  20.140  0.00  0.00    +0.000 N 
ATOM      2  C   UNL     1      -2.289  12.401  20.118  0.00  0.00    +0.000 A 
ATOM      3  N   UNL     1      -1.621  12.034  21.182  0.00  0.00    +0.000 NA
ATOM      4  C   UNL     1      -0.805  10.892  21.159  0.00  0.00    +0.000 A 
ATOM      5  C   UNL     1      -0.129  10.570  22.322  0.00  0.00    +0.000 A 
ATOM      6  C   UNL     1       0.761   9.499  22.335  0.00  0.00    +0.000 A 
ATOM      7  C   UNL     1       0.947   8.681  21.209  0.00  0.00    +0.000 A 
ATOM      8  C   UNL     1       0.253   9.004  20.033  0.00  0.00    +0.000 A 
ATOM      9  C   UNL     1      -0.617  10.097  20.023  0.00  0.00    +0.000 A 
ATOM     10  N   UNL     1      -1.320  10.514  18.887  0.00  0.00    +0.000 N 
ATOM     11  C   UNL     1      -1.373  10.008  17.616  0.00  0.00    +0.000 A 
ATOM     12  N   UNL     1      -2.157  10.726  16.840  0.00  0.00    +0.000 NA
ATOM     13  C   UNL     1      -2.629  11.739  17.641  0.00  0.00    +0.000 A 
ATOM     14  C   UNL     1      -2.114  11.631  18.914  0.00  0.00    +0.000 A 
ATOM     15  H   UNL     1      -2.733  14.236  19.531  0.00  0.00    +0.000 HD
ENDROOT
BRANCH   1  23
ATOM     16  C   UNL     1      -5.739  12.529  21.395  0.00  0.00    +0.000 C 
ATOM     17  C   UNL     1      -4.914  13.700  21.863  0.00  0.00    +0.000 A 
ATOM     18  C   UNL     1      -5.485  14.485  22.891  0.00  0.00    +0.000 A 
ATOM     19  C   UNL     1      -4.856  15.622  23.386  0.00  0.00    +0.000 A 
ATOM     20  C   UNL     1      -3.624  16.001  22.874  0.00  0.00    +0.000 A 
ATOM     21  C   UNL     1      -3.050  15.256  21.843  0.00  0.00    +0.000 A 
ATOM     22 CL   UNL     1      -1.516  15.789  21.231  0.00  0.00    +0.000 Cl
ATOM     23  C   UNL     1      -3.680  14.107  21.300  0.00  0.00    +0.000 A 
ENDBRANCH   1  23
BRANCH   7  24
ATOM     24  N   UNL     1       1.909   7.659  21.170  0.00  0.00    +0.000 N 
ATOM     25  H   UNL     1       2.713   7.869  21.756  0.00  0.00    +0.000 HD
BRANCH  24  26
ATOM     26  C   UNL     1       2.284   7.166  19.842  0.00  0.00    +0.000 C 
BRANCH  26  27
ATOM     27  C   UNL     1       2.445   5.637  19.842  0.00  0.00    +0.000 C 
BRANCH  27  28
ATOM     28  N   UNL     1       2.972   5.088  18.575  0.00  0.00    +0.000 NA
ATOM     29  C   UNL     1       3.147   3.616  18.589  0.00  0.00    +0.000 C 
ATOM     30  C   UNL     1       4.259   3.140  19.536  0.00  0.00    +0.000 C 
ATOM     31  O   UNL     1       5.515   3.744  19.195  0.00  0.00    +0.000 OA
ATOM     32  C   UNL     1       5.423   5.175  19.194  0.00  0.00    +0.000 C 
ATOM     33  C   UNL     1       4.298   5.676  18.267  0.00  0.00    +0.000 C 
ENDBRANCH  27  28
ENDBRANCH  26  27
ENDBRANCH  24  26
ENDBRANCH   7  24
TORSDOF 5
ENDMDL
MODEL 4
REMARK VINA RESULT:      -7.5      1.019      1.619
REMARK  Name = 
REMARK  6 active torsions:
REMARK  status: ('A' for Active; 'I' for Inactive)
REMARK    1  A    between atoms: C_1  and  C_2
REMARK    2  A    between atoms: C_8  and  N_9
REMARK    3  A    between atoms: C_15  and  N_16
REMARK    4  A    between atoms: N_16  and  C_17
REMARK    5  A    between atoms: C_17  and  C_18
REMARK    6  A    between atoms: C_18  and  N_19
REMARK                            x       y       z     vdW  Elec       q    Type
REMARK                         _______ _______ _______ _____ _____    ______ ____
ROOT
ATOM      1  N   UNL     1      -4.975  12.694  19.279  0.00  0.00    +0.000 N 
ATOM      2  C   UNL     1      -3.805  12.050  18.960  0.00  0.00    +0.000 A 
ATOM      3  N   UNL     1      -2.831  11.952  19.829  0.00  0.00    +0.000 NA
ATOM      4  C   UNL     1      -1.642  11.282  19.502  0.00  0.00    +0.000 A 
ATOM      5  C   UNL     1      -0.659  11.223  20.473  0.00  0.00    +0.000 A 
ATOM      6  C   UNL     1       0.574  10.646  20.180  0.00  0.00    +0.000 A 
ATOM      7  C   UNL     1       0.833  10.053  18.933  0.00  0.00    +0.000 A 
ATOM      8  C   UNL     1      -0.170  10.105  17.953  0.00  0.00    +0.000 A 
ATOM      9  C   UNL     1      -1.393  10.711  18.249  0.00  0.00    +0.000 A 
ATOM     10  N   UNL     1      -2.435  10.842  17.324  0.00  0.00    +0.000 N 
ATOM     11  C   UNL     1      -2.548  10.433  16.022  0.00  0.00    +0.000 A 
ATOM     12  N   UNL     1      -3.707  10.780  15.503  0.00  0.00    +0.000 NA
ATOM     13  C   UNL     1      -4.370  11.442  16.510  0.00  0.00    +0.000 A 
ATOM     14  C   UNL     1      -3.593  11.500  17.646  0.00  0.00    +0.000 A 
ATOM     15  H   UNL     1      -5.085  13.539  18.726  0.00  0.00    +0.000 HD
ENDROOT
BRANCH   1  23
ATOM     16  C   UNL     1      -7.129  10.907  20.574  0.00  0.00    +0.000 C 
ATOM     17  C   UNL     1      -6.505  12.133  21.189  0.00  0.00    +0.000 A 
ATOM     18  C   UNL     1      -7.063  12.559  22.416  0.00  0.00    +0.000 A 
ATOM     19  C   UNL     1      -6.618  13.702  23.070  0.00  0.00    +0.000 A 
ATOM     20  C   UNL     1      -5.585  14.448  22.521  0.00  0.00    +0.000 A 
ATOM     21  C   UNL     1      -5.032  14.060  21.300  0.00  0.00    +0.000 A 
ATOM     22 CL   UNL     1      -3.756  15.042  20.654  0.00  0.00    +0.000 Cl
ATOM     23  C   UNL     1      -5.484  12.915  20.595  0.00  0.00    +0.000 A 
ENDBRANCH   1  23
BRANCH   7  24
ATOM     24  N   UNL     1       2.098   9.555  18.583  0.00  0.00    +0.000 N 
ATOM     25  H   UNL     1       2.691  10.271  18.173  0.00  0.00    +0.000 HD
BRANCH  24  26
ATOM     26  C   UNL     1       2.119   8.296  17.832  0.00  0.00    +0.000 C 
BRANCH  26  27
ATOM     27  C   UNL     1       2.394   7.101  18.758  0.00  0.00    +0.000 C 
BRANCH  27  28
ATOM     28  N   UNL     1       2.459   5.801  18.058  0.00  0.00    +0.000 NA
ATOM     29  C   UNL     1       2.076   4.646  18.906  0.00  0.00    +0.000 C 
ATOM     30  C   UNL     1       3.077   4.358  20.035  0.00  0.00    +0.000 C 
ATOM     31  O   UNL     1       4.390   4.121  19.508  0.00  0.00    +0.000 OA
ATOM     32  C   UNL     1       4.835   5.218  18.699  0.00  0.00    +0.000 C 
ATOM     33  C   UNL     1       3.835   5.541  17.572  0.00  0.00    +0.000 C 
ENDBRANCH  27  28
ENDBRANCH  26  27
ENDBRANCH  24  26
ENDBRANCH   7  24
TORSDOF 5
ENDMDL
MODEL 5
REMARK VINA RESULT:      -7.5      2.818      3.536
REMARK  Name = 
REMARK  6 active torsions:
REMARK  status: ('A' for Active; 'I' for Inactive)
REMARK    1  A    between atoms: C_1  and  C_2
REMARK    2  A    between atoms: C_8  and  N_9
REMARK    3  A    between atoms: C_15  and  N_16
REMARK    4  A    between atoms: N_16  and  C_17
REMARK    5  A    between atoms: C_17  and  C_18
REMARK    6  A    between atoms: C_18  and  N_19
REMARK                            x       y       z     vdW  Elec       q    Type
REMARK                         _______ _______ _______ _____ _____    ______ ____
ROOT
ATOM      1  N   UNL     1      -1.644  13.382  21.225  0.00  0.00    +0.000 N 
ATOM      2  C   UNL     1      -0.848  12.319  20.874  0.00  0.00    +0.000 A 
ATOM      3  N   UNL     1      -0.942  11.172  21.497  0.00  0.00    +0.000 NA
ATOM      4  C   UNL     1      -0.136  10.085  21.125  0.00  0.00    +0.000 A 
ATOM      5  C   UNL     1      -0.293   8.907  21.832  0.00  0.00    +0.000 A 
ATOM      6  C   UNL     1       0.537   7.821  21.567  0.00  0.00    +0.000 A 
ATOM      7  C   UNL     1       1.498   7.860  20.544  0.00  0.00    +0.000 A 
ATOM      8  C   UNL     1       1.649   9.053  19.821  0.00  0.00    +0.000 A 
ATOM      9  C   UNL     1       0.829  10.146  20.114  0.00  0.00    +0.000 A 
ATOM     10  N   UNL     1       0.934  11.384  19.471  0.00  0.00    +0.000 N 
ATOM     11  C   UNL     1       1.756  11.818  18.466  0.00  0.00    +0.000 A 
ATOM     12  N   UNL     1       1.532  13.080  18.167  0.00  0.00    +0.000 NA
ATOM     13  C   UNL     1       0.526  13.480  19.014  0.00  0.00    +0.000 A 
ATOM     14  C   UNL     1       0.146  12.444  19.839  0.00  0.00    +0.000 A 
ATOM     15  H   UNL     1      -1.087  14.135  21.619  0.00  0.00    +0.000 HD
ENDROOT
BRANCH   1  23
ATOM     16  C   UNL     1      -4.255  12.493  19.846  0.00  0.00    +0.000 C 
ATOM     17  C   UNL     1      -4.115  12.946  21.277  0.00  0.00    +0.000 A 
ATOM     18  C   UNL     1      -5.322  13.093  21.998  0.00  0.00    +0.000 A 
ATOM     19  C   UNL     1      -5.346  13.549  23.311  0.00  0.00    +0.000 A 
ATOM     20  C   UNL     1      -4.154  13.861  23.949  0.00  0.00    +0.000 A 
ATOM     21  C   UNL     1      -2.951  13.745  23.252  0.00  0.00    +0.000 A 
ATOM     22 CL   UNL     1      -1.495  14.166  24.098  0.00  0.00    +0.000 Cl
ATOM     23  C   UNL     1      -2.898  13.308  21.904  0.00  0.00    +0.000 A 
ENDBRANCH   1  23
BRANCH   7  24
ATOM     24  N   UNL     1       2.410   6.814  20.325  0.00  0.00    +0.000 N 
ATOM     25  H   UNL     1       3.165   6.817  21.005  0.00  0.00    +0.000 HD
BRANCH  24  26
ATOM     26  C   UNL     1       2.881   6.637  18.948  0.00  0.00    +0.000 C 
BRANCH  26  27
ATOM     27  C   UNL     1       3.554   5.267  18.763  0.00  0.00    +0.000 C 
BRANCH  27  28
ATOM     28  N   UNL     1       3.034   4.494  17.616  0.00  0.00    +0.000 NA
ATOM     29  C   UNL     1       1.590   4.174  17.717  0.00  0.00    +0.000 C 
ATOM     30  C   UNL     1       1.260   3.182  18.842  0.00  0.00    +0.000 C 
ATOM     31  O   UNL     1       1.987   1.956  18.674  0.00  0.00    +0.000 OA
ATOM     32  C   UNL     1       3.400   2.193  18.600  0.00  0.00    +0.000 C 
ATOM     33  C   UNL     1       3.753   3.203  17.491  0.00  0.00    +0.000 C 
ENDBRANCH  27  28
ENDBRANCH  26  27
ENDBRANCH  24  26
ENDBRANCH   7  24
TORSDOF 5
ENDMDL
MODEL 6
REMARK VINA RESULT:      -7.4      3.072      3.783
REMARK  Name = 
REMARK  6 active torsions:
REMARK  status: ('A' for Active; 'I' for Inactive)
REMARK    1  A    between atoms: C_1  and  C_2
REMARK    2  A    between atoms: C_8  and  N_9
REMARK    3  A    between atoms: C_15  and  N_16
REMARK    4  A    between atoms: N_16  and  C_17
REMARK    5  A    between atoms: C_17  and  C_18
REMARK    6  A    between atoms: C_18  and  N_19
REMARK                            x       y       z     vdW  Elec       q    Type
REMARK                         _______ _______ _______ _____ _____    ______ ____
ROOT
ATOM      1  N   UNL     1      -1.564  13.683  21.425  0.00  0.00    +0.000 N 
ATOM      2  C   UNL     1      -0.812  12.602  21.032  0.00  0.00    +0.000 A 
ATOM      3  N   UNL     1      -0.916  11.451  21.645  0.00  0.00    +0.000 NA
ATOM      4  C   UNL     1      -0.156  10.346  21.232  0.00  0.00    +0.000 A 
ATOM      5  C   UNL     1      -0.319   9.164  21.931  0.00  0.00    +0.000 A 
ATOM      6  C   UNL     1       0.469   8.058  21.623  0.00  0.00    +0.000 A 
ATOM      7  C   UNL     1       1.392   8.083  20.564  0.00  0.00    +0.000 A 
ATOM      8  C   UNL     1       1.550   9.281  19.850  0.00  0.00    +0.000 A 
ATOM      9  C   UNL     1       0.773  10.392  20.186  0.00  0.00    +0.000 A 
ATOM     10  N   UNL     1       0.889  11.635  19.554  0.00  0.00    +0.000 N 
ATOM     11  C   UNL     1       1.685  12.059  18.523  0.00  0.00    +0.000 A 
ATOM     12  N   UNL     1       1.486  13.330  18.247  0.00  0.00    +0.000 NA
ATOM     13  C   UNL     1       0.524  13.747  19.136  0.00  0.00    +0.000 A 
ATOM     14  C   UNL     1       0.146  12.712  19.963  0.00  0.00    +0.000 A 
ATOM     15  H   UNL     1      -0.972  14.415  21.807  0.00  0.00    +0.000 HD
ENDROOT
BRANCH   1  23
ATOM     16  C   UNL     1      -4.226  12.768  20.166  0.00  0.00    +0.000 C 
ATOM     17  C   UNL     1      -4.034  13.262  21.577  0.00  0.00    +0.000 A 
ATOM     18  C   UNL     1      -5.214  13.436  22.335  0.00  0.00    +0.000 A 
ATOM     19  C   UNL     1      -5.189  13.932  23.635  0.00  0.00    +0.000 A 
ATOM     20  C   UNL     1      -3.975  14.254  24.221  0.00  0.00    +0.000 A 
ATOM     21  C   UNL     1      -2.797  14.112  23.486  0.00  0.00    +0.000 A 
ATOM     22 CL   UNL     1      -1.310  14.549  24.267  0.00  0.00    +0.000 Cl
ATOM     23  C   UNL     1      -2.794  13.636  22.150  0.00  0.00    +0.000 A 
ENDBRANCH   1  23
BRANCH   7  24
ATOM     24  N   UNL     1       2.264   7.015  20.299  0.00  0.00    +0.000 N 
ATOM     25  H   UNL     1       2.630   7.047  19.351  0.00  0.00    +0.000 HD
BRANCH  24  26
ATOM     26  C   UNL     1       1.800   5.681  20.690  0.00  0.00    +0.000 C 
BRANCH  26  27
ATOM     27  C   UNL     1       1.957   4.678  19.535  0.00  0.00    +0.000 C 
BRANCH  27  28
ATOM     28  N   UNL     1       1.736   3.271  19.928  0.00  0.00    +0.000 NA
ATOM     29  C   UNL     1       2.932   2.621  20.518  0.00  0.00    +0.000 C 
ATOM     30  C   UNL     1       4.073   2.411  19.511  0.00  0.00    +0.000 C 
ATOM     31  O   UNL     1       3.633   1.626  18.394  0.00  0.00    +0.000 OA
ATOM     32  C   UNL     1       2.493   2.218  17.756  0.00  0.00    +0.000 C 
ATOM     33  C   UNL     1       1.342   2.459  18.752  0.00  0.00    +0.000 C 
ENDBRANCH  27  28
ENDBRANCH  26  27
ENDBRANCH  24  26
ENDBRANCH   7  24
TORSDOF 5
ENDMDL
MODEL 7
REMARK VINA RESULT:      -7.4      4.192     10.624
REMARK  Name = 
REMARK  6 active torsions:
REMARK  status: ('A' for Active; 'I' for Inactive)
REMARK    1  A    between atoms: C_1  and  C_2
REMARK    2  A    between atoms: C_8  and  N_9
REMARK    3  A    between atoms: C_15  and  N_16
REMARK    4  A    between atoms: N_16  and  C_17
REMARK    5  A    between atoms: C_17  and  C_18
REMARK    6  A    between atoms: C_18  and  N_19
REMARK                            x       y       z     vdW  Elec       q    Type
REMARK                         _______ _______ _______ _____ _____    ______ ____
ROOT
ATOM      1  N   UNL     1       5.000   4.550  18.309  0.00  0.00    +0.000 N 
ATOM      2  C   UNL     1       4.020   5.446  18.658  0.00  0.00    +0.000 A 
ATOM      3  N   UNL     1       3.907   6.595  18.041  0.00  0.00    +0.000 NA
ATOM      4  C   UNL     1       2.895   7.502  18.392  0.00  0.00    +0.000 A 
ATOM      5  C   UNL     1       2.842   8.696  17.695  0.00  0.00    +0.000 A 
ATOM      6  C   UNL     1       1.915   9.670  18.055  0.00  0.00    +0.000 A 
ATOM      7  C   UNL     1       0.973   9.451  19.073  0.00  0.00    +0.000 A 
ATOM      8  C   UNL     1       1.022   8.235  19.772  0.00  0.00    +0.000 A 
ATOM      9  C   UNL     1       1.975   7.276  19.420  0.00  0.00    +0.000 A 
ATOM     10  N   UNL     1       2.120   6.053  20.086  0.00  0.00    +0.000 N 
ATOM     11  C   UNL     1       1.430   5.501  21.131  0.00  0.00    +0.000 A 
ATOM     12  N   UNL     1       1.913   4.322  21.463  0.00  0.00    +0.000 NA
ATOM     13  C   UNL     1       2.960   4.104  20.599  0.00  0.00    +0.000 A 
ATOM     14  C   UNL     1       3.112   5.171  19.741  0.00  0.00    +0.000 A 
ATOM     15  H   UNL     1       5.672   4.437  19.064  0.00  0.00    +0.000 HD
ENDROOT
BRANCH   1  23
ATOM     16  C   UNL     1       7.841   5.667  17.871  0.00  0.00    +0.000 C 
ATOM     17  C   UNL     1       6.963   5.034  16.822  0.00  0.00    +0.000 A 
ATOM     18  C   UNL     1       7.453   5.084  15.497  0.00  0.00    +0.000 A 
ATOM     19  C   UNL     1       6.726   4.582  14.423  0.00  0.00    +0.000 A 
ATOM     20  C   UNL     1       5.487   4.001  14.646  0.00  0.00    +0.000 A 
ATOM     21  C   UNL     1       4.972   3.959  15.943  0.00  0.00    +0.000 A 
ATOM     22 CL   UNL     1       3.409   3.235  16.157  0.00  0.00    +0.000 Cl
ATOM     23  C   UNL     1       5.678   4.487  17.054  0.00  0.00    +0.000 A 
ENDBRANCH   1  23
BRANCH   7  24
ATOM     24  N   UNL     1       0.096  10.454  19.517  0.00  0.00    +0.000 N 
ATOM     25  H   UNL     1      -0.803  10.076  19.804  0.00  0.00    +0.000 HD
BRANCH  24  26
ATOM     26  C   UNL     1      -0.029  11.638  18.661  0.00  0.00    +0.000 C 
BRANCH  26  27
ATOM     27  C   UNL     1      -1.487  11.856  18.224  0.00  0.00    +0.000 C 
BRANCH  27  28
ATOM     28  N   UNL     1      -2.267  10.607  18.093  0.00  0.00    +0.000 NA
ATOM     29  C   UNL     1      -2.124   9.950  16.771  0.00  0.00    +0.000 C 
ATOM     30  C   UNL     1      -2.755  10.748  15.620  0.00  0.00    +0.000 C 
ATOM     31  O   UNL     1      -4.150  10.983  15.864  0.00  0.00    +0.000 OA
ATOM     32  C   UNL     1      -4.357  11.646  17.118  0.00  0.00    +0.000 C 
ATOM     33  C   UNL     1      -3.713  10.875  18.286  0.00  0.00    +0.000 C 
ENDBRANCH  27  28
ENDBRANCH  26  27
ENDBRANCH  24  26
ENDBRANCH   7  24
TORSDOF 5
ENDMDL
MODEL 8
REMARK VINA RESULT:      -7.4      4.388     10.952
REMARK  Name = 
REMARK  6 active torsions:
REMARK  status: ('A' for Active; 'I' for Inactive)
REMARK    1  A    between atoms: C_1  and  C_2
REMARK    2  A    between atoms: C_8  and  N_9
REMARK    3  A    between atoms: C_15  and  N_16
REMARK    4  A    between atoms: N_16  and  C_17
REMARK    5  A    between atoms: C_17  and  C_18
REMARK    6  A    between atoms: C_18  and  N_19
REMARK                            x       y       z     vdW  Elec       q    Type
REMARK                         _______ _______ _______ _____ _____    ______ ____
ROOT
ATOM      1  N   UNL     1       5.130   3.752  18.484  0.00  0.00    +0.000 N 
ATOM      2  C   UNL     1       4.126   4.442  19.119  0.00  0.00    +0.000 A 
ATOM      3  N   UNL     1       3.863   5.686  18.809  0.00  0.00    +0.000 NA
ATOM      4  C   UNL     1       2.828   6.382  19.452  0.00  0.00    +0.000 A 
ATOM      5  C   UNL     1       2.612   7.694  19.071  0.00  0.00    +0.000 A 
ATOM      6  C   UNL     1       1.657   8.462  19.732  0.00  0.00    +0.000 A 
ATOM      7  C   UNL     1       0.845   7.920  20.742  0.00  0.00    +0.000 A 
ATOM      8  C   UNL     1       1.059   6.586  21.120  0.00  0.00    +0.000 A 
ATOM      9  C   UNL     1       2.040   5.833  20.469  0.00  0.00    +0.000 A 
ATOM     10  N   UNL     1       2.346   4.510  20.805  0.00  0.00    +0.000 N 
ATOM     11  C   UNL     1       1.813   3.664  21.740  0.00  0.00    +0.000 A 
ATOM     12  N   UNL     1       2.416   2.494  21.736  0.00  0.00    +0.000 NA
ATOM     13  C   UNL     1       3.380   2.587  20.761  0.00  0.00    +0.000 A 
ATOM     14  C   UNL     1       3.360   3.834  20.176  0.00  0.00    +0.000 A 
ATOM     15  H   UNL     1       5.883   3.533  19.130  0.00  0.00    +0.000 HD
ENDROOT
BRANCH   1  23
ATOM     16  C   UNL     1       7.990   4.829  18.076  0.00  0.00    +0.000 C 
ATOM     17  C   UNL     1       6.969   4.588  16.995  0.00  0.00    +0.000 A 
ATOM     18  C   UNL     1       7.330   5.023  15.698  0.00  0.00    +0.000 A 
ATOM     19  C   UNL     1       6.465   4.907  14.615  0.00  0.00    +0.000 A 
ATOM     20  C   UNL     1       5.214   4.338  14.795  0.00  0.00    +0.000 A 
ATOM     21  C   UNL     1       4.825   3.921  16.069  0.00  0.00    +0.000 A 
ATOM     22 CL   UNL     1       3.241   3.232  16.236  0.00  0.00    +0.000 Cl
ATOM     23  C   UNL     1       5.675   4.051  17.198  0.00  0.00    +0.000 A 
ENDBRANCH   1  23
BRANCH   7  24
ATOM     24  N   UNL     1      -0.054   8.701  21.487  0.00  0.00    +0.000 N 
ATOM     25  H   UNL     1      -0.989   8.690  21.090  0.00  0.00    +0.000 HD
BRANCH  24  26
ATOM     26  C   UNL     1       0.397  10.048  21.850  0.00  0.00    +0.000 C 
BRANCH  26  27
ATOM     27  C   UNL     1      -0.688  11.095  21.555  0.00  0.00    +0.000 C 
BRANCH  27  28
ATOM     28  N   UNL     1      -0.907  11.343  20.114  0.00  0.00    +0.000 NA
ATOM     29  C   UNL     1       0.256  11.959  19.431  0.00  0.00    +0.000 C 
ATOM     30  C   UNL     1       0.536  13.401  19.881  0.00  0.00    +0.000 C 
ATOM     31  O   UNL     1      -0.612  14.236  19.669  0.00  0.00    +0.000 OA
ATOM     32  C   UNL     1      -1.770  13.711  20.332  0.00  0.00    +0.000 C 
ATOM     33  C   UNL     1      -2.058  12.256  19.913  0.00  0.00    +0.000 C 
ENDBRANCH  27  28
ENDBRANCH  26  27
ENDBRANCH  24  26
ENDBRANCH   7  24
TORSDOF 5
ENDMDL
MODEL 9
REMARK VINA RESULT:      -7.3      1.369      2.026
REMARK  Name = 
REMARK  6 active torsions:
REMARK  status: ('A' for Active; 'I' for Inactive)
REMARK    1  A    between atoms: C_1  and  C_2
REMARK    2  A    between atoms: C_8  and  N_9
REMARK    3  A    between atoms: C_15  and  N_16
REMARK    4  A    between atoms: N_16  and  C_17
REMARK    5  A    between atoms: C_17  and  C_18
REMARK    6  A    between atoms: C_18  and  N_19
REMARK                            x       y       z     vdW  Elec       q    Type
REMARK                         _______ _______ _______ _____ _____    ______ ____
ROOT
ATOM      1  N   UNL     1      -4.437  12.808  19.249  0.00  0.00    +0.000 N 
ATOM      2  C   UNL     1      -3.378  12.000  18.915  0.00  0.00    +0.000 A 
ATOM      3  N   UNL     1      -2.405  11.779  19.763  0.00  0.00    +0.000 NA
ATOM      4  C   UNL     1      -1.332  10.941  19.422  0.00  0.00    +0.000 A 
ATOM      5  C   UNL     1      -0.343  10.758  20.371  0.00  0.00    +0.000 A 
ATOM      6  C   UNL     1       0.789  10.008  20.061  0.00  0.00    +0.000 A 
ATOM      7  C   UNL     1       0.929   9.365  18.820  0.00  0.00    +0.000 A 
ATOM      8  C   UNL     1      -0.081   9.543  17.862  0.00  0.00    +0.000 A 
ATOM      9  C   UNL     1      -1.199  10.321  18.175  0.00  0.00    +0.000 A 
ATOM     10  N   UNL     1      -2.234  10.584  17.271  0.00  0.00    +0.000 N 
ATOM     11  C   UNL     1      -2.438  10.174  15.980  0.00  0.00    +0.000 A 
ATOM     12  N   UNL     1      -3.549  10.674  15.482  0.00  0.00    +0.000 NA
ATOM     13  C   UNL     1      -4.085  11.439  16.491  0.00  0.00    +0.000 A 
ATOM     14  C   UNL     1      -3.279  11.404  17.608  0.00  0.00    +0.000 A 
ATOM     15  H   UNL     1      -4.440  13.652  18.682  0.00  0.00    +0.000 HD
ENDROOT
BRANCH   1  23
ATOM     16  C   UNL     1      -6.778  11.355  20.632  0.00  0.00    +0.000 C 
ATOM     17  C   UNL     1      -5.977  12.495  21.206  0.00  0.00    +0.000 A 
ATOM     18  C   UNL     1      -6.439  13.016  22.436  0.00  0.00    +0.000 A 
ATOM     19  C   UNL     1      -5.825  14.099  23.056  0.00  0.00    +0.000 A 
ATOM     20  C   UNL     1      -4.716  14.687  22.466  0.00  0.00    +0.000 A 
ATOM     21  C   UNL     1      -4.253  14.206  21.240  0.00  0.00    +0.000 A 
ATOM     22 CL   UNL     1      -2.873  14.993  20.543  0.00  0.00    +0.000 Cl
ATOM     23  C   UNL     1      -4.876  13.120  20.572  0.00  0.00    +0.000 A 
ENDBRANCH   1  23
BRANCH   7  24
ATOM     24  N   UNL     1       2.102   8.686  18.451  0.00  0.00    +0.000 N 
ATOM     25  H   UNL     1       2.135   8.497  17.453  0.00  0.00    +0.000 HD
BRANCH  24  26
ATOM     26  C   UNL     1       2.467   7.523  19.266  0.00  0.00    +0.000 C 
BRANCH  26  27
ATOM     27  C   UNL     1       2.461   6.234  18.427  0.00  0.00    +0.000 C 
BRANCH  27  28
ATOM     28  N   UNL     1       3.035   5.064  19.123  0.00  0.00    +0.000 NA
ATOM     29  C   UNL     1       4.517   5.018  19.092  0.00  0.00    +0.000 C 
ATOM     30  C   UNL     1       5.091   4.767  17.689  0.00  0.00    +0.000 C 
ATOM     31  O   UNL     1       4.586   3.542  17.140  0.00  0.00    +0.000 OA
ATOM     32  C   UNL     1       3.152   3.533  17.113  0.00  0.00    +0.000 C 
ATOM     33  C   UNL     1       2.552   3.805  18.506  0.00  0.00    +0.000 C 
ENDBRANCH  27  28
ENDBRANCH  26  27
ENDBRANCH  24  26
ENDBRANCH   7  24
TORSDOF 5
ENDMDL
