MODEL 1
REMARK VINA RESULT:      -6.0      0.000      0.000
REMARK  Name = 
REMARK  5 active torsions:
REMARK  status: ('A' for Active; 'I' for Inactive)
REMARK    1  A    between atoms: C_2  and  C_4
REMARK    2  A    between atoms: C_4  and  N_5
REMARK    3  A    between atoms: N_5  and  C_6
REMARK    4  A    between atoms: C_6  and  C_7
REMARK    5  A    between atoms: C_7  and  C_8
REMARK                            x       y       z     vdW  Elec       q    Type
REMARK                         _______ _______ _______ _____ _____    ______ ____
ROOT
ATOM      1  N   UNL     1       6.118   4.191  18.545  0.00  0.00    +0.000 NA
ATOM      2  H   UNL     1       6.335   3.876  19.493  0.00  0.00    +0.000 HD
ENDROOT
BRANCH   1   3
ATOM      3  C   UNL     1       7.350   4.786  17.975  0.00  0.00    +0.000 C 
BRANCH   3   5
ATOM      4  N   UNL     1       8.260   5.402  20.159  0.00  0.00    +0.000 N 
ATOM      5  C   UNL     1       7.910   5.854  18.917  0.00  0.00    +0.000 C 
ATOM      6  O   UNL     1       8.084   7.023  18.591  0.00  0.00    +0.000 OA
ATOM      7  H   UNL     1       8.641   6.044  20.837  0.00  0.00    +0.000 HD
ATOM      8  H   UNL     1       8.098   4.429  20.391  0.00  0.00    +0.000 HD
ENDBRANCH   3   5
ENDBRANCH   1   3
BRANCH   1   9
ATOM      9  C   UNL     1       5.062   5.209  18.616  0.00  0.00    +0.000 C 
BRANCH   9  10
ATOM     10  C   UNL     1       3.903   4.864  17.671  0.00  0.00    +0.000 C 
BRANCH  10  11
ATOM     11  C   UNL     1       2.743   4.282  18.440  0.00  0.00    +0.000 A 
ATOM     12  C   UNL     1       2.312   4.882  19.631  0.00  0.00    +0.000 A 
ATOM     13  C   UNL     1       1.292   4.302  20.385  0.00  0.00    +0.000 A 
ATOM     14  C   UNL     1       0.693   3.119  19.956  0.00  0.00    +0.000 A 
ATOM     15  C   UNL     1       1.108   2.519  18.768  0.00  0.00    +0.000 A 
ATOM     16  C   UNL     1       2.128   3.097  18.012  0.00  0.00    +0.000 A 
ENDBRANCH  10  11
ENDBRANCH   9  10
ENDBRANCH   1   9
TORSDOF 5
ENDMDL
MODEL 2
REMARK VINA RESULT:      -5.9      1.766      2.424
REMARK  Name = 
REMARK  5 active torsions:
REMARK  status: ('A' for Active; 'I' for Inactive)
REMARK    1  A    between atoms: C_2  and  C_4
REMARK    2  A    between atoms: C_4  and  N_5
REMARK    3  A    between atoms: N_5  and  C_6
REMARK    4  A    between atoms: C_6  and  C_7
REMARK    5  A    between atoms: C_7  and  C_8
REMARK                            x       y       z     vdW  Elec       q    Type
REMARK                         _______ _______ _______ _____ _____    ______ ____
ROOT
ATOM      1  N   UNL     1       6.063   4.101  18.505  0.00  0.00    +0.000 NA
ATOM      2  H   UNL     1       6.370   3.446  19.227  0.00  0.00    +0.000 HD
ENDROOT
BRANCH   1   3
ATOM      3  C   UNL     1       7.269   4.571  17.782  0.00  0.00    +0.000 C 
BRANCH   3   5
ATOM      4  N   UNL     1       7.313   5.941  15.758  0.00  0.00    +0.000 N 
ATOM      5  C   UNL     1       6.968   4.729  16.290  0.00  0.00    +0.000 C 
ATOM      6  O   UNL     1       6.495   3.837  15.594  0.00  0.00    +0.000 OA
ATOM      7  H   UNL     1       7.150   6.122  14.779  0.00  0.00    +0.000 HD
ATOM      8  H   UNL     1       7.698   6.654  16.366  0.00  0.00    +0.000 HD
ENDBRANCH   3   5
ENDBRANCH   1   3
BRANCH   1   9
ATOM      9  C   UNL     1       5.398   5.240  19.152  0.00  0.00    +0.000 C 
BRANCH   9  10
ATOM     10  C   UNL     1       4.084   5.585  18.437  0.00  0.00    +0.000 C 
BRANCH  10  11
ATOM     11  C   UNL     1       2.963   4.704  18.929  0.00  0.00    +0.000 A 
ATOM     12  C   UNL     1       2.324   3.817  18.052  0.00  0.00    +0.000 A 
ATOM     13  C   UNL     1       1.235   3.058  18.485  0.00  0.00    +0.000 A 
ATOM     14  C   UNL     1       0.777   3.178  19.795  0.00  0.00    +0.000 A 
ATOM     15  C   UNL     1       1.412   4.051  20.678  0.00  0.00    +0.000 A 
ATOM     16  C   UNL     1       2.501   4.811  20.248  0.00  0.00    +0.000 A 
ENDBRANCH  10  11
ENDBRANCH   9  10
ENDBRANCH   1   9
TORSDOF 5
ENDMDL
MODEL 3
REMARK VINA RESULT:      -5.9      1.850      2.235
REMARK  Name = 
REMARK  5 active torsions:
REMARK  status: ('A' for Active; 'I' for Inactive)
REMARK    1  A    between atoms: C_2  and  C_4
REMARK    2  A    between atoms: C_4  and  N_5
REMARK    3  A    between atoms: N_5  and  C_6
REMARK    4  A    between atoms: C_6  and  C_7
REMARK    5  A    between atoms: C_7  and  C_8
REMARK                            x       y       z     vdW  Elec       q    Type
REMARK                         _______ _______ _______ _____ _____    ______ ____
ROOT
ATOM      1  N   UNL     1       5.683   3.827  18.528  0.00  0.00    +0.000 NA
ATOM      2  H   UNL     1       5.302   3.751  19.474  0.00  0.00    +0.000 HD
ENDROOT
BRANCH   1   3
ATOM      3  C   UNL     1       6.327   5.156  18.407  0.00  0.00    +0.000 C 
BRANCH   3   5
ATOM      4  N   UNL     1       7.383   6.273  16.506  0.00  0.00    +0.000 N 
ATOM      5  C   UNL     1       7.363   5.146  17.280  0.00  0.00    +0.000 C 
ATOM      6  O   UNL     1       8.154   4.229  17.094  0.00  0.00    +0.000 OA
ATOM      7  H   UNL     1       8.041   6.346  15.745  0.00  0.00    +0.000 HD
ATOM      8  H   UNL     1       6.711   7.008  16.690  0.00  0.00    +0.000 HD
ENDBRANCH   3   5
ENDBRANCH   1   3
BRANCH   1   9
ATOM      9  C   UNL     1       4.578   3.722  17.566  0.00  0.00    +0.000 C 
BRANCH   9  10
ATOM     10  C   UNL     1       3.703   2.498  17.868  0.00  0.00    +0.000 C 
BRANCH  10  11
ATOM     11  C   UNL     1       2.834   2.751  19.076  0.00  0.00    +0.000 A 
ATOM     12  C   UNL     1       1.600   3.400  18.936  0.00  0.00    +0.000 A 
ATOM     13  C   UNL     1       0.831   3.704  20.060  0.00  0.00    +0.000 A 
ATOM     14  C   UNL     1       1.287   3.363  21.331  0.00  0.00    +0.000 A 
ATOM     15  C   UNL     1       2.510   2.709  21.480  0.00  0.00    +0.000 A 
ATOM     16  C   UNL     1       3.281   2.403  20.358  0.00  0.00    +0.000 A 
ENDBRANCH  10  11
ENDBRANCH   9  10
ENDBRANCH   1   9
TORSDOF 5
ENDMDL
MODEL 4
REMARK VINA RESULT:      -5.8      2.071      2.706
REMARK  Name = 
REMARK  5 active torsions:
REMARK  status: ('A' for Active; 'I' for Inactive)
REMARK    1  A    between atoms: C_2  and  C_4
REMARK    2  A    between atoms: C_4  and  N_5
REMARK    3  A    between atoms: N_5  and  C_6
REMARK    4  A    between atoms: C_6  and  C_7
REMARK    5  A    between atoms: C_7  and  C_8
REMARK                            x       y       z     vdW  Elec       q    Type
REMARK                         _______ _______ _______ _____ _____    ______ ____
ROOT
ATOM      1  N   UNL     1       5.094   4.546  17.025  0.00  0.00    +0.000 NA
ATOM      2  H   UNL     1       5.878   4.042  17.446  0.00  0.00    +0.000 HD
ENDROOT
BRANCH   1   3
ATOM      3  C   UNL     1       5.564   5.117  15.740  0.00  0.00    +0.000 C 
BRANCH   3   5
ATOM      4  N   UNL     1       7.601   5.369  14.412  0.00  0.00    +0.000 N 
ATOM      5  C   UNL     1       7.078   4.939  15.600  0.00  0.00    +0.000 C 
ATOM      6  O   UNL     1       7.793   4.489  16.488  0.00  0.00    +0.000 OA
ATOM      7  H   UNL     1       8.593   5.291  14.244  0.00  0.00    +0.000 HD
ATOM      8  H   UNL     1       6.976   5.733  13.702  0.00  0.00    +0.000 HD
ENDBRANCH   3   5
ENDBRANCH   1   3
BRANCH   1   9
ATOM      9  C   UNL     1       4.689   5.629  17.930  0.00  0.00    +0.000 C 
BRANCH   9  10
ATOM     10  C   UNL     1       3.185   5.911  17.808  0.00  0.00    +0.000 C 
BRANCH  10  11
ATOM     11  C   UNL     1       2.388   4.900  18.594  0.00  0.00    +0.000 A 
ATOM     12  C   UNL     1       1.812   3.797  17.949  0.00  0.00    +0.000 A 
ATOM     13  C   UNL     1       1.009   2.904  18.659  0.00  0.00    +0.000 A 
ATOM     14  C   UNL     1       0.776   3.103  20.018  0.00  0.00    +0.000 A 
ATOM     15  C   UNL     1       1.352   4.192  20.671  0.00  0.00    +0.000 A 
ATOM     16  C   UNL     1       2.155   5.087  19.963  0.00  0.00    +0.000 A 
ENDBRANCH  10  11
ENDBRANCH   9  10
ENDBRANCH   1   9
TORSDOF 5
ENDMDL
MODEL 5
REMARK VINA RESULT:      -5.8      2.298      2.870
REMARK  Name = 
REMARK  5 active torsions:
REMARK  status: ('A' for Active; 'I' for Inactive)
REMARK    1  A    between atoms: C_2  and  C_4
REMARK    2  A    between atoms: C_4  and  N_5
REMARK    3  A    between atoms: N_5  and  C_6
REMARK    4  A    between atoms: C_6  and  C_7
REMARK    5  A    between atoms: C_7  and  C_8
REMARK                            x       y       z     vdW  Elec       q    Type
REMARK                         _______ _______ _______ _____ _____    ______ ____
ROOT
ATOM      1  N   UNL     1       5.887   3.950  16.915  0.00  0.00    +0.000 NA
ATOM      2  H   UNL     1       6.853   4.267  17.024  0.00  0.00    +0.000 HD
ENDROOT
BRANCH   1   3
ATOM      3  C   UNL     1       5.399   4.438  15.603  0.00  0.00    +0.000 C 
BRANCH   3   5
ATOM      4  N   UNL     1       6.397   3.528  13.565  0.00  0.00    +0.000 N 
ATOM      5  C   UNL     1       6.535   4.436  14.578  0.00  0.00    +0.000 C 
ATOM      6  O   UNL     1       7.485   5.211  14.615  0.00  0.00    +0.000 OA
ATOM      7  H   UNL     1       7.102   3.467  12.846  0.00  0.00    +0.000 HD
ATOM      8  H   UNL     1       5.599   2.903  13.570  0.00  0.00    +0.000 HD
ENDBRANCH   3   5
ENDBRANCH   1   3
BRANCH   1   9
ATOM      9  C   UNL     1       5.075   4.530  17.993  0.00  0.00    +0.000 C 
BRANCH   9  10
ATOM     10  C   UNL     1       3.645   4.810  17.511  0.00  0.00    +0.000 C 
BRANCH  10  11
ATOM     11  C   UNL     1       2.637   4.315  18.519  0.00  0.00    +0.000 A 
ATOM     12  C   UNL     1       2.585   4.878  19.802  0.00  0.00    +0.000 A 
ATOM     13  C   UNL     1       1.708   4.369  20.760  0.00  0.00    +0.000 A 
ATOM     14  C   UNL     1       0.876   3.296  20.447  0.00  0.00    +0.000 A 
ATOM     15  C   UNL     1       0.913   2.736  19.170  0.00  0.00    +0.000 A 
ATOM     16  C   UNL     1       1.790   3.242  18.210  0.00  0.00    +0.000 A 
ENDBRANCH  10  11
ENDBRANCH   9  10
ENDBRANCH   1   9
TORSDOF 5
ENDMDL
MODEL 6
REMARK VINA RESULT:      -5.8      1.501      1.874
REMARK  Name = 
REMARK  5 active torsions:
REMARK  status: ('A' for Active; 'I' for Inactive)
REMARK    1  A    between atoms: C_2  and  C_4
REMARK    2  A    between atoms: C_4  and  N_5
REMARK    3  A    between atoms: N_5  and  C_6
REMARK    4  A    between atoms: C_6  and  C_7
REMARK    5  A    between atoms: C_7  and  C_8
REMARK                            x       y       z     vdW  Elec       q    Type
REMARK                         _______ _______ _______ _____ _____    ______ ____
ROOT
ATOM      1  N   UNL     1       6.683   5.218  19.561  0.00  0.00    +0.000 NA
ATOM      2  H   UNL     1       6.526   5.821  20.372  0.00  0.00    +0.000 HD
ENDROOT
BRANCH   1   3
ATOM      3  C   UNL     1       7.061   6.086  18.421  0.00  0.00    +0.000 C 
BRANCH   3   5
ATOM      4  N   UNL     1       7.091   5.717  16.004  0.00  0.00    +0.000 N 
ATOM      5  C   UNL     1       7.486   5.235  17.222  0.00  0.00    +0.000 C 
ATOM      6  O   UNL     1       8.167   4.221  17.317  0.00  0.00    +0.000 OA
ATOM      7  H   UNL     1       7.336   5.215  15.164  0.00  0.00    +0.000 HD
ATOM      8  H   UNL     1       6.526   6.557  15.967  0.00  0.00    +0.000 HD
ENDBRANCH   3   5
ENDBRANCH   1   3
BRANCH   1   9
ATOM      9  C   UNL     1       5.435   4.507  19.252  0.00  0.00    +0.000 C 
BRANCH   9  10
ATOM     10  C   UNL     1       4.229   5.451  19.349  0.00  0.00    +0.000 C 
BRANCH  10  11
ATOM     11  C   UNL     1       2.943   4.666  19.433  0.00  0.00    +0.000 A 
ATOM     12  C   UNL     1       2.358   4.399  20.678  0.00  0.00    +0.000 A 
ATOM     13  C   UNL     1       1.213   3.607  20.763  0.00  0.00    +0.000 A 
ATOM     14  C   UNL     1       0.643   3.075  19.608  0.00  0.00    +0.000 A 
ATOM     15  C   UNL     1       1.213   3.342  18.364  0.00  0.00    +0.000 A 
ATOM     16  C   UNL     1       2.358   4.135  18.275  0.00  0.00    +0.000 A 
ENDBRANCH  10  11
ENDBRANCH   9  10
ENDBRANCH   1   9
TORSDOF 5
ENDMDL
MODEL 7
REMARK VINA RESULT:      -5.8      2.330      3.199
REMARK  Name = 
REMARK  5 active torsions:
REMARK  status: ('A' for Active; 'I' for Inactive)
REMARK    1  A    between atoms: C_2  and  C_4
REMARK    2  A    between atoms: C_4  and  N_5
REMARK    3  A    between atoms: N_5  and  C_6
REMARK    4  A    between atoms: C_6  and  C_7
REMARK    5  A    between atoms: C_7  and  C_8
REMARK                            x       y       z     vdW  Elec       q    Type
REMARK                         _______ _______ _______ _____ _____    ______ ____
ROOT
ATOM      1  N   UNL     1       5.495   3.570  16.626  0.00  0.00    +0.000 NA
ATOM      2  H   UNL     1       6.479   3.292  16.642  0.00  0.00    +0.000 HD
ENDROOT
BRANCH   1   3
ATOM      3  C   UNL     1       5.299   4.466  15.462  0.00  0.00    +0.000 C 
BRANCH   3   5
ATOM      4  N   UNL     1       6.443   3.515  13.523  0.00  0.00    +0.000 N 
ATOM      5  C   UNL     1       6.521   4.422  14.543  0.00  0.00    +0.000 C 
ATOM      6  O   UNL     1       7.490   5.163  14.665  0.00  0.00    +0.000 OA
ATOM      7  H   UNL     1       7.207   3.427  12.871  0.00  0.00    +0.000 HD
ATOM      8  H   UNL     1       5.627   2.917  13.458  0.00  0.00    +0.000 HD
ENDBRANCH   3   5
ENDBRANCH   1   3
BRANCH   1   9
ATOM      9  C   UNL     1       5.190   4.293  17.867  0.00  0.00    +0.000 C 
BRANCH   9  10
ATOM     10  C   UNL     1       3.857   5.045  17.750  0.00  0.00    +0.000 C 
BRANCH  10  11
ATOM     11  C   UNL     1       2.778   4.342  18.535  0.00  0.00    +0.000 A 
ATOM     12  C   UNL     1       2.120   3.230  17.994  0.00  0.00    +0.000 A 
ATOM     13  C   UNL     1       1.068   2.627  18.686  0.00  0.00    +0.000 A 
ATOM     14  C   UNL     1       0.666   3.128  19.922  0.00  0.00    +0.000 A 
ATOM     15  C   UNL     1       1.321   4.229  20.473  0.00  0.00    +0.000 A 
ATOM     16  C   UNL     1       2.373   4.834  19.784  0.00  0.00    +0.000 A 
ENDBRANCH  10  11
ENDBRANCH   9  10
ENDBRANCH   1   9
TORSDOF 5
ENDMDL
MODEL 8
REMARK VINA RESULT:      -5.7      1.026      1.755
REMARK  Name = 
REMARK  5 active torsions:
REMARK  status: ('A' for Active; 'I' for Inactive)
REMARK    1  A    between atoms: C_2  and  C_4
REMARK    2  A    between atoms: C_4  and  N_5
REMARK    3  A    between atoms: N_5  and  C_6
REMARK    4  A    between atoms: C_6  and  C_7
REMARK    5  A    between atoms: C_7  and  C_8
REMARK                            x       y       z     vdW  Elec       q    Type
REMARK                         _______ _______ _______ _____ _____    ______ ____
ROOT
ATOM      1  N   UNL     1       5.151   4.539  18.189  0.00  0.00    +0.000 NA
ATOM      2  H   UNL     1       4.519   4.088  18.854  0.00  0.00    +0.000 HD
ENDROOT
BRANCH   1   3
ATOM      3  C   UNL     1       6.020   5.467  18.951  0.00  0.00    +0.000 C 
BRANCH   3   5
ATOM      4  N   UNL     1       8.335   5.428  19.736  0.00  0.00    +0.000 N 
ATOM      5  C   UNL     1       7.495   5.150  18.694  0.00  0.00    +0.000 C 
ATOM      6  O   UNL     1       7.909   4.643  17.657  0.00  0.00    +0.000 OA
ATOM      7  H   UNL     1       9.322   5.243  19.646  0.00  0.00    +0.000 HD
ATOM      8  H   UNL     1       7.955   5.850  20.575  0.00  0.00    +0.000 HD
ENDBRANCH   3   5
ENDBRANCH   1   3
BRANCH   1   9
ATOM      9  C   UNL     1       4.352   5.295  17.215  0.00  0.00    +0.000 C 
BRANCH   9  10
ATOM     10  C   UNL     1       3.118   5.915  17.884  0.00  0.00    +0.000 C 
BRANCH  10  11
ATOM     11  C   UNL     1       2.335   4.866  18.635  0.00  0.00    +0.000 A 
ATOM     12  C   UNL     1       1.785   3.772  17.954  0.00  0.00    +0.000 A 
ATOM     13  C   UNL     1       0.995   2.843  18.632  0.00  0.00    +0.000 A 
ATOM     14  C   UNL     1       0.749   2.999  19.995  0.00  0.00    +0.000 A 
ATOM     15  C   UNL     1       1.299   4.079  20.684  0.00  0.00    +0.000 A 
ATOM     16  C   UNL     1       2.090   5.010  20.008  0.00  0.00    +0.000 A 
ENDBRANCH  10  11
ENDBRANCH   9  10
ENDBRANCH   1   9
TORSDOF 5
ENDMDL
MODEL 9
REMARK VINA RESULT:      -5.7      1.684      2.293
REMARK  Name = 
REMARK  5 active torsions:
REMARK  status: ('A' for Active; 'I' for Inactive)
REMARK    1  A    between atoms: C_2  and  C_4
REMARK    2  A    between atoms: C_4  and  N_5
REMARK    3  A    between atoms: N_5  and  C_6
REMARK    4  A    between atoms: C_6  and  C_7
REMARK    5  A    between atoms: C_7  and  C_8
REMARK                            x       y       z     vdW  Elec       q    Type
REMARK                         _______ _______ _______ _____ _____    ______ ____
ROOT
ATOM      1  N   UNL     1       5.122   6.573  17.801  0.00  0.00    +0.000 NA
ATOM      2  H   UNL     1       5.613   7.262  17.227  0.00  0.00    +0.000 HD
ENDROOT
BRANCH   1   3
ATOM      3  C   UNL     1       5.672   5.237  17.471  0.00  0.00    +0.000 C 
BRANCH   3   5
ATOM      4  N   UNL     1       7.903   4.296  17.138  0.00  0.00    +0.000 N 
ATOM      5  C   UNL     1       7.088   5.369  16.907  0.00  0.00    +0.000 C 
ATOM      6  O   UNL     1       7.473   6.334  16.256  0.00  0.00    +0.000 OA
ATOM      7  H   UNL     1       8.851   4.303  16.794  0.00  0.00    +0.000 HD
ATOM      8  H   UNL     1       7.550   3.518  17.683  0.00  0.00    +0.000 HD
ENDBRANCH   3   5
ENDBRANCH   1   3
BRANCH   1   9
ATOM      9  C   UNL     1       3.692   6.617  17.470  0.00  0.00    +0.000 C 
BRANCH   9  10
ATOM     10  C   UNL     1       2.837   6.719  18.740  0.00  0.00    +0.000 C 
BRANCH  10  11
ATOM     11  C   UNL     1       2.210   5.387  19.069  0.00  0.00    +0.000 A 
ATOM     12  C   UNL     1       1.913   4.474  18.049  0.00  0.00    +0.000 A 
ATOM     13  C   UNL     1       1.262   3.275  18.342  0.00  0.00    +0.000 A 
ATOM     14  C   UNL     1       0.903   2.979  19.656  0.00  0.00    +0.000 A 
ATOM     15  C   UNL     1       1.202   3.877  20.679  0.00  0.00    +0.000 A 
ATOM     16  C   UNL     1       1.854   5.076  20.389  0.00  0.00    +0.000 A 
ENDBRANCH  10  11
ENDBRANCH   9  10
ENDBRANCH   1   9
TORSDOF 5
ENDMDL
