MODEL 1
REMARK VINA RESULT:      -8.4      0.000      0.000
REMARK  Name = 
REMARK  8 active torsions:
REMARK  status: ('A' for Active; 'I' for Inactive)
REMARK    1  A    between atoms: C_1  and  C_2
REMARK    2  A    between atoms: C_2  and  C_3
REMARK    3  A    between atoms: C_3  and  C_4
REMARK    4  A    between atoms: C_3  and  C_6
REMARK    5  A    between atoms: C_4  and  C_5
REMARK    6  A    between atoms: N_8  and  C_9
REMARK    7  A    between atoms: C_13  and  C_14
REMARK    8  A    between atoms: N_16  and  C_17
REMARK                            x       y       z     vdW  Elec       q    Type
REMARK                         _______ _______ _______ _____ _____    ______ ____
ROOT
ATOM      1  C   UNL     1       5.969   4.247  15.666  0.00  0.00    +0.000 A 
ATOM      2  C   UNL     1       7.172   4.324  16.383  0.00  0.00    +0.000 A 
ATOM      3  C   UNL     1       7.200   4.823  17.686  0.00  0.00    +0.000 A 
ATOM      4  C   UNL     1       6.028   5.278  18.279  0.00  0.00    +0.000 A 
ATOM      5  C   UNL     1       4.830   5.228  17.555  0.00  0.00    +0.000 A 
ATOM      6  C   UNL     1       4.800   4.718  16.253  0.00  0.00    +0.000 A 
ENDROOT
BRANCH   1   9
ATOM      7  C   UNL     1       6.525   4.235  13.261  0.00  0.00    +0.000 C 
ATOM      8  O   UNL     1       7.330   5.164  13.312  0.00  0.00    +0.000 OA
ATOM      9  N   UNL     1       5.878   3.718  14.361  0.00  0.00    +0.000 N 
ATOM     10  H   UNL     1       5.448   2.811  14.244  0.00  0.00    +0.000 HD
BRANCH   7  11
ATOM     11  C   UNL     1       6.184   3.589  11.916  0.00  0.00    +0.000 C 
BRANCH  11  13
ATOM     12  C   UNL     1       6.825   1.251  10.980  0.00  0.00    +0.000 C 
ATOM     13  C   UNL     1       7.296   2.562  11.585  0.00  0.00    +0.000 C 
ENDBRANCH  11  13
BRANCH  11  14
ATOM     14  C   UNL     1       4.761   3.007  11.865  0.00  0.00    +0.000 C 
ATOM     15  C   UNL     1       3.889   3.553  10.742  0.00  0.00    +0.000 C 
ENDBRANCH  11  14
ENDBRANCH   7  11
ENDBRANCH   1   9
BRANCH   5  16
ATOM     16  C   UNL     1       3.546   5.663  18.152  0.00  0.00    +0.000 C 
ATOM     17  O   UNL     1       2.803   4.807  18.602  0.00  0.00    +0.000 OA
ATOM     18  N   UNL     1       3.328   7.023  18.124  0.00  0.00    +0.000 N 
ATOM     19  H   UNL     1       3.963   7.576  17.567  0.00  0.00    +0.000 HD
BRANCH  18  20
ATOM     20  C   UNL     1       2.346   7.731  18.839  0.00  0.00    +0.000 A 
ATOM     21  C   UNL     1       2.038   7.480  20.192  0.00  0.00    +0.000 A 
ATOM     22  C   UNL     1       1.221   8.350  20.921  0.00  0.00    +0.000 A 
ATOM     23  C   UNL     1       0.762   9.471  20.269  0.00  0.00    +0.000 A 
ATOM     24  C   UNL     1       1.004   9.683  18.931  0.00  0.00    +0.000 A 
ATOM     25  C   UNL     1       1.760   8.816  18.176  0.00  0.00    +0.000 A 
ATOM     26  O   UNL     1       0.520  10.884  18.506  0.00  0.00    +0.000 OA
ATOM     27  C   UNL     1       0.288  11.500  19.790  0.00  0.00    +0.000 C 
ATOM     28  O   UNL     1       0.120  10.526  20.842  0.00  0.00    +0.000 OA
ENDBRANCH  18  20
ENDBRANCH   5  16
TORSDOF 6
ENDMDL
MODEL 2
REMARK VINA RESULT:      -7.9      2.343      4.083
REMARK  Name = 
REMARK  8 active torsions:
REMARK  status: ('A' for Active; 'I' for Inactive)
REMARK    1  A    between atoms: C_1  and  C_2
REMARK    2  A    between atoms: C_2  and  C_3
REMARK    3  A    between atoms: C_3  and  C_4
REMARK    4  A    between atoms: C_3  and  C_6
REMARK    5  A    between atoms: C_4  and  C_5
REMARK    6  A    between atoms: N_8  and  C_9
REMARK    7  A    between atoms: C_13  and  C_14
REMARK    8  A    between atoms: N_16  and  C_17
REMARK                            x       y       z     vdW  Elec       q    Type
REMARK                         _______ _______ _______ _____ _____    ______ ____
ROOT
ATOM      1  C   UNL     1       4.228   3.802  19.292  0.00  0.00    +0.000 A 
ATOM      2  C   UNL     1       4.094   2.675  20.117  0.00  0.00    +0.000 A 
ATOM      3  C   UNL     1       3.087   2.607  21.080  0.00  0.00    +0.000 A 
ATOM      4  C   UNL     1       2.217   3.679  21.249  0.00  0.00    +0.000 A 
ATOM      5  C   UNL     1       2.367   4.816  20.446  0.00  0.00    +0.000 A 
ATOM      6  C   UNL     1       3.370   4.880  19.474  0.00  0.00    +0.000 A 
ENDROOT
BRANCH   1   9
ATOM      7  C   UNL     1       4.935   3.937  16.930  0.00  0.00    +0.000 C 
ATOM      8  O   UNL     1       3.798   3.969  16.459  0.00  0.00    +0.000 OA
ATOM      9  N   UNL     1       5.206   3.907  18.279  0.00  0.00    +0.000 N 
ATOM     10  H   UNL     1       6.151   4.139  18.553  0.00  0.00    +0.000 HD
BRANCH   7  11
ATOM     11  C   UNL     1       6.150   3.921  16.000  0.00  0.00    +0.000 C 
BRANCH  11  13
ATOM     12  C   UNL     1       6.163   3.754  13.407  0.00  0.00    +0.000 C 
ATOM     13  C   UNL     1       5.718   4.522  14.639  0.00  0.00    +0.000 C 
ENDBRANCH  11  13
BRANCH  11  14
ATOM     14  C   UNL     1       7.392   4.592  16.612  0.00  0.00    +0.000 C 
ATOM     15  C   UNL     1       7.292   6.105  16.758  0.00  0.00    +0.000 C 
ENDBRANCH  11  14
ENDBRANCH   7  11
ENDBRANCH   1   9
BRANCH   5  16
ATOM     16  C   UNL     1       1.444   5.970  20.557  0.00  0.00    +0.000 C 
ATOM     17  O   UNL     1       0.271   5.745  20.803  0.00  0.00    +0.000 OA
ATOM     18  N   UNL     1       2.032   7.200  20.358  0.00  0.00    +0.000 N 
ATOM     19  H   UNL     1       2.976   7.202  19.999  0.00  0.00    +0.000 HD
BRANCH  18  20
ATOM     20  C   UNL     1       1.475   8.455  20.659  0.00  0.00    +0.000 A 
ATOM     21  C   UNL     1       1.064   9.377  19.675  0.00  0.00    +0.000 A 
ATOM     22  C   UNL     1       0.315  10.510  20.014  0.00  0.00    +0.000 A 
ATOM     23  C   UNL     1      -0.026  10.661  21.337  0.00  0.00    +0.000 A 
ATOM     24  C   UNL     1       0.430   9.800  22.308  0.00  0.00    +0.000 A 
ATOM     25  C   UNL     1       1.213   8.708  22.011  0.00  0.00    +0.000 A 
ATOM     26  O   UNL     1      -0.083  10.092  23.536  0.00  0.00    +0.000 OA
ATOM     27  C   UNL     1      -1.148  10.977  23.130  0.00  0.00    +0.000 C 
ATOM     28  O   UNL     1      -0.899  11.577  21.841  0.00  0.00    +0.000 OA
ENDBRANCH  18  20
ENDBRANCH   5  16
TORSDOF 6
ENDMDL
MODEL 3
REMARK VINA RESULT:      -7.7      1.803      2.905
REMARK  Name = 
REMARK  8 active torsions:
REMARK  status: ('A' for Active; 'I' for Inactive)
REMARK    1  A    between atoms: C_1  and  C_2
REMARK    2  A    between atoms: C_2  and  C_3
REMARK    3  A    between atoms: C_3  and  C_4
REMARK    4  A    between atoms: C_3  and  C_6
REMARK    5  A    between atoms: C_4  and  C_5
REMARK    6  A    between atoms: N_8  and  C_9
REMARK    7  A    between atoms: C_13  and  C_14
REMARK    8  A    between atoms: N_16  and  C_17
REMARK                            x       y       z     vdW  Elec       q    Type
REMARK                         _______ _______ _______ _____ _____    ______ ____
ROOT
ATOM      1  C   UNL     1       4.351   4.270  16.782  0.00  0.00    +0.000 A 
ATOM      2  C   UNL     1       4.093   3.216  17.670  0.00  0.00    +0.000 A 
ATOM      3  C   UNL     1       3.442   3.443  18.883  0.00  0.00    +0.000 A 
ATOM      4  C   UNL     1       3.067   4.734  19.237  0.00  0.00    +0.000 A 
ATOM      5  C   UNL     1       3.348   5.792  18.364  0.00  0.00    +0.000 A 
ATOM      6  C   UNL     1       3.991   5.564  17.144  0.00  0.00    +0.000 A 
ENDROOT
BRANCH   1   9
ATOM      7  C   UNL     1       6.332   4.141  15.314  0.00  0.00    +0.000 C 
ATOM      8  O   UNL     1       7.164   4.255  16.213  0.00  0.00    +0.000 OA
ATOM      9  N   UNL     1       4.973   4.091  15.528  0.00  0.00    +0.000 N 
ATOM     10  H   UNL     1       4.411   3.743  14.763  0.00  0.00    +0.000 HD
BRANCH   7  11
ATOM     11  C   UNL     1       6.787   4.052  13.855  0.00  0.00    +0.000 C 
BRANCH  11  13
ATOM     12  C   UNL     1       5.570   2.772  11.949  0.00  0.00    +0.000 C 
ATOM     13  C   UNL     1       5.525   3.895  12.971  0.00  0.00    +0.000 C 
ENDBRANCH  11  13
BRANCH  11  14
ATOM     14  C   UNL     1       7.705   5.212  13.434  0.00  0.00    +0.000 C 
ATOM     15  C   UNL     1       7.750   5.476  11.934  0.00  0.00    +0.000 C 
ENDBRANCH  11  14
ENDBRANCH   7  11
ENDBRANCH   1   9
BRANCH   5  16
ATOM     16  C   UNL     1       2.935   7.181  18.673  0.00  0.00    +0.000 C 
ATOM     17  O   UNL     1       3.199   8.052  17.861  0.00  0.00    +0.000 OA
ATOM     18  N   UNL     1       2.286   7.336  19.878  0.00  0.00    +0.000 N 
ATOM     19  H   UNL     1       2.295   6.546  20.507  0.00  0.00    +0.000 HD
BRANCH  18  20
ATOM     20  C   UNL     1       1.561   8.463  20.303  0.00  0.00    +0.000 A 
ATOM     21  C   UNL     1       0.817   9.282  19.428  0.00  0.00    +0.000 A 
ATOM     22  C   UNL     1      -0.064  10.251  19.920  0.00  0.00    +0.000 A 
ATOM     23  C   UNL     1      -0.194  10.343  21.286  0.00  0.00    +0.000 A 
ATOM     24  C   UNL     1       0.579   9.593  22.141  0.00  0.00    +0.000 A 
ATOM     25  C   UNL     1       1.493   8.670  21.686  0.00  0.00    +0.000 A 
ATOM     26  O   UNL     1       0.240   9.789  23.446  0.00  0.00    +0.000 OA
ATOM     27  C   UNL     1      -1.028  10.450  23.252  0.00  0.00    +0.000 C 
ATOM     28  O   UNL     1      -1.125  11.077  21.956  0.00  0.00    +0.000 OA
ENDBRANCH  18  20
ENDBRANCH   5  16
TORSDOF 6
ENDMDL
MODEL 4
REMARK VINA RESULT:      -7.6      2.569      4.456
REMARK  Name = 
REMARK  8 active torsions:
REMARK  status: ('A' for Active; 'I' for Inactive)
REMARK    1  A    between atoms: C_1  and  C_2
REMARK    2  A    between atoms: C_2  and  C_3
REMARK    3  A    between atoms: C_3  and  C_4
REMARK    4  A    between atoms: C_3  and  C_6
REMARK    5  A    between atoms: C_4  and  C_5
REMARK    6  A    between atoms: N_8  and  C_9
REMARK    7  A    between atoms: C_13  and  C_14
REMARK    8  A    between atoms: N_16  and  C_17
REMARK                            x       y       z     vdW  Elec       q    Type
REMARK                         _______ _______ _______ _____ _____    ______ ____
ROOT
ATOM      1  C   UNL     1       3.475   4.749  18.868  0.00  0.00    +0.000 A 
ATOM      2  C   UNL     1       2.929   3.701  19.623  0.00  0.00    +0.000 A 
ATOM      3  C   UNL     1       1.944   3.944  20.581  0.00  0.00    +0.000 A 
ATOM      4  C   UNL     1       1.513   5.244  20.816  0.00  0.00    +0.000 A 
ATOM      5  C   UNL     1       2.076   6.296  20.083  0.00  0.00    +0.000 A 
ATOM      6  C   UNL     1       3.056   6.052  19.116  0.00  0.00    +0.000 A 
ENDROOT
BRANCH   1   9
ATOM      7  C   UNL     1       5.804   4.493  18.088  0.00  0.00    +0.000 C 
ATOM      8  O   UNL     1       6.315   4.508  19.207  0.00  0.00    +0.000 OA
ATOM      9  N   UNL     1       4.447   4.555  17.863  0.00  0.00    +0.000 N 
ATOM     10  H   UNL     1       4.131   4.280  16.943  0.00  0.00    +0.000 HD
BRANCH   7  11
ATOM     11  C   UNL     1       6.688   4.409  16.842  0.00  0.00    +0.000 C 
BRANCH  11  13
ATOM     12  C   UNL     1       6.369   4.033  14.291  0.00  0.00    +0.000 C 
ATOM     13  C   UNL     1       5.842   3.801  15.696  0.00  0.00    +0.000 C 
ENDBRANCH  11  13
BRANCH  11  14
ATOM     14  C   UNL     1       7.359   5.746  16.482  0.00  0.00    +0.000 C 
ATOM     15  C   UNL     1       6.787   6.959  17.202  0.00  0.00    +0.000 C 
ENDBRANCH  11  14
ENDBRANCH   7  11
ENDBRANCH   1   9
BRANCH   5  16
ATOM     16  C   UNL     1       1.626   7.696  20.264  0.00  0.00    +0.000 C 
ATOM     17  O   UNL     1       2.022   8.534  19.472  0.00  0.00    +0.000 OA
ATOM     18  N   UNL     1       0.791   7.898  21.342  0.00  0.00    +0.000 N 
ATOM     19  H   UNL     1       0.694   7.134  21.995  0.00  0.00    +0.000 HD
BRANCH  18  20
ATOM     20  C   UNL     1       0.012   9.040  21.598  0.00  0.00    +0.000 A 
ATOM     21  C   UNL     1      -0.308   9.486  22.897  0.00  0.00    +0.000 A 
ATOM     22  C   UNL     1      -0.890  10.741  23.107  0.00  0.00    +0.000 A 
ATOM     23  C   UNL     1      -1.103  11.526  21.998  0.00  0.00    +0.000 A 
ATOM     24  C   UNL     1      -0.854  11.067  20.725  0.00  0.00    +0.000 A 
ATOM     25  C   UNL     1      -0.332   9.817  20.485  0.00  0.00    +0.000 A 
ATOM     26  O   UNL     1      -1.068  12.028  19.782  0.00  0.00    +0.000 OA
ATOM     27  C   UNL     1      -1.122  13.182  20.646  0.00  0.00    +0.000 C 
ATOM     28  O   UNL     1      -1.476  12.835  22.001  0.00  0.00    +0.000 OA
ENDBRANCH  18  20
ENDBRANCH   5  16
TORSDOF 6
ENDMDL
MODEL 5
REMARK VINA RESULT:      -7.6      4.506      7.153
REMARK  Name = 
REMARK  8 active torsions:
REMARK  status: ('A' for Active; 'I' for Inactive)
REMARK    1  A    between atoms: C_1  and  C_2
REMARK    2  A    between atoms: C_2  and  C_3
REMARK    3  A    between atoms: C_3  and  C_4
REMARK    4  A    between atoms: C_3  and  C_6
REMARK    5  A    between atoms: C_4  and  C_5
REMARK    6  A    between atoms: N_8  and  C_9
REMARK    7  A    between atoms: C_13  and  C_14
REMARK    8  A    between atoms: N_16  and  C_17
REMARK                            x       y       z     vdW  Elec       q    Type
REMARK                         _______ _______ _______ _____ _____    ______ ____
ROOT
ATOM      1  C   UNL     1       2.305   7.278  19.520  0.00  0.00    +0.000 A 
ATOM      2  C   UNL     1       2.287   7.877  18.252  0.00  0.00    +0.000 A 
ATOM      3  C   UNL     1       1.737   9.146  18.066  0.00  0.00    +0.000 A 
ATOM      4  C   UNL     1       1.172   9.820  19.142  0.00  0.00    +0.000 A 
ATOM      5  C   UNL     1       1.164   9.213  20.403  0.00  0.00    +0.000 A 
ATOM      6  C   UNL     1       1.724   7.945  20.592  0.00  0.00    +0.000 A 
ENDROOT
BRANCH   1   9
ATOM      7  C   UNL     1       2.490   4.842  19.160  0.00  0.00    +0.000 C 
ATOM      8  O   UNL     1       1.656   4.783  18.257  0.00  0.00    +0.000 OA
ATOM      9  N   UNL     1       2.880   6.013  19.770  0.00  0.00    +0.000 N 
ATOM     10  H   UNL     1       3.737   5.978  20.304  0.00  0.00    +0.000 HD
BRANCH   7  11
ATOM     11  C   UNL     1       3.155   3.563  19.674  0.00  0.00    +0.000 C 
BRANCH  11  13
ATOM     12  C   UNL     1       1.568   3.031  21.661  0.00  0.00    +0.000 C 
ATOM     13  C   UNL     1       2.050   2.656  20.270  0.00  0.00    +0.000 C 
ENDBRANCH  11  13
BRANCH  11  14
ATOM     14  C   UNL     1       4.031   2.868  18.617  0.00  0.00    +0.000 C 
ATOM     15  C   UNL     1       3.608   1.445  18.275  0.00  0.00    +0.000 C 
ENDBRANCH  11  14
ENDBRANCH   7  11
ENDBRANCH   1   9
BRANCH   5  16
ATOM     16  C   UNL     1       0.611   9.902  21.592  0.00  0.00    +0.000 C 
ATOM     17  O   UNL     1       1.097   9.649  22.681  0.00  0.00    +0.000 OA
ATOM     18  N   UNL     1      -0.424  10.771  21.325  0.00  0.00    +0.000 N 
ATOM     19  H   UNL     1      -0.818  10.741  20.396  0.00  0.00    +0.000 HD
BRANCH  18  20
ATOM     20  C   UNL     1      -0.953  11.741  22.196  0.00  0.00    +0.000 A 
ATOM     21  C   UNL     1      -0.508  13.078  22.230  0.00  0.00    +0.000 A 
ATOM     22  C   UNL     1      -1.209  14.055  22.946  0.00  0.00    +0.000 A 
ATOM     23  C   UNL     1      -2.361  13.657  23.583  0.00  0.00    +0.000 A 
ATOM     24  C   UNL     1      -2.761  12.341  23.607  0.00  0.00    +0.000 A 
ATOM     25  C   UNL     1      -2.061  11.350  22.957  0.00  0.00    +0.000 A 
ATOM     26  O   UNL     1      -3.961  12.180  24.231  0.00  0.00    +0.000 OA
ATOM     27  C   UNL     1      -4.389  13.558  24.255  0.00  0.00    +0.000 C 
ATOM     28  O   UNL     1      -3.280  14.476  24.166  0.00  0.00    +0.000 OA
ENDBRANCH  18  20
ENDBRANCH   5  16
TORSDOF 6
ENDMDL
MODEL 6
REMARK VINA RESULT:      -7.5      4.654      7.793
REMARK  Name = 
REMARK  8 active torsions:
REMARK  status: ('A' for Active; 'I' for Inactive)
REMARK    1  A    between atoms: C_1  and  C_2
REMARK    2  A    between atoms: C_2  and  C_3
REMARK    3  A    between atoms: C_3  and  C_4
REMARK    4  A    between atoms: C_3  and  C_6
REMARK    5  A    between atoms: C_4  and  C_5
REMARK    6  A    between atoms: N_8  and  C_9
REMARK    7  A    between atoms: C_13  and  C_14
REMARK    8  A    between atoms: N_16  and  C_17
REMARK                            x       y       z     vdW  Elec       q    Type
REMARK                         _______ _______ _______ _____ _____    ______ ____
ROOT
ATOM      1  C   UNL     1       1.783   7.938  20.072  0.00  0.00    +0.000 A 
ATOM      2  C   UNL     1       1.880   8.540  18.809  0.00  0.00    +0.000 A 
ATOM      3  C   UNL     1       1.330   9.800  18.571  0.00  0.00    +0.000 A 
ATOM      4  C   UNL     1       0.651  10.463  19.587  0.00  0.00    +0.000 A 
ATOM      5  C   UNL     1       0.529   9.851  20.841  0.00  0.00    +0.000 A 
ATOM      6  C   UNL     1       1.089   8.593  21.083  0.00  0.00    +0.000 A 
ENDROOT
BRANCH   1   9
ATOM      7  C   UNL     1       2.399   5.614  19.509  0.00  0.00    +0.000 C 
ATOM      8  O   UNL     1       2.033   5.666  18.335  0.00  0.00    +0.000 OA
ATOM      9  N   UNL     1       2.352   6.683  20.376  0.00  0.00    +0.000 N 
ATOM     10  H   UNL     1       2.904   6.602  21.218  0.00  0.00    +0.000 HD
BRANCH   7  11
ATOM     11  C   UNL     1       2.941   4.304  20.085  0.00  0.00    +0.000 C 
BRANCH  11  13
ATOM     12  C   UNL     1       1.570   2.732  21.635  0.00  0.00    +0.000 C 
ATOM     13  C   UNL     1       1.751   3.326  20.249  0.00  0.00    +0.000 C 
ENDBRANCH  11  13
BRANCH  11  14
ATOM     14  C   UNL     1       4.117   3.727  19.279  0.00  0.00    +0.000 C 
ATOM     15  C   UNL     1       5.331   4.640  19.181  0.00  0.00    +0.000 C 
ENDBRANCH  11  14
ENDBRANCH   7  11
ENDBRANCH   1   9
BRANCH   5  16
ATOM     16  C   UNL     1      -0.150  10.529  21.970  0.00  0.00    +0.000 C 
ATOM     17  O   UNL     1       0.185  10.231  23.104  0.00  0.00    +0.000 OA
ATOM     18  N   UNL     1      -1.115  11.440  21.601  0.00  0.00    +0.000 N 
ATOM     19  H   UNL     1      -1.388  11.448  20.628  0.00  0.00    +0.000 HD
BRANCH  18  20
ATOM     20  C   UNL     1      -1.720  12.404  22.426  0.00  0.00    +0.000 A 
ATOM     21  C   UNL     1      -3.006  12.252  22.983  0.00  0.00    +0.000 A 
ATOM     22  C   UNL     1      -3.474  13.125  23.971  0.00  0.00    +0.000 A 
ATOM     23  C   UNL     1      -2.613  14.110  24.394  0.00  0.00    +0.000 A 
ATOM     24  C   UNL     1      -1.384  14.302  23.806  0.00  0.00    +0.000 A 
ATOM     25  C   UNL     1      -0.920  13.492  22.795  0.00  0.00    +0.000 A 
ATOM     26  O   UNL     1      -0.668  15.284  24.423  0.00  0.00    +0.000 OA
ATOM     27  C   UNL     1      -1.444  15.401  25.634  0.00  0.00    +0.000 C 
ATOM     28  O   UNL     1      -2.797  14.932  25.464  0.00  0.00    +0.000 OA
ENDBRANCH  18  20
ENDBRANCH   5  16
TORSDOF 6
ENDMDL
MODEL 7
REMARK VINA RESULT:      -7.3      2.494      4.779
REMARK  Name = 
REMARK  8 active torsions:
REMARK  status: ('A' for Active; 'I' for Inactive)
REMARK    1  A    between atoms: C_1  and  C_2
REMARK    2  A    between atoms: C_2  and  C_3
REMARK    3  A    between atoms: C_3  and  C_4
REMARK    4  A    between atoms: C_3  and  C_6
REMARK    5  A    between atoms: C_4  and  C_5
REMARK    6  A    between atoms: N_8  and  C_9
REMARK    7  A    between atoms: C_13  and  C_14
REMARK    8  A    between atoms: N_16  and  C_17
REMARK                            x       y       z     vdW  Elec       q    Type
REMARK                         _______ _______ _______ _____ _____    ______ ____
ROOT
ATOM      1  C   UNL     1       3.265   5.183  18.786  0.00  0.00    +0.000 A 
ATOM      2  C   UNL     1       2.754   4.316  19.762  0.00  0.00    +0.000 A 
ATOM      3  C   UNL     1       1.855   4.771  20.727  0.00  0.00    +0.000 A 
ATOM      4  C   UNL     1       1.476   6.108  20.744  0.00  0.00    +0.000 A 
ATOM      5  C   UNL     1       2.005   6.982  19.786  0.00  0.00    +0.000 A 
ATOM      6  C   UNL     1       2.899   6.524  18.813  0.00  0.00    +0.000 A 
ENDROOT
BRANCH   1   9
ATOM      7  C   UNL     1       5.448   4.363  17.975  0.00  0.00    +0.000 C 
ATOM      8  O   UNL     1       5.955   4.230  19.089  0.00  0.00    +0.000 OA
ATOM      9  N   UNL     1       4.148   4.767  17.767  0.00  0.00    +0.000 N 
ATOM     10  H   UNL     1       3.767   4.596  16.847  0.00  0.00    +0.000 HD
BRANCH   7  11
ATOM     11  C   UNL     1       6.273   4.079  16.718  0.00  0.00    +0.000 C 
BRANCH  11  13
ATOM     12  C   UNL     1       5.991   4.104  14.135  0.00  0.00    +0.000 C 
ATOM     13  C   UNL     1       5.322   4.142  15.498  0.00  0.00    +0.000 C 
ENDBRANCH  11  13
BRANCH  11  14
ATOM     14  C   UNL     1       7.514   4.981  16.590  0.00  0.00    +0.000 C 
ATOM     15  C   UNL     1       7.277   6.443  16.943  0.00  0.00    +0.000 C 
ENDBRANCH  11  14
ENDBRANCH   7  11
ENDBRANCH   1   9
BRANCH   5  16
ATOM     16  C   UNL     1       1.605   8.408  19.733  0.00  0.00    +0.000 C 
ATOM     17  O   UNL     1       1.991   9.078  18.791  0.00  0.00    +0.000 OA
ATOM     18  N   UNL     1       0.826   8.828  20.789  0.00  0.00    +0.000 N 
ATOM     19  H   UNL     1       0.735   8.195  21.571  0.00  0.00    +0.000 HD
BRANCH  18  20
ATOM     20  C   UNL     1       0.094  10.026  20.868  0.00  0.00    +0.000 A 
ATOM     21  C   UNL     1      -0.630  10.566  19.785  0.00  0.00    +0.000 A 
ATOM     22  C   UNL     1      -1.519  11.630  19.968  0.00  0.00    +0.000 A 
ATOM     23  C   UNL     1      -1.678  12.098  21.252  0.00  0.00    +0.000 A 
ATOM     24  C   UNL     1      -0.924  11.618  22.298  0.00  0.00    +0.000 A 
ATOM     25  C   UNL     1      -0.003  10.609  22.137  0.00  0.00    +0.000 A 
ATOM     26  O   UNL     1      -1.291  12.169  23.490  0.00  0.00    +0.000 OA
ATOM     27  C   UNL     1      -2.553  12.745  23.092  0.00  0.00    +0.000 C 
ATOM     28  O   UNL     1      -2.622  12.985  21.672  0.00  0.00    +0.000 OA
ENDBRANCH  18  20
ENDBRANCH   5  16
TORSDOF 6
ENDMDL
MODEL 8
REMARK VINA RESULT:      -7.3      1.791      2.802
REMARK  Name = 
REMARK  8 active torsions:
REMARK  status: ('A' for Active; 'I' for Inactive)
REMARK    1  A    between atoms: C_1  and  C_2
REMARK    2  A    between atoms: C_2  and  C_3
REMARK    3  A    between atoms: C_3  and  C_4
REMARK    4  A    between atoms: C_3  and  C_6
REMARK    5  A    between atoms: C_4  and  C_5
REMARK    6  A    between atoms: N_8  and  C_9
REMARK    7  A    between atoms: C_13  and  C_14
REMARK    8  A    between atoms: N_16  and  C_17
REMARK                            x       y       z     vdW  Elec       q    Type
REMARK                         _______ _______ _______ _____ _____    ______ ____
ROOT
ATOM      1  C   UNL     1       4.188   4.285  17.266  0.00  0.00    +0.000 A 
ATOM      2  C   UNL     1       4.072   3.270  18.227  0.00  0.00    +0.000 A 
ATOM      3  C   UNL     1       3.404   3.495  19.431  0.00  0.00    +0.000 A 
ATOM      4  C   UNL     1       2.866   4.748  19.701  0.00  0.00    +0.000 A 
ATOM      5  C   UNL     1       3.005   5.771  18.755  0.00  0.00    +0.000 A 
ATOM      6  C   UNL     1       3.666   5.543  17.544  0.00  0.00    +0.000 A 
ENDROOT
BRANCH   1   9
ATOM      7  C   UNL     1       6.173   4.246  15.798  0.00  0.00    +0.000 C 
ATOM      8  O   UNL     1       6.994   4.462  16.689  0.00  0.00    +0.000 OA
ATOM      9  N   UNL     1       4.822   4.101  16.018  0.00  0.00    +0.000 N 
ATOM     10  H   UNL     1       4.288   3.679  15.271  0.00  0.00    +0.000 HD
BRANCH   7  11
ATOM     11  C   UNL     1       6.633   4.130  14.343  0.00  0.00    +0.000 C 
BRANCH  11  13
ATOM     12  C   UNL     1       5.469   3.105  12.259  0.00  0.00    +0.000 C 
ATOM     13  C   UNL     1       5.372   4.043  13.449  0.00  0.00    +0.000 C 
ENDBRANCH  11  13
BRANCH  11  14
ATOM     14  C   UNL     1       7.618   5.237  13.928  0.00  0.00    +0.000 C 
ATOM     15  C   UNL     1       7.823   5.376  12.425  0.00  0.00    +0.000 C 
ENDBRANCH  11  14
ENDBRANCH   7  11
ENDBRANCH   1   9
BRANCH   5  16
ATOM     16  C   UNL     1       2.417   7.113  18.974  0.00  0.00    +0.000 C 
ATOM     17  O   UNL     1       2.268   7.839  18.006  0.00  0.00    +0.000 OA
ATOM     18  N   UNL     1       2.104   7.399  20.284  0.00  0.00    +0.000 N 
ATOM     19  H   UNL     1       2.444   6.757  20.986  0.00  0.00    +0.000 HD
BRANCH  18  20
ATOM     20  C   UNL     1       1.307   8.462  20.745  0.00  0.00    +0.000 A 
ATOM     21  C   UNL     1       0.660   8.461  21.998  0.00  0.00    +0.000 A 
ATOM     22  C   UNL     1       0.068   9.622  22.506  0.00  0.00    +0.000 A 
ATOM     23  C   UNL     1       0.175  10.764  21.747  0.00  0.00    +0.000 A 
ATOM     24  C   UNL     1       0.747  10.752  20.495  0.00  0.00    +0.000 A 
ATOM     25  C   UNL     1       1.289   9.613  19.947  0.00  0.00    +0.000 A 
ATOM     26  O   UNL     1       0.812  11.999  19.949  0.00  0.00    +0.000 OA
ATOM     27  C   UNL     1       0.551  12.778  21.136  0.00  0.00    +0.000 C 
ATOM     28  O   UNL     1      -0.159  12.024  22.140  0.00  0.00    +0.000 OA
ENDBRANCH  18  20
ENDBRANCH   5  16
TORSDOF 6
ENDMDL
MODEL 9
REMARK VINA RESULT:      -7.3      3.361      9.154
REMARK  Name = 
REMARK  8 active torsions:
REMARK  status: ('A' for Active; 'I' for Inactive)
REMARK    1  A    between atoms: C_1  and  C_2
REMARK    2  A    between atoms: C_2  and  C_3
REMARK    3  A    between atoms: C_3  and  C_4
REMARK    4  A    between atoms: C_3  and  C_6
REMARK    5  A    between atoms: C_4  and  C_5
REMARK    6  A    between atoms: N_8  and  C_9
REMARK    7  A    between atoms: C_13  and  C_14
REMARK    8  A    between atoms: N_16  and  C_17
REMARK                            x       y       z     vdW  Elec       q    Type
REMARK                         _______ _______ _______ _____ _____    ______ ____
ROOT
ATOM      1  C   UNL     1      -0.734  10.734  19.294  0.00  0.00    +0.000 A 
ATOM      2  C   UNL     1      -0.819  11.401  20.525  0.00  0.00    +0.000 A 
ATOM      3  C   UNL     1      -0.061  10.986  21.620  0.00  0.00    +0.000 A 
ATOM      4  C   UNL     1       0.773   9.879  21.506  0.00  0.00    +0.000 A 
ATOM      5  C   UNL     1       0.840   9.195  20.286  0.00  0.00    +0.000 A 
ATOM      6  C   UNL     1       0.087   9.617  19.185  0.00  0.00    +0.000 A 
ENDROOT
BRANCH   1   9
ATOM      7  C   UNL     1      -2.529  10.456  17.622  0.00  0.00    +0.000 C 
ATOM      8  O   UNL     1      -3.046   9.474  18.152  0.00  0.00    +0.000 OA
ATOM      9  N   UNL     1      -1.451  11.134  18.147  0.00  0.00    +0.000 N 
ATOM     10  H   UNL     1      -1.276  12.057  17.774  0.00  0.00    +0.000 HD
BRANCH   7  11
ATOM     11  C   UNL     1      -3.077  10.990  16.296  0.00  0.00    +0.000 C 
BRANCH  11  13
ATOM     12  C   UNL     1      -3.483  10.051  13.908  0.00  0.00    +0.000 C 
ATOM     13  C   UNL     1      -2.645  10.014  15.174  0.00  0.00    +0.000 C 
ENDBRANCH  11  13
BRANCH  11  14
ATOM     14  C   UNL     1      -4.590  11.268  16.333  0.00  0.00    +0.000 C 
ATOM     15  C   UNL     1      -5.060  12.070  17.540  0.00  0.00    +0.000 C 
ENDBRANCH  11  14
ENDBRANCH   7  11
ENDBRANCH   1   9
BRANCH   5  16
ATOM     16  C   UNL     1       1.741   8.035  20.096  0.00  0.00    +0.000 C 
ATOM     17  O   UNL     1       1.851   7.238  21.012  0.00  0.00    +0.000 OA
ATOM     18  N   UNL     1       2.374   7.990  18.874  0.00  0.00    +0.000 N 
ATOM     19  H   UNL     1       2.304   8.813  18.292  0.00  0.00    +0.000 HD
BRANCH  18  20
ATOM     20  C   UNL     1       3.061   6.894  18.323  0.00  0.00    +0.000 A 
ATOM     21  C   UNL     1       2.581   5.569  18.380  0.00  0.00    +0.000 A 
ATOM     22  C   UNL     1       3.180   4.551  17.630  0.00  0.00    +0.000 A 
ATOM     23  C   UNL     1       4.230   4.907  16.817  0.00  0.00    +0.000 A 
ATOM     24  C   UNL     1       4.743   6.184  16.811  0.00  0.00    +0.000 A 
ATOM     25  C   UNL     1       4.208   7.193  17.578  0.00  0.00    +0.000 A 
ATOM     26  O   UNL     1       5.731   6.335  15.885  0.00  0.00    +0.000 OA
ATOM     27  C   UNL     1       5.504   5.136  15.115  0.00  0.00    +0.000 C 
ATOM     28  O   UNL     1       4.820   4.119  15.876  0.00  0.00    +0.000 OA
ENDBRANCH  18  20
ENDBRANCH   5  16
TORSDOF 6
ENDMDL
