MODEL 1
REMARK VINA RESULT:      -7.4      0.000      0.000
REMARK  Name = 
REMARK  5 active torsions:
REMARK  status: ('A' for Active; 'I' for Inactive)
REMARK    1  A    between atoms: C_1  and  N_2
REMARK    2  A    between atoms: N_2  and  C_3
REMARK    3  A    between atoms: C_3  and  C_4
REMARK    4  A    between atoms: C_5  and  C_6
REMARK    5  A    between atoms: N_14  and  C_15
REMARK                            x       y       z     vdW  Elec       q    Type
REMARK                         _______ _______ _______ _____ _____    ______ ____
ROOT
ATOM      1  C   UNL     1       1.124   9.109  19.777  0.00  0.00    +0.000 A 
ATOM      2  C   UNL     1       0.611   8.426  20.910  0.00  0.00    +0.000 A 
ATOM      3  C   UNL     1       1.041   7.104  21.258  0.00  0.00    +0.000 A 
ATOM      4  C   UNL     1       1.943   6.464  20.418  0.00  0.00    +0.000 A 
ATOM      5  C   UNL     1       2.362   7.124  19.285  0.00  0.00    +0.000 A 
ATOM      6  C   UNL     1       2.034   8.437  18.969  0.00  0.00    +0.000 A 
ATOM      7  C   UNL     1       3.198   6.223  18.511  0.00  0.00    +0.000 C 
ATOM      8  O   UNL     1       3.535   6.472  17.377  0.00  0.00    +0.000 OA
ATOM      9  N   UNL     1       3.478   5.143  19.310  0.00  0.00    +0.000 N 
ATOM     10  C   UNL     1       2.693   5.180  20.434  0.00  0.00    +0.000 C 
ATOM     11  O   UNL     1       2.706   4.389  21.383  0.00  0.00    +0.000 OA
ENDROOT
BRANCH   9  12
ATOM     12  C   UNL     1       4.620   4.247  19.011  0.00  0.00    +0.000 C 
ATOM     13  C   UNL     1       5.993   4.843  19.292  0.00  0.00    +0.000 C 
ATOM     14  C   UNL     1       6.542   5.626  18.110  0.00  0.00    +0.000 C 
ATOM     15  C   UNL     1       6.650   4.759  16.891  0.00  0.00    +0.000 C 
ATOM     16  O   UNL     1       7.530   4.915  16.032  0.00  0.00    +0.000 OA
ATOM     17  N   UNL     1       5.662   3.816  16.754  0.00  0.00    +0.000 N 
ATOM     18  C   UNL     1       4.627   3.514  17.630  0.00  0.00    +0.000 C 
ATOM     19  O   UNL     1       3.785   2.681  17.296  0.00  0.00    +0.000 OA
ATOM     20  H   UNL     1       5.698   3.280  15.896  0.00  0.00    +0.000 HD
ENDBRANCH   9  12
BRANCH   1  22
ATOM     21  C   UNL     1       0.385  11.648  18.991  0.00  0.00    +0.000 C 
ATOM     22  C   UNL     1       0.726  10.448  19.372  0.00  0.00    +0.000 C 
BRANCH  21  23
ATOM     23  C   UNL     1      -0.013  13.046  18.547  0.00  0.00    +0.000 C 
BRANCH  23  25
ATOM     24  C   UNL     1      -1.952  11.876  17.775  0.00  0.00    +0.000 C 
ATOM     25  N   UNL     1      -1.021  12.961  17.499  0.00  0.00    +0.000 NA
ATOM     26  H   UNL     1      -1.529  13.844  17.459  0.00  0.00    +0.000 HD
ENDBRANCH  23  25
ENDBRANCH  21  23
ENDBRANCH   1  22
TORSDOF 4
ENDMDL
MODEL 2
REMARK VINA RESULT:      -7.2      3.187      7.995
REMARK  Name = 
REMARK  5 active torsions:
REMARK  status: ('A' for Active; 'I' for Inactive)
REMARK    1  A    between atoms: C_1  and  N_2
REMARK    2  A    between atoms: N_2  and  C_3
REMARK    3  A    between atoms: C_3  and  C_4
REMARK    4  A    between atoms: C_5  and  C_6
REMARK    5  A    between atoms: N_14  and  C_15
REMARK                            x       y       z     vdW  Elec       q    Type
REMARK                         _______ _______ _______ _____ _____    ______ ____
ROOT
ATOM      1  C   UNL     1       3.398   6.563  18.261  0.00  0.00    +0.000 A 
ATOM      2  C   UNL     1       3.166   6.161  19.602  0.00  0.00    +0.000 A 
ATOM      3  C   UNL     1       2.240   6.850  20.452  0.00  0.00    +0.000 A 
ATOM      4  C   UNL     1       1.602   7.978  19.950  0.00  0.00    +0.000 A 
ATOM      5  C   UNL     1       1.907   8.386  18.672  0.00  0.00    +0.000 A 
ATOM      6  C   UNL     1       2.729   7.689  17.795  0.00  0.00    +0.000 A 
ATOM      7  C   UNL     1       1.216   9.637  18.411  0.00  0.00    +0.000 C 
ATOM      8  O   UNL     1       1.462  10.319  17.446  0.00  0.00    +0.000 OA
ATOM      9  N   UNL     1       0.314   9.820  19.429  0.00  0.00    +0.000 N 
ATOM     10  C   UNL     1       0.546   8.910  20.428  0.00  0.00    +0.000 C 
ATOM     11  O   UNL     1      -0.097   8.763  21.472  0.00  0.00    +0.000 OA
ENDROOT
BRANCH   9  12
ATOM     12  C   UNL     1      -0.830  10.751  19.278  0.00  0.00    +0.000 C 
ATOM     13  C   UNL     1      -2.148  10.091  18.898  0.00  0.00    +0.000 C 
ATOM     14  C   UNL     1      -2.314   9.940  17.395  0.00  0.00    +0.000 C 
ATOM     15  C   UNL     1      -2.245  11.272  16.708  0.00  0.00    +0.000 C 
ATOM     16  O   UNL     1      -2.881  11.530  15.675  0.00  0.00    +0.000 OA
ATOM     17  N   UNL     1      -1.374  12.174  17.266  0.00  0.00    +0.000 N 
ATOM     18  C   UNL     1      -0.610  12.039  18.418  0.00  0.00    +0.000 C 
ATOM     19  O   UNL     1       0.178  12.934  18.722  0.00  0.00    +0.000 OA
ATOM     20  H   UNL     1      -1.277  13.046  16.760  0.00  0.00    +0.000 HD
ENDBRANCH   9  12
BRANCH   1  22
ATOM     21  C   UNL     1       5.145   5.329  16.520  0.00  0.00    +0.000 C 
ATOM     22  C   UNL     1       4.325   5.907  17.353  0.00  0.00    +0.000 C 
BRANCH  21  23
ATOM     23  C   UNL     1       6.102   4.655  15.550  0.00  0.00    +0.000 C 
BRANCH  23  25
ATOM     24  C   UNL     1       7.542   4.581  17.458  0.00  0.00    +0.000 C 
ATOM     25  N   UNL     1       7.471   4.808  16.021  0.00  0.00    +0.000 NA
ATOM     26  H   UNL     1       8.063   4.132  15.540  0.00  0.00    +0.000 HD
ENDBRANCH  23  25
ENDBRANCH  21  23
ENDBRANCH   1  22
TORSDOF 4
ENDMDL
MODEL 3
REMARK VINA RESULT:      -7.1      0.872      1.200
REMARK  Name = 
REMARK  5 active torsions:
REMARK  status: ('A' for Active; 'I' for Inactive)
REMARK    1  A    between atoms: C_1  and  N_2
REMARK    2  A    between atoms: N_2  and  C_3
REMARK    3  A    between atoms: C_3  and  C_4
REMARK    4  A    between atoms: C_5  and  C_6
REMARK    5  A    between atoms: N_14  and  C_15
REMARK                            x       y       z     vdW  Elec       q    Type
REMARK                         _______ _______ _______ _____ _____    ______ ____
ROOT
ATOM      1  C   UNL     1       1.165   9.383  19.662  0.00  0.00    +0.000 A 
ATOM      2  C   UNL     1       0.585   8.742  20.788  0.00  0.00    +0.000 A 
ATOM      3  C   UNL     1       0.933   7.403  21.162  0.00  0.00    +0.000 A 
ATOM      4  C   UNL     1       1.823   6.705  20.354  0.00  0.00    +0.000 A 
ATOM      5  C   UNL     1       2.306   7.328  19.226  0.00  0.00    +0.000 A 
ATOM      6  C   UNL     1       2.059   8.653  18.887  0.00  0.00    +0.000 A 
ATOM      7  C   UNL     1       3.114   6.375  18.485  0.00  0.00    +0.000 C 
ATOM      8  O   UNL     1       3.494   6.591  17.359  0.00  0.00    +0.000 OA
ATOM      9  N   UNL     1       3.313   5.291  19.303  0.00  0.00    +0.000 N 
ATOM     10  C   UNL     1       2.502   5.383  20.405  0.00  0.00    +0.000 C 
ATOM     11  O   UNL     1       2.446   4.604  21.362  0.00  0.00    +0.000 OA
ENDROOT
BRANCH   9  12
ATOM     12  C   UNL     1       4.413   4.332  19.046  0.00  0.00    +0.000 C 
ATOM     13  C   UNL     1       5.806   4.848  19.381  0.00  0.00    +0.000 C 
ATOM     14  C   UNL     1       6.443   5.600  18.223  0.00  0.00    +0.000 C 
ATOM     15  C   UNL     1       6.549   4.728  17.006  0.00  0.00    +0.000 C 
ATOM     16  O   UNL     1       7.469   4.834  16.182  0.00  0.00    +0.000 OA
ATOM     17  N   UNL     1       5.515   3.843  16.829  0.00  0.00    +0.000 N 
ATOM     18  C   UNL     1       4.432   3.600  17.664  0.00  0.00    +0.000 C 
ATOM     19  O   UNL     1       3.558   2.816  17.297  0.00  0.00    +0.000 OA
ATOM     20  H   UNL     1       5.554   3.306  15.972  0.00  0.00    +0.000 HD
ENDBRANCH   9  12
BRANCH   1  22
ATOM     21  C   UNL     1       0.581  11.958  18.865  0.00  0.00    +0.000 C 
ATOM     22  C   UNL     1       0.850  10.736  19.232  0.00  0.00    +0.000 C 
BRANCH  21  23
ATOM     23  C   UNL     1       0.267  13.382  18.438  0.00  0.00    +0.000 C 
BRANCH  23  25
ATOM     24  C   UNL     1       1.050  15.599  18.880  0.00  0.00    +0.000 C 
ATOM     25  N   UNL     1       1.443  14.221  18.621  0.00  0.00    +0.000 NA
ATOM     26  H   UNL     1       1.981  13.867  19.411  0.00  0.00    +0.000 HD
ENDBRANCH  23  25
ENDBRANCH  21  23
ENDBRANCH   1  22
TORSDOF 4
ENDMDL
MODEL 4
REMARK VINA RESULT:      -7.1      4.080      9.081
REMARK  Name = 
REMARK  5 active torsions:
REMARK  status: ('A' for Active; 'I' for Inactive)
REMARK    1  A    between atoms: C_1  and  N_2
REMARK    2  A    between atoms: N_2  and  C_3
REMARK    3  A    between atoms: C_3  and  C_4
REMARK    4  A    between atoms: C_5  and  C_6
REMARK    5  A    between atoms: N_14  and  C_15
REMARK                            x       y       z     vdW  Elec       q    Type
REMARK                         _______ _______ _______ _____ _____    ______ ____
ROOT
ATOM      1  C   UNL     1       2.347   7.416  19.111  0.00  0.00    +0.000 A 
ATOM      2  C   UNL     1       2.103   8.144  17.917  0.00  0.00    +0.000 A 
ATOM      3  C   UNL     1       1.376   9.379  17.916  0.00  0.00    +0.000 A 
ATOM      4  C   UNL     1       0.852   9.834  19.119  0.00  0.00    +0.000 A 
ATOM      5  C   UNL     1       1.040   9.066  20.245  0.00  0.00    +0.000 A 
ATOM      6  C   UNL     1       1.815   7.913  20.295  0.00  0.00    +0.000 A 
ATOM      7  C   UNL     1       0.312   9.674  21.344  0.00  0.00    +0.000 C 
ATOM      8  O   UNL     1       0.138   9.105  22.395  0.00  0.00    +0.000 OA
ATOM      9  N   UNL     1      -0.080  10.922  20.928  0.00  0.00    +0.000 N 
ATOM     10  C   UNL     1       0.137  11.053  19.580  0.00  0.00    +0.000 C 
ATOM     11  O   UNL     1      -0.064  12.053  18.883  0.00  0.00    +0.000 OA
ENDROOT
BRANCH   9  12
ATOM     12  C   UNL     1      -0.469  11.966  21.905  0.00  0.00    +0.000 C 
ATOM     13  C   UNL     1      -1.960  12.042  22.205  0.00  0.00    +0.000 C 
ATOM     14  C   UNL     1      -2.706  12.940  21.232  0.00  0.00    +0.000 C 
ATOM     15  C   UNL     1      -2.155  14.336  21.254  0.00  0.00    +0.000 C 
ATOM     16  O   UNL     1      -2.856  15.338  21.053  0.00  0.00    +0.000 OA
ATOM     17  N   UNL     1      -0.800  14.426  21.449  0.00  0.00    +0.000 N 
ATOM     18  C   UNL     1       0.108  13.406  21.700  0.00  0.00    +0.000 C 
ATOM     19  O   UNL     1       1.307  13.675  21.771  0.00  0.00    +0.000 OA
ATOM     20  H   UNL     1      -0.421  15.363  21.394  0.00  0.00    +0.000 HD
ENDBRANCH   9  12
BRANCH   1  22
ATOM     21  C   UNL     1       3.745   5.042  19.240  0.00  0.00    +0.000 C 
ATOM     22  C   UNL     1       3.074   6.158  19.174  0.00  0.00    +0.000 C 
BRANCH  21  23
ATOM     23  C   UNL     1       4.527   3.741  19.318  0.00  0.00    +0.000 C 
BRANCH  23  25
ATOM     24  C   UNL     1       5.961   4.514  17.566  0.00  0.00    +0.000 C 
ATOM     25  N   UNL     1       5.908   3.973  18.916  0.00  0.00    +0.000 NA
ATOM     26  H   UNL     1       6.333   4.635  19.565  0.00  0.00    +0.000 HD
ENDBRANCH  23  25
ENDBRANCH  21  23
ENDBRANCH   1  22
TORSDOF 4
ENDMDL
MODEL 5
REMARK VINA RESULT:      -7.0      1.831      2.642
REMARK  Name = 
REMARK  5 active torsions:
REMARK  status: ('A' for Active; 'I' for Inactive)
REMARK    1  A    between atoms: C_1  and  N_2
REMARK    2  A    between atoms: N_2  and  C_3
REMARK    3  A    between atoms: C_3  and  C_4
REMARK    4  A    between atoms: C_5  and  C_6
REMARK    5  A    between atoms: N_14  and  C_15
REMARK                            x       y       z     vdW  Elec       q    Type
REMARK                         _______ _______ _______ _____ _____    ______ ____
ROOT
ATOM      1  C   UNL     1       0.921  10.276  20.344  0.00  0.00    +0.000 A 
ATOM      2  C   UNL     1       0.521   9.425  21.407  0.00  0.00    +0.000 A 
ATOM      3  C   UNL     1       0.868   8.034  21.438  0.00  0.00    +0.000 A 
ATOM      4  C   UNL     1       1.568   7.508  20.359  0.00  0.00    +0.000 A 
ATOM      5  C   UNL     1       1.873   8.343  19.309  0.00  0.00    +0.000 A 
ATOM      6  C   UNL     1       1.631   9.711  19.291  0.00  0.00    +0.000 A 
ATOM      7  C   UNL     1       2.494   7.553  18.259  0.00  0.00    +0.000 C 
ATOM      8  O   UNL     1       2.678   7.991  17.149  0.00  0.00    +0.000 OA
ATOM      9  N   UNL     1       2.784   6.324  18.796  0.00  0.00    +0.000 N 
ATOM     10  C   UNL     1       2.185   6.197  20.023  0.00  0.00    +0.000 C 
ATOM     11  O   UNL     1       2.264   5.240  20.800  0.00  0.00    +0.000 OA
ENDROOT
BRANCH   9  12
ATOM     12  C   UNL     1       3.777   5.427  18.158  0.00  0.00    +0.000 C 
ATOM     13  C   UNL     1       3.187   4.369  17.236  0.00  0.00    +0.000 C 
ATOM     14  C   UNL     1       2.797   3.100  17.978  0.00  0.00    +0.000 C 
ATOM     15  C   UNL     1       3.980   2.500  18.679  0.00  0.00    +0.000 C 
ATOM     16  O   UNL     1       4.114   1.279  18.845  0.00  0.00    +0.000 OA
ATOM     17  N   UNL     1       4.879   3.404  19.188  0.00  0.00    +0.000 N 
ATOM     18  C   UNL     1       4.873   4.788  19.072  0.00  0.00    +0.000 C 
ATOM     19  O   UNL     1       5.729   5.442  19.667  0.00  0.00    +0.000 OA
ATOM     20  H   UNL     1       5.638   2.999  19.720  0.00  0.00    +0.000 HD
ENDBRANCH   9  12
BRANCH   1  22
ATOM     21  C   UNL     1       0.319  12.964  20.198  0.00  0.00    +0.000 C 
ATOM     22  C   UNL     1       0.597  11.691  20.256  0.00  0.00    +0.000 C 
BRANCH  21  23
ATOM     23  C   UNL     1      -0.005  14.447  20.130  0.00  0.00    +0.000 C 
BRANCH  23  25
ATOM     24  C   UNL     1      -0.316  16.200  18.531  0.00  0.00    +0.000 C 
ATOM     25  N   UNL     1      -0.504  14.781  18.803  0.00  0.00    +0.000 NA
ATOM     26  H   UNL     1       0.006  14.232  18.111  0.00  0.00    +0.000 HD
ENDBRANCH  23  25
ENDBRANCH  21  23
ENDBRANCH   1  22
TORSDOF 4
ENDMDL
MODEL 6
REMARK VINA RESULT:      -7.0      4.576      6.797
REMARK  Name = 
REMARK  5 active torsions:
REMARK  status: ('A' for Active; 'I' for Inactive)
REMARK    1  A    between atoms: C_1  and  N_2
REMARK    2  A    between atoms: N_2  and  C_3
REMARK    3  A    between atoms: C_3  and  C_4
REMARK    4  A    between atoms: C_5  and  C_6
REMARK    5  A    between atoms: N_14  and  C_15
REMARK                            x       y       z     vdW  Elec       q    Type
REMARK                         _______ _______ _______ _____ _____    ______ ____
ROOT
ATOM      1  C   UNL     1       7.444   7.282  17.501  0.00  0.00    +0.000 A 
ATOM      2  C   UNL     1       7.688   6.884  16.161  0.00  0.00    +0.000 A 
ATOM      3  C   UNL     1       6.977   5.800  15.550  0.00  0.00    +0.000 A 
ATOM      4  C   UNL     1       6.067   5.091  16.324  0.00  0.00    +0.000 A 
ATOM      5  C   UNL     1       5.910   5.454  17.642  0.00  0.00    +0.000 A 
ATOM      6  C   UNL     1       6.516   6.554  18.237  0.00  0.00    +0.000 A 
ATOM      7  C   UNL     1       5.007   4.509  18.275  0.00  0.00    +0.000 C 
ATOM      8  O   UNL     1       4.851   4.469  19.472  0.00  0.00    +0.000 OA
ATOM      9  N   UNL     1       4.439   3.760  17.275  0.00  0.00    +0.000 N 
ATOM     10  C   UNL     1       5.087   3.998  16.090  0.00  0.00    +0.000 C 
ATOM     11  O   UNL     1       4.818   3.524  14.981  0.00  0.00    +0.000 OA
ENDROOT
BRANCH   9  12
ATOM     12  C   UNL     1       3.186   3.003  17.505  0.00  0.00    +0.000 C 
ATOM     13  C   UNL     1       1.930   3.857  17.611  0.00  0.00    +0.000 C 
ATOM     14  C   UNL     1       1.674   4.345  19.028  0.00  0.00    +0.000 C 
ATOM     15  C   UNL     1       1.536   3.192  19.978  0.00  0.00    +0.000 C 
ATOM     16  O   UNL     1       0.801   3.229  20.976  0.00  0.00    +0.000 OA
ATOM     17  N   UNL     1       2.333   2.109  19.705  0.00  0.00    +0.000 N 
ATOM     18  C   UNL     1       3.189   1.915  18.629  0.00  0.00    +0.000 C 
ATOM     19  O   UNL     1       3.887   0.903  18.594  0.00  0.00    +0.000 OA
ATOM     20  H   UNL     1       2.289   1.363  20.387  0.00  0.00    +0.000 HD
ENDBRANCH   9  12
BRANCH   1  22
ATOM     21  C   UNL     1       8.766   9.350  18.759  0.00  0.00    +0.000 C 
ATOM     22  C   UNL     1       8.134   8.370  18.175  0.00  0.00    +0.000 C 
BRANCH  21  23
ATOM     23  C   UNL     1       9.502  10.493  19.440  0.00  0.00    +0.000 C 
BRANCH  23  25
ATOM     24  C   UNL     1      11.533  11.622  18.873  0.00  0.00    +0.000 C 
ATOM     25  N   UNL     1      10.179  11.307  18.440  0.00  0.00    +0.000 NA
ATOM     26  H   UNL     1      10.214  10.789  17.563  0.00  0.00    +0.000 HD
ENDBRANCH  23  25
ENDBRANCH  21  23
ENDBRANCH   1  22
TORSDOF 4
ENDMDL
MODEL 7
REMARK VINA RESULT:      -7.0      3.173      7.961
REMARK  Name = 
REMARK  5 active torsions:
REMARK  status: ('A' for Active; 'I' for Inactive)
REMARK    1  A    between atoms: C_1  and  N_2
REMARK    2  A    between atoms: N_2  and  C_3
REMARK    3  A    between atoms: C_3  and  C_4
REMARK    4  A    between atoms: C_5  and  C_6
REMARK    5  A    between atoms: N_14  and  C_15
REMARK                            x       y       z     vdW  Elec       q    Type
REMARK                         _______ _______ _______ _____ _____    ______ ____
ROOT
ATOM      1  C   UNL     1       3.770   6.583  17.857  0.00  0.00    +0.000 A 
ATOM      2  C   UNL     1       3.561   6.056  19.159  0.00  0.00    +0.000 A 
ATOM      3  C   UNL     1       2.633   6.648  20.077  0.00  0.00    +0.000 A 
ATOM      4  C   UNL     1       1.969   7.805  19.686  0.00  0.00    +0.000 A 
ATOM      5  C   UNL     1       2.253   8.333  18.448  0.00  0.00    +0.000 A 
ATOM      6  C   UNL     1       3.077   7.734  17.503  0.00  0.00    +0.000 A 
ATOM      7  C   UNL     1       1.538   9.590  18.310  0.00  0.00    +0.000 C 
ATOM      8  O   UNL     1       1.761  10.362  17.408  0.00  0.00    +0.000 OA
ATOM      9  N   UNL     1       0.643   9.663  19.349  0.00  0.00    +0.000 N 
ATOM     10  C   UNL     1       0.903   8.669  20.257  0.00  0.00    +0.000 C 
ATOM     11  O   UNL     1       0.274   8.416  21.290  0.00  0.00    +0.000 OA
ENDROOT
BRANCH   9  12
ATOM     12  C   UNL     1      -0.518  10.582  19.294  0.00  0.00    +0.000 C 
ATOM     13  C   UNL     1      -1.841   9.923  18.930  0.00  0.00    +0.000 C 
ATOM     14  C   UNL     1      -2.065   9.853  17.428  0.00  0.00    +0.000 C 
ATOM     15  C   UNL     1      -2.041  11.222  16.814  0.00  0.00    +0.000 C 
ATOM     16  O   UNL     1      -2.721  11.526  15.823  0.00  0.00    +0.000 OA
ATOM     17  N   UNL     1      -1.161  12.105  17.387  0.00  0.00    +0.000 N 
ATOM     18  C   UNL     1      -0.350  11.919  18.499  0.00  0.00    +0.000 C 
ATOM     19  O   UNL     1       0.438  12.808  18.821  0.00  0.00    +0.000 OA
ATOM     20  H   UNL     1      -1.096  13.005  16.927  0.00  0.00    +0.000 HD
ENDBRANCH   9  12
BRANCH   1  22
ATOM     21  C   UNL     1       5.519   5.511  16.013  0.00  0.00    +0.000 C 
ATOM     22  C   UNL     1       4.699   6.029  16.885  0.00  0.00    +0.000 C 
BRANCH  21  23
ATOM     23  C   UNL     1       6.475   4.908  14.998  0.00  0.00    +0.000 C 
BRANCH  23  25
ATOM     24  C   UNL     1       6.133   3.593  13.029  0.00  0.00    +0.000 C 
ATOM     25  N   UNL     1       5.914   3.674  14.466  0.00  0.00    +0.000 NA
ATOM     26  H   UNL     1       6.366   2.882  14.924  0.00  0.00    +0.000 HD
ENDBRANCH  23  25
ENDBRANCH  21  23
ENDBRANCH   1  22
TORSDOF 4
ENDMDL
MODEL 8
REMARK VINA RESULT:      -7.0      2.561      3.242
REMARK  Name = 
REMARK  5 active torsions:
REMARK  status: ('A' for Active; 'I' for Inactive)
REMARK    1  A    between atoms: C_1  and  N_2
REMARK    2  A    between atoms: N_2  and  C_3
REMARK    3  A    between atoms: C_3  and  C_4
REMARK    4  A    between atoms: C_5  and  C_6
REMARK    5  A    between atoms: N_14  and  C_15
REMARK                            x       y       z     vdW  Elec       q    Type
REMARK                         _______ _______ _______ _____ _____    ______ ____
ROOT
ATOM      1  C   UNL     1       1.363   7.149  20.813  0.00  0.00    +0.000 A 
ATOM      2  C   UNL     1       1.239   5.744  20.973  0.00  0.00    +0.000 A 
ATOM      3  C   UNL     1       2.005   4.820  20.190  0.00  0.00    +0.000 A 
ATOM      4  C   UNL     1       2.846   5.329  19.210  0.00  0.00    +0.000 A 
ATOM      5  C   UNL     1       2.886   6.692  19.027  0.00  0.00    +0.000 A 
ATOM      6  C   UNL     1       2.226   7.616  19.829  0.00  0.00    +0.000 A 
ATOM      7  C   UNL     1       3.734   6.979  17.883  0.00  0.00    +0.000 C 
ATOM      8  O   UNL     1       3.784   8.075  17.378  0.00  0.00    +0.000 OA
ATOM      9  N   UNL     1       4.390   5.816  17.565  0.00  0.00    +0.000 N 
ATOM     10  C   UNL     1       3.847   4.769  18.264  0.00  0.00    +0.000 C 
ATOM     11  O   UNL     1       4.214   3.589  18.250  0.00  0.00    +0.000 OA
ENDROOT
BRANCH   9  12
ATOM     12  C   UNL     1       5.621   5.835  16.740  0.00  0.00    +0.000 C 
ATOM     13  C   UNL     1       5.401   6.152  15.267  0.00  0.00    +0.000 C 
ATOM     14  C   UNL     1       5.094   4.911  14.443  0.00  0.00    +0.000 C 
ATOM     15  C   UNL     1       6.204   3.907  14.544  0.00  0.00    +0.000 C 
ATOM     16  O   UNL     1       6.506   3.143  13.615  0.00  0.00    +0.000 OA
ATOM     17  N   UNL     1       6.827   3.844  15.765  0.00  0.00    +0.000 N 
ATOM     18  C   UNL     1       6.614   4.635  16.887  0.00  0.00    +0.000 C 
ATOM     19  O   UNL     1       7.220   4.377  17.926  0.00  0.00    +0.000 OA
ATOM     20  H   UNL     1       7.528   3.119  15.852  0.00  0.00    +0.000 HD
ENDBRANCH   9  12
BRANCH   1  22
ATOM     21  C   UNL     1      -0.050   9.009  22.278  0.00  0.00    +0.000 C 
ATOM     22  C   UNL     1       0.613   8.134  21.575  0.00  0.00    +0.000 C 
BRANCH  21  23
ATOM     23  C   UNL     1      -0.823  10.030  23.098  0.00  0.00    +0.000 C 
BRANCH  23  25
ATOM     24  C   UNL     1      -1.424  12.343  22.985  0.00  0.00    +0.000 C 
ATOM     25  N   UNL     1      -0.358  11.372  22.779  0.00  0.00    +0.000 NA
ATOM     26  H   UNL     1       0.431  11.600  23.383  0.00  0.00    +0.000 HD
ENDBRANCH  23  25
ENDBRANCH  21  23
ENDBRANCH   1  22
TORSDOF 4
ENDMDL
MODEL 9
REMARK VINA RESULT:      -7.0      2.741      3.487
REMARK  Name = 
REMARK  5 active torsions:
REMARK  status: ('A' for Active; 'I' for Inactive)
REMARK    1  A    between atoms: C_1  and  N_2
REMARK    2  A    between atoms: N_2  and  C_3
REMARK    3  A    between atoms: C_3  and  C_4
REMARK    4  A    between atoms: C_5  and  C_6
REMARK    5  A    between atoms: N_14  and  C_15
REMARK                            x       y       z     vdW  Elec       q    Type
REMARK                         _______ _______ _______ _____ _____    ______ ____
ROOT
ATOM      1  C   UNL     1       0.074  10.509  20.174  0.00  0.00    +0.000 A 
ATOM      2  C   UNL     1       0.698  10.976  18.988  0.00  0.00    +0.000 A 
ATOM      3  C   UNL     1       1.596  10.156  18.230  0.00  0.00    +0.000 A 
ATOM      4  C   UNL     1       1.900   8.891  18.715  0.00  0.00    +0.000 A 
ATOM      5  C   UNL     1       1.339   8.498  19.909  0.00  0.00    +0.000 A 
ATOM      6  C   UNL     1       0.397   9.232  20.619  0.00  0.00    +0.000 A 
ATOM      7  C   UNL     1       1.888   7.203  20.271  0.00  0.00    +0.000 C 
ATOM      8  O   UNL     1       1.724   6.717  21.364  0.00  0.00    +0.000 OA
ATOM      9  N   UNL     1       2.561   6.728  19.173  0.00  0.00    +0.000 N 
ATOM     10  C   UNL     1       2.680   7.720  18.234  0.00  0.00    +0.000 C 
ATOM     11  O   UNL     1       3.194   7.634  17.114  0.00  0.00    +0.000 OA
ENDROOT
BRANCH   9  12
ATOM     12  C   UNL     1       2.882   5.287  19.038  0.00  0.00    +0.000 C 
ATOM     13  C   UNL     1       4.327   4.920  19.350  0.00  0.00    +0.000 C 
ATOM     14  C   UNL     1       5.235   5.043  18.137  0.00  0.00    +0.000 C 
ATOM     15  C   UNL     1       4.762   4.165  17.017  0.00  0.00    +0.000 C 
ATOM     16  O   UNL     1       5.536   3.634  16.206  0.00  0.00    +0.000 OA
ATOM     17  N   UNL     1       3.400   4.040  16.906  0.00  0.00    +0.000 N 
ATOM     18  C   UNL     1       2.414   4.557  17.737  0.00  0.00    +0.000 C 
ATOM     19  O   UNL     1       1.232   4.402  17.431  0.00  0.00    +0.000 OA
ATOM     20  H   UNL     1       3.082   3.504  16.108  0.00  0.00    +0.000 HD
ENDBRANCH   9  12
BRANCH   1  22
ATOM     21  C   UNL     1      -1.667  11.978  21.729  0.00  0.00    +0.000 C 
ATOM     22  C   UNL     1      -0.843  11.294  20.986  0.00  0.00    +0.000 C 
BRANCH  21  23
ATOM     23  C   UNL     1      -2.628  12.776  22.596  0.00  0.00    +0.000 C 
BRANCH  23  25
ATOM     24  C   UNL     1      -4.187  12.643  24.406  0.00  0.00    +0.000 C 
ATOM     25  N   UNL     1      -3.227  11.904  23.597  0.00  0.00    +0.000 NA
ATOM     26  H   UNL     1      -3.701  11.136  23.124  0.00  0.00    +0.000 HD
ENDBRANCH  23  25
ENDBRANCH  21  23
ENDBRANCH   1  22
TORSDOF 4
ENDMDL
