MODEL 1
REMARK VINA RESULT:      -8.1      0.000      0.000
REMARK  Name = 
REMARK  6 active torsions:
REMARK  status: ('A' for Active; 'I' for Inactive)
REMARK    1  A    between atoms: C_1  and  C_2
REMARK    2  A    between atoms: C_2  and  C_3
REMARK    3  A    between atoms: C_2  and  C_16
REMARK    4  A    between atoms: C_6  and  C_7
REMARK    5  A    between atoms: C_16  and  N_17
REMARK    6  A    between atoms: C_16  and  C_18
REMARK                            x       y       z     vdW  Elec       q    Type
REMARK                         _______ _______ _______ _____ _____    ______ ____
ROOT
ATOM      1  C   UNL     1       2.522   4.859  19.382  0.00  0.00    +0.000 A 
ATOM      2  N   UNL     1       2.519   4.680  20.705  0.00  0.00    +0.000 NA
ATOM      3  N   UNL     1       2.155   5.887  21.146  0.00  0.00    +0.000 N 
ATOM      4  C   UNL     1       1.982   6.793  20.133  0.00  0.00    +0.000 A 
ATOM      5  N   UNL     1       2.286   6.169  19.004  0.00  0.00    +0.000 NA
ATOM      6  H   UNL     1       1.991   6.022  22.135  0.00  0.00    +0.000 HD
ENDROOT
BRANCH   4   7
ATOM      7  C   UNL     1       1.465   8.168  20.317  0.00  0.00    +0.000 A 
ATOM      8  C   UNL     1       1.062   8.580  21.604  0.00  0.00    +0.000 A 
ATOM      9  C   UNL     1       0.687   9.909  21.865  0.00  0.00    +0.000 A 
ATOM     10  C   UNL     1       0.702  10.849  20.842  0.00  0.00    +0.000 A 
ATOM     11 CL   UNL     1       0.313  12.492  21.163  0.00  0.00    +0.000 Cl
ATOM     12  C   UNL     1       1.052  10.467  19.554  0.00  0.00    +0.000 A 
ATOM     13  C   UNL     1       1.424   9.139  19.291  0.00  0.00    +0.000 A 
ATOM     14 CL   UNL     1       1.856   8.816  17.643  0.00  0.00    +0.000 Cl
ENDBRANCH   4   7
BRANCH   1  16
ATOM     15  C   UNL     1       1.864   2.676  18.302  0.00  0.00    +0.000 C 
ATOM     16  C   UNL     1       2.946   3.751  18.459  0.00  0.00    +0.000 C 
BRANCH  16  17
ATOM     17  C   UNL     1       4.377   3.160  18.644  0.00  0.00    +0.000 C 
BRANCH  17  18
ATOM     18  C   UNL     1       5.480   4.207  18.355  0.00  0.00    +0.000 C 
ATOM     19  O   UNL     1       6.132   4.701  19.284  0.00  0.00    +0.000 OA
ATOM     20  N   UNL     1       5.764   4.507  17.037  0.00  0.00    +0.000 N 
ATOM     21  C   UNL     1       5.253   3.834  15.852  0.00  0.00    +0.000 C 
ATOM     22  C   UNL     1       6.406   3.912  14.874  0.00  0.00    +0.000 C 
ATOM     23  C   UNL     1       7.017   5.271  15.176  0.00  0.00    +0.000 C 
ATOM     24  C   UNL     1       6.844   5.414  16.692  0.00  0.00    +0.000 C 
ENDBRANCH  17  18
BRANCH  17  25
ATOM     25  N   UNL     1       4.811   2.398  19.837  0.00  0.00    +0.000 NA
ATOM     26  H   UNL     1       5.689   1.934  19.592  0.00  0.00    +0.000 HD
ATOM     27  H   UNL     1       4.966   3.029  20.618  0.00  0.00    +0.000 HD
ENDBRANCH  17  25
ENDBRANCH  16  17
ENDBRANCH   1  16
TORSDOF 5
ENDMDL
MODEL 2
REMARK VINA RESULT:      -7.9      1.201      1.659
REMARK  Name = 
REMARK  6 active torsions:
REMARK  status: ('A' for Active; 'I' for Inactive)
REMARK    1  A    between atoms: C_1  and  C_2
REMARK    2  A    between atoms: C_2  and  C_3
REMARK    3  A    between atoms: C_2  and  C_16
REMARK    4  A    between atoms: C_6  and  C_7
REMARK    5  A    between atoms: C_16  and  N_17
REMARK    6  A    between atoms: C_16  and  C_18
REMARK                            x       y       z     vdW  Elec       q    Type
REMARK                         _______ _______ _______ _____ _____    ______ ____
ROOT
ATOM      1  C   UNL     1       2.506   4.760  19.369  0.00  0.00    +0.000 A 
ATOM      2  N   UNL     1       2.409   4.904  20.693  0.00  0.00    +0.000 NA
ATOM      3  N   UNL     1       2.181   6.215  20.812  0.00  0.00    +0.000 N 
ATOM      4  C   UNL     1       2.182   6.867  19.607  0.00  0.00    +0.000 A 
ATOM      5  N   UNL     1       2.463   5.960  18.681  0.00  0.00    +0.000 NA
ATOM      6  H   UNL     1       1.983   6.600  21.726  0.00  0.00    +0.000 HD
ENDROOT
BRANCH   4   7
ATOM      7  C   UNL     1       1.839   8.294  19.425  0.00  0.00    +0.000 A 
ATOM      8  C   UNL     1       2.168   8.927  18.208  0.00  0.00    +0.000 A 
ATOM      9  C   UNL     1       1.751  10.239  17.927  0.00  0.00    +0.000 A 
ATOM     10  C   UNL     1       1.004  10.946  18.861  0.00  0.00    +0.000 A 
ATOM     11 CL   UNL     1       0.429  12.526  18.501  0.00  0.00    +0.000 Cl
ATOM     12  C   UNL     1       0.699  10.369  20.087  0.00  0.00    +0.000 A 
ATOM     13  C   UNL     1       1.116   9.059  20.369  0.00  0.00    +0.000 A 
ATOM     14 CL   UNL     1       0.643   8.464  21.929  0.00  0.00    +0.000 Cl
ENDBRANCH   4   7
BRANCH   1  16
ATOM     15  C   UNL     1       1.815   2.344  19.153  0.00  0.00    +0.000 C 
ATOM     16  C   UNL     1       2.833   3.423  18.764  0.00  0.00    +0.000 C 
BRANCH  16  17
ATOM     17  C   UNL     1       4.310   2.932  18.845  0.00  0.00    +0.000 C 
BRANCH  17  18
ATOM     18  C   UNL     1       5.318   4.071  18.557  0.00  0.00    +0.000 C 
ATOM     19  O   UNL     1       5.945   4.600  19.484  0.00  0.00    +0.000 OA
ATOM     20  N   UNL     1       5.551   4.418  17.240  0.00  0.00    +0.000 N 
ATOM     21  C   UNL     1       5.074   3.728  16.052  0.00  0.00    +0.000 C 
ATOM     22  C   UNL     1       6.197   3.919  15.055  0.00  0.00    +0.000 C 
ATOM     23  C   UNL     1       6.700   5.318  15.374  0.00  0.00    +0.000 C 
ATOM     24  C   UNL     1       6.545   5.418  16.895  0.00  0.00    +0.000 C 
ENDBRANCH  17  18
BRANCH  17  25
ATOM     25  N   UNL     1       4.862   2.145  19.971  0.00  0.00    +0.000 NA
ATOM     26  H   UNL     1       4.141   2.114  20.696  0.00  0.00    +0.000 HD
ATOM     27  H   UNL     1       5.076   1.200  19.664  0.00  0.00    +0.000 HD
ENDBRANCH  17  25
ENDBRANCH  16  17
ENDBRANCH   1  16
TORSDOF 5
ENDMDL
MODEL 3
REMARK VINA RESULT:      -7.8      1.528      2.032
REMARK  Name = 
REMARK  6 active torsions:
REMARK  status: ('A' for Active; 'I' for Inactive)
REMARK    1  A    between atoms: C_1  and  C_2
REMARK    2  A    between atoms: C_2  and  C_3
REMARK    3  A    between atoms: C_2  and  C_16
REMARK    4  A    between atoms: C_6  and  C_7
REMARK    5  A    between atoms: C_16  and  N_17
REMARK    6  A    between atoms: C_16  and  C_18
REMARK                            x       y       z     vdW  Elec       q    Type
REMARK                         _______ _______ _______ _____ _____    ______ ____
ROOT
ATOM      1  C   UNL     1       2.177   4.714  19.355  0.00  0.00    +0.000 A 
ATOM      2  N   UNL     1       2.244   4.886  20.677  0.00  0.00    +0.000 NA
ATOM      3  N   UNL     1       2.142   6.213  20.789  0.00  0.00    +0.000 N 
ATOM      4  C   UNL     1       2.059   6.844  19.575  0.00  0.00    +0.000 A 
ATOM      5  N   UNL     1       2.156   5.903  18.647  0.00  0.00    +0.000 NA
ATOM      6  H   UNL     1       2.083   6.628  21.710  0.00  0.00    +0.000 HD
ENDROOT
BRANCH   4   7
ATOM      7  C   UNL     1       1.817   8.293  19.398  0.00  0.00    +0.000 A 
ATOM      8  C   UNL     1       2.244   8.917  18.207  0.00  0.00    +0.000 A 
ATOM      9  C   UNL     1       1.927  10.256  17.925  0.00  0.00    +0.000 A 
ATOM     10  C   UNL     1       1.183  10.999  18.834  0.00  0.00    +0.000 A 
ATOM     11 CL   UNL     1       0.729  12.617  18.470  0.00  0.00    +0.000 Cl
ATOM     12  C   UNL     1       0.784  10.430  20.036  0.00  0.00    +0.000 A 
ATOM     13  C   UNL     1       1.102   9.093  20.319  0.00  0.00    +0.000 A 
ATOM     14 CL   UNL     1       0.518   8.513  21.846  0.00  0.00    +0.000 Cl
ENDBRANCH   4   7
BRANCH   1  16
ATOM     15  C   UNL     1       1.769   2.245  19.666  0.00  0.00    +0.000 C 
ATOM     16  C   UNL     1       2.320   3.345  18.751  0.00  0.00    +0.000 C 
BRANCH  16  17
ATOM     17  C   UNL     1       3.689   2.978  18.102  0.00  0.00    +0.000 C 
BRANCH  17  18
ATOM     18  C   UNL     1       4.875   3.663  18.822  0.00  0.00    +0.000 C 
ATOM     19  O   UNL     1       5.290   3.223  19.902  0.00  0.00    +0.000 OA
ATOM     20  N   UNL     1       5.501   4.719  18.187  0.00  0.00    +0.000 N 
ATOM     21  C   UNL     1       5.280   5.181  16.825  0.00  0.00    +0.000 C 
ATOM     22  C   UNL     1       6.647   5.661  16.387  0.00  0.00    +0.000 C 
ATOM     23  C   UNL     1       7.221   6.261  17.661  0.00  0.00    +0.000 C 
ATOM     24  C   UNL     1       6.673   5.351  18.765  0.00  0.00    +0.000 C 
ENDBRANCH  17  18
BRANCH  17  25
ATOM     25  N   UNL     1       4.115   1.594  17.794  0.00  0.00    +0.000 NA
ATOM     26  H   UNL     1       4.733   1.646  16.980  0.00  0.00    +0.000 HD
ATOM     27  H   UNL     1       4.623   1.201  18.581  0.00  0.00    +0.000 HD
ENDBRANCH  17  25
ENDBRANCH  16  17
ENDBRANCH   1  16
TORSDOF 5
ENDMDL
MODEL 4
REMARK VINA RESULT:      -7.6      3.577      8.569
REMARK  Name = 
REMARK  6 active torsions:
REMARK  status: ('A' for Active; 'I' for Inactive)
REMARK    1  A    between atoms: C_1  and  C_2
REMARK    2  A    between atoms: C_2  and  C_3
REMARK    3  A    between atoms: C_2  and  C_16
REMARK    4  A    between atoms: C_6  and  C_7
REMARK    5  A    between atoms: C_16  and  N_17
REMARK    6  A    between atoms: C_16  and  C_18
REMARK                            x       y       z     vdW  Elec       q    Type
REMARK                         _______ _______ _______ _____ _____    ______ ____
ROOT
ATOM      1  C   UNL     1       1.600   8.239  19.937  0.00  0.00    +0.000 A 
ATOM      2  N   UNL     1       1.726   7.212  20.781  0.00  0.00    +0.000 NA
ATOM      3  N   UNL     1       2.429   6.341  20.052  0.00  0.00    +0.000 N 
ATOM      4  C   UNL     1       2.690   6.795  18.786  0.00  0.00    +0.000 A 
ATOM      5  N   UNL     1       2.101   7.977  18.674  0.00  0.00    +0.000 NA
ATOM      6  H   UNL     1       2.746   5.481  20.481  0.00  0.00    +0.000 HD
ENDROOT
BRANCH   4   7
ATOM      7  C   UNL     1       3.549   6.096  17.804  0.00  0.00    +0.000 A 
ATOM      8  C   UNL     1       4.633   6.791  17.227  0.00  0.00    +0.000 A 
ATOM      9  C   UNL     1       5.558   6.143  16.392  0.00  0.00    +0.000 A 
ATOM     10  C   UNL     1       5.413   4.789  16.112  0.00  0.00    +0.000 A 
ATOM     11 CL   UNL     1       6.577   3.970  15.149  0.00  0.00    +0.000 Cl
ATOM     12  C   UNL     1       4.334   4.086  16.629  0.00  0.00    +0.000 A 
ATOM     13  C   UNL     1       3.407   4.732  17.462  0.00  0.00    +0.000 A 
ATOM     14 CL   UNL     1       2.127   3.721  18.050  0.00  0.00    +0.000 Cl
ENDBRANCH   4   7
BRANCH   1  16
ATOM     15  C   UNL     1       0.832  10.537  19.235  0.00  0.00    +0.000 C 
ATOM     16  C   UNL     1       0.802   9.454  20.321  0.00  0.00    +0.000 C 
BRANCH  16  17
ATOM     17  C   UNL     1       0.991  10.021  21.761  0.00  0.00    +0.000 C 
BRANCH  17  18
ATOM     18  C   UNL     1      -0.359  10.209  22.493  0.00  0.00    +0.000 C 
ATOM     19  O   UNL     1      -0.861   9.273  23.130  0.00  0.00    +0.000 OA
ATOM     20  N   UNL     1      -0.938  11.463  22.481  0.00  0.00    +0.000 N 
ATOM     21  C   UNL     1      -0.349  12.698  21.986  0.00  0.00    +0.000 C 
ATOM     22  C   UNL     1      -0.911  13.756  22.913  0.00  0.00    +0.000 C 
ATOM     23  C   UNL     1      -2.320  13.254  23.186  0.00  0.00    +0.000 C 
ATOM     24  C   UNL     1      -2.159  11.731  23.219  0.00  0.00    +0.000 C 
ENDBRANCH  17  18
BRANCH  17  25
ATOM     25  N   UNL     1       1.944   9.469  22.751  0.00  0.00    +0.000 NA
ATOM     26  H   UNL     1       2.758  10.088  22.759  0.00  0.00    +0.000 HD
ATOM     27  H   UNL     1       1.518   9.454  23.674  0.00  0.00    +0.000 HD
ENDBRANCH  17  25
ENDBRANCH  16  17
ENDBRANCH   1  16
TORSDOF 5
ENDMDL
MODEL 5
REMARK VINA RESULT:      -7.6      3.717      8.099
REMARK  Name = 
REMARK  6 active torsions:
REMARK  status: ('A' for Active; 'I' for Inactive)
REMARK    1  A    between atoms: C_1  and  C_2
REMARK    2  A    between atoms: C_2  and  C_3
REMARK    3  A    between atoms: C_2  and  C_16
REMARK    4  A    between atoms: C_6  and  C_7
REMARK    5  A    between atoms: C_16  and  N_17
REMARK    6  A    between atoms: C_16  and  C_18
REMARK                            x       y       z     vdW  Elec       q    Type
REMARK                         _______ _______ _______ _____ _____    ______ ____
ROOT
ATOM      1  C   UNL     1       1.499   8.730  19.989  0.00  0.00    +0.000 A 
ATOM      2  N   UNL     1       1.572   7.776  20.920  0.00  0.00    +0.000 NA
ATOM      3  N   UNL     1       2.192   6.793  20.261  0.00  0.00    +0.000 N 
ATOM      4  C   UNL     1       2.454   7.112  18.954  0.00  0.00    +0.000 A 
ATOM      5  N   UNL     1       1.950   8.320  18.746  0.00  0.00    +0.000 NA
ATOM      6  H   UNL     1       2.456   5.954  20.760  0.00  0.00    +0.000 HD
ENDROOT
BRANCH   4   7
ATOM      7  C   UNL     1       3.236   6.267  18.025  0.00  0.00    +0.000 A 
ATOM      8  C   UNL     1       4.388   6.806  17.414  0.00  0.00    +0.000 A 
ATOM      9  C   UNL     1       5.241   6.014  16.628  0.00  0.00    +0.000 A 
ATOM     10  C   UNL     1       4.954   4.668  16.432  0.00  0.00    +0.000 A 
ATOM     11 CL   UNL     1       6.027   3.672  15.530  0.00  0.00    +0.000 Cl
ATOM     12  C   UNL     1       3.806   4.116  16.982  0.00  0.00    +0.000 A 
ATOM     13  C   UNL     1       2.952   4.907  17.766  0.00  0.00    +0.000 A 
ATOM     14 CL   UNL     1       1.570   4.074  18.405  0.00  0.00    +0.000 Cl
ENDBRANCH   4   7
BRANCH   1  16
ATOM     15  C   UNL     1      -0.290   9.882  21.343  0.00  0.00    +0.000 C 
ATOM     16  C   UNL     1       0.801  10.030  20.275  0.00  0.00    +0.000 C 
BRANCH  16  17
ATOM     17  C   UNL     1       0.357  10.898  19.059  0.00  0.00    +0.000 C 
BRANCH  17  18
ATOM     18  C   UNL     1       1.412  11.970  18.695  0.00  0.00    +0.000 C 
ATOM     19  O   UNL     1       2.444  11.652  18.089  0.00  0.00    +0.000 OA
ATOM     20  N   UNL     1       1.129  13.290  18.991  0.00  0.00    +0.000 N 
ATOM     21  C   UNL     1      -0.132  13.831  19.474  0.00  0.00    +0.000 C 
ATOM     22  C   UNL     1      -0.196  15.204  18.838  0.00  0.00    +0.000 C 
ATOM     23  C   UNL     1       1.257  15.651  18.848  0.00  0.00    +0.000 C 
ATOM     24  C   UNL     1       2.035  14.355  18.600  0.00  0.00    +0.000 C 
ENDBRANCH  17  18
BRANCH  17  25
ATOM     25  N   UNL     1      -0.148  10.341  17.783  0.00  0.00    +0.000 NA
ATOM     26  H   UNL     1      -1.090   9.984  17.965  0.00  0.00    +0.000 HD
ATOM     27  H   UNL     1      -0.191  11.070  17.077  0.00  0.00    +0.000 HD
ENDBRANCH  17  25
ENDBRANCH  16  17
ENDBRANCH   1  16
TORSDOF 5
ENDMDL
MODEL 6
REMARK VINA RESULT:      -7.6      4.084      8.227
REMARK  Name = 
REMARK  6 active torsions:
REMARK  status: ('A' for Active; 'I' for Inactive)
REMARK    1  A    between atoms: C_1  and  C_2
REMARK    2  A    between atoms: C_2  and  C_3
REMARK    3  A    between atoms: C_2  and  C_16
REMARK    4  A    between atoms: C_6  and  C_7
REMARK    5  A    between atoms: C_16  and  N_17
REMARK    6  A    between atoms: C_16  and  C_18
REMARK                            x       y       z     vdW  Elec       q    Type
REMARK                         _______ _______ _______ _____ _____    ______ ____
ROOT
ATOM      1  C   UNL     1       1.572   8.553  19.763  0.00  0.00    +0.000 A 
ATOM      2  N   UNL     1       1.745   7.631  20.714  0.00  0.00    +0.000 NA
ATOM      3  N   UNL     1       2.432   6.689  20.063  0.00  0.00    +0.000 N 
ATOM      4  C   UNL     1       2.639   6.996  18.744  0.00  0.00    +0.000 A 
ATOM      5  N   UNL     1       2.030   8.152  18.520  0.00  0.00    +0.000 NA
ATOM      6  H   UNL     1       2.777   5.887  20.576  0.00  0.00    +0.000 HD
ENDROOT
BRANCH   4   7
ATOM      7  C   UNL     1       3.470   6.197  17.817  0.00  0.00    +0.000 A 
ATOM      8  C   UNL     1       4.580   6.807  17.195  0.00  0.00    +0.000 A 
ATOM      9  C   UNL     1       5.480   6.067  16.410  0.00  0.00    +0.000 A 
ATOM     10  C   UNL     1       5.283   4.703  16.227  0.00  0.00    +0.000 A 
ATOM     11 CL   UNL     1       6.414   3.774  15.326  0.00  0.00    +0.000 Cl
ATOM     12  C   UNL     1       4.177   4.080  16.789  0.00  0.00    +0.000 A 
ATOM     13  C   UNL     1       3.276   4.819  17.571  0.00  0.00    +0.000 A 
ATOM     14 CL   UNL     1       1.958   3.901  18.226  0.00  0.00    +0.000 Cl
ENDBRANCH   4   7
BRANCH   1  16
ATOM     15  C   UNL     1      -0.383   9.542  21.012  0.00  0.00    +0.000 C 
ATOM     16  C   UNL     1       0.772   9.796  20.035  0.00  0.00    +0.000 C 
BRANCH  16  17
ATOM     17  C   UNL     1       0.364  10.677  18.816  0.00  0.00    +0.000 C 
BRANCH  17  18
ATOM     18  C   UNL     1      -0.946  11.459  19.077  0.00  0.00    +0.000 C 
ATOM     19  O   UNL     1      -0.929  12.503  19.743  0.00  0.00    +0.000 OA
ATOM     20  N   UNL     1      -2.106  11.004  18.481  0.00  0.00    +0.000 N 
ATOM     21  C   UNL     1      -2.230   9.946  17.491  0.00  0.00    +0.000 C 
ATOM     22  C   UNL     1      -3.376  10.409  16.617  0.00  0.00    +0.000 C 
ATOM     23  C   UNL     1      -4.308  11.085  17.610  0.00  0.00    +0.000 C 
ATOM     24  C   UNL     1      -3.353  11.737  18.614  0.00  0.00    +0.000 C 
ENDBRANCH  17  18
BRANCH  17  25
ATOM     25  N   UNL     1       1.284  11.602  18.116  0.00  0.00    +0.000 NA
ATOM     26  H   UNL     1       1.300  12.472  18.655  0.00  0.00    +0.000 HD
ATOM     27  H   UNL     1       2.219  11.206  18.083  0.00  0.00    +0.000 HD
ENDBRANCH  17  25
ENDBRANCH  16  17
ENDBRANCH   1  16
TORSDOF 5
ENDMDL
MODEL 7
REMARK VINA RESULT:      -7.6      1.341      1.672
REMARK  Name = 
REMARK  6 active torsions:
REMARK  status: ('A' for Active; 'I' for Inactive)
REMARK    1  A    between atoms: C_1  and  C_2
REMARK    2  A    between atoms: C_2  and  C_3
REMARK    3  A    between atoms: C_2  and  C_16
REMARK    4  A    between atoms: C_6  and  C_7
REMARK    5  A    between atoms: C_16  and  N_17
REMARK    6  A    between atoms: C_16  and  C_18
REMARK                            x       y       z     vdW  Elec       q    Type
REMARK                         _______ _______ _______ _____ _____    ______ ____
ROOT
ATOM      1  C   UNL     1       2.443   4.928  19.188  0.00  0.00    +0.000 A 
ATOM      2  N   UNL     1       2.392   4.646  20.492  0.00  0.00    +0.000 NA
ATOM      3  N   UNL     1       2.031   5.821  21.014  0.00  0.00    +0.000 N 
ATOM      4  C   UNL     1       1.907   6.807  20.071  0.00  0.00    +0.000 A 
ATOM      5  N   UNL     1       2.240   6.268  18.907  0.00  0.00    +0.000 NA
ATOM      6  H   UNL     1       1.835   5.881  22.005  0.00  0.00    +0.000 HD
ENDROOT
BRANCH   4   7
ATOM      7  C   UNL     1       1.405   8.172  20.345  0.00  0.00    +0.000 A 
ATOM      8  C   UNL     1       1.047   8.516  21.665  0.00  0.00    +0.000 A 
ATOM      9  C   UNL     1       0.689   9.831  22.009  0.00  0.00    +0.000 A 
ATOM     10  C   UNL     1       0.677  10.824  21.037  0.00  0.00    +0.000 A 
ATOM     11 CL   UNL     1       0.309  12.450  21.459  0.00  0.00    +0.000 Cl
ATOM     12  C   UNL     1       0.981  10.510  19.720  0.00  0.00    +0.000 A 
ATOM     13  C   UNL     1       1.336   9.198  19.374  0.00  0.00    +0.000 A 
ATOM     14 CL   UNL     1       1.712   8.962  17.697  0.00  0.00    +0.000 Cl
ENDBRANCH   4   7
BRANCH   1  16
ATOM     15  C   UNL     1       2.655   2.461  18.707  0.00  0.00    +0.000 C 
ATOM     16  C   UNL     1       2.882   3.889  18.195  0.00  0.00    +0.000 C 
BRANCH  16  17
ATOM     17  C   UNL     1       4.268   4.082  17.508  0.00  0.00    +0.000 C 
BRANCH  17  18
ATOM     18  C   UNL     1       5.389   4.374  18.534  0.00  0.00    +0.000 C 
ATOM     19  O   UNL     1       5.648   3.557  19.427  0.00  0.00    +0.000 OA
ATOM     20  N   UNL     1       6.136   5.525  18.372  0.00  0.00    +0.000 N 
ATOM     21  C   UNL     1       6.105   6.442  17.244  0.00  0.00    +0.000 C 
ATOM     22  C   UNL     1       7.536   6.923  17.137  0.00  0.00    +0.000 C 
ATOM     23  C   UNL     1       7.979   6.999  18.590  0.00  0.00    +0.000 C 
ATOM     24  C   UNL     1       7.258   5.818  19.247  0.00  0.00    +0.000 C 
ENDBRANCH  17  18
BRANCH  17  25
ATOM     25  N   UNL     1       4.835   3.149  16.507  0.00  0.00    +0.000 NA
ATOM     26  H   UNL     1       5.437   3.702  15.891  0.00  0.00    +0.000 HD
ATOM     27  H   UNL     1       5.387   2.434  16.970  0.00  0.00    +0.000 HD
ENDBRANCH  17  25
ENDBRANCH  16  17
ENDBRANCH   1  16
TORSDOF 5
ENDMDL
MODEL 8
REMARK VINA RESULT:      -7.5      1.968      3.906
REMARK  Name = 
REMARK  6 active torsions:
REMARK  status: ('A' for Active; 'I' for Inactive)
REMARK    1  A    between atoms: C_1  and  C_2
REMARK    2  A    between atoms: C_2  and  C_3
REMARK    3  A    between atoms: C_2  and  C_16
REMARK    4  A    between atoms: C_6  and  C_7
REMARK    5  A    between atoms: C_16  and  N_17
REMARK    6  A    between atoms: C_16  and  C_18
REMARK                            x       y       z     vdW  Elec       q    Type
REMARK                         _______ _______ _______ _____ _____    ______ ____
ROOT
ATOM      1  C   UNL     1       3.575   7.229  18.035  0.00  0.00    +0.000 A 
ATOM      2  N   UNL     1       3.028   7.965  17.064  0.00  0.00    +0.000 NA
ATOM      3  N   UNL     1       2.057   8.607  17.718  0.00  0.00    +0.000 N 
ATOM      4  C   UNL     1       1.977   8.248  19.038  0.00  0.00    +0.000 A 
ATOM      5  N   UNL     1       2.894   7.311  19.237  0.00  0.00    +0.000 NA
ATOM      6  H   UNL     1       1.517   9.312  17.233  0.00  0.00    +0.000 HD
ENDROOT
BRANCH   4   7
ATOM      7  C   UNL     1       1.079   8.883  20.028  0.00  0.00    +0.000 A 
ATOM      8  C   UNL     1       1.285   8.630  21.400  0.00  0.00    +0.000 A 
ATOM      9  C   UNL     1       0.551   9.305  22.390  0.00  0.00    +0.000 A 
ATOM     10  C   UNL     1      -0.408  10.242  22.025  0.00  0.00    +0.000 A 
ATOM     11 CL   UNL     1      -1.264  11.125  23.226  0.00  0.00    +0.000 Cl
ATOM     12  C   UNL     1      -0.667  10.484  20.682  0.00  0.00    +0.000 A 
ATOM     13  C   UNL     1       0.063   9.808  19.693  0.00  0.00    +0.000 A 
ATOM     14 CL   UNL     1      -0.354  10.230  18.063  0.00  0.00    +0.000 Cl
ENDBRANCH   4   7
BRANCH   1  16
ATOM     15  C   UNL     1       4.999   6.184  16.234  0.00  0.00    +0.000 C 
ATOM     16  C   UNL     1       4.694   6.272  17.734  0.00  0.00    +0.000 C 
BRANCH  16  17
ATOM     17  C   UNL     1       4.668   4.881  18.438  0.00  0.00    +0.000 C 
BRANCH  17  18
ATOM     18  C   UNL     1       3.401   4.070  18.075  0.00  0.00    +0.000 C 
ATOM     19  O   UNL     1       3.285   3.561  16.953  0.00  0.00    +0.000 OA
ATOM     20  N   UNL     1       2.454   3.866  19.060  0.00  0.00    +0.000 N 
ATOM     21  C   UNL     1       2.569   4.194  20.472  0.00  0.00    +0.000 C 
ATOM     22  C   UNL     1       1.786   3.094  21.157  0.00  0.00    +0.000 C 
ATOM     23  C   UNL     1       0.643   2.837  20.189  0.00  0.00    +0.000 C 
ATOM     24  C   UNL     1       1.284   3.043  18.813  0.00  0.00    +0.000 C 
ENDBRANCH  17  18
BRANCH  17  25
ATOM     25  N   UNL     1       5.803   3.930  18.437  0.00  0.00    +0.000 NA
ATOM     26  H   UNL     1       5.451   3.045  18.812  0.00  0.00    +0.000 HD
ATOM     27  H   UNL     1       6.138   3.788  17.488  0.00  0.00    +0.000 HD
ENDBRANCH  17  25
ENDBRANCH  16  17
ENDBRANCH   1  16
TORSDOF 5
ENDMDL
MODEL 9
REMARK VINA RESULT:      -7.3      4.012      8.891
REMARK  Name = 
REMARK  6 active torsions:
REMARK  status: ('A' for Active; 'I' for Inactive)
REMARK    1  A    between atoms: C_1  and  C_2
REMARK    2  A    between atoms: C_2  and  C_3
REMARK    3  A    between atoms: C_2  and  C_16
REMARK    4  A    between atoms: C_6  and  C_7
REMARK    5  A    between atoms: C_16  and  N_17
REMARK    6  A    between atoms: C_16  and  C_18
REMARK                            x       y       z     vdW  Elec       q    Type
REMARK                         _______ _______ _______ _____ _____    ______ ____
ROOT
ATOM      1  C   UNL     1       0.929   9.095  19.766  0.00  0.00    +0.000 A 
ATOM      2  N   UNL     1       1.385   8.478  20.858  0.00  0.00    +0.000 NA
ATOM      3  N   UNL     1       2.178   7.539  20.334  0.00  0.00    +0.000 N 
ATOM      4  C   UNL     1       2.177   7.546  18.964  0.00  0.00    +0.000 A 
ATOM      5  N   UNL     1       1.325   8.488  18.586  0.00  0.00    +0.000 NA
ATOM      6  H   UNL     1       2.731   6.959  20.952  0.00  0.00    +0.000 HD
ENDROOT
BRANCH   4   7
ATOM      7  C   UNL     1       3.051   6.701  18.120  0.00  0.00    +0.000 A 
ATOM      8  C   UNL     1       4.124   7.303  17.429  0.00  0.00    +0.000 A 
ATOM      9  C   UNL     1       5.063   6.536  16.721  0.00  0.00    +0.000 A 
ATOM     10  C   UNL     1       4.943   5.152  16.684  0.00  0.00    +0.000 A 
ATOM     11 CL   UNL     1       6.125   4.197  15.879  0.00  0.00    +0.000 Cl
ATOM     12  C   UNL     1       3.875   4.530  17.317  0.00  0.00    +0.000 A 
ATOM     13  C   UNL     1       2.935   5.296  18.023  0.00  0.00    +0.000 A 
ATOM     14 CL   UNL     1       1.671   4.380  18.781  0.00  0.00    +0.000 Cl
ENDBRANCH   4   7
BRANCH   1  16
ATOM     15  C   UNL     1      -0.547  10.704  18.504  0.00  0.00    +0.000 C 
ATOM     16  C   UNL     1      -0.074  10.209  19.876  0.00  0.00    +0.000 C 
BRANCH  16  17
ATOM     17  C   UNL     1       0.233  11.366  20.875  0.00  0.00    +0.000 C 
BRANCH  17  18
ATOM     18  C   UNL     1      -0.629  11.270  22.157  0.00  0.00    +0.000 C 
ATOM     19  O   UNL     1      -0.196  10.688  23.160  0.00  0.00    +0.000 OA
ATOM     20  N   UNL     1      -1.848  11.919  22.172  0.00  0.00    +0.000 N 
ATOM     21  C   UNL     1      -2.371  12.832  21.167  0.00  0.00    +0.000 C 
ATOM     22  C   UNL     1      -3.177  13.827  21.976  0.00  0.00    +0.000 C 
ATOM     23  C   UNL     1      -3.771  12.966  23.079  0.00  0.00    +0.000 C 
ATOM     24  C   UNL     1      -2.669  11.943  23.370  0.00  0.00    +0.000 C 
ENDBRANCH  17  18
BRANCH  17  25
ATOM     25  N   UNL     1       1.597  11.752  21.302  0.00  0.00    +0.000 NA
ATOM     26  H   UNL     1       1.601  12.771  21.400  0.00  0.00    +0.000 HD
ATOM     27  H   UNL     1       1.817  11.323  22.196  0.00  0.00    +0.000 HD
ENDBRANCH  17  25
ENDBRANCH  16  17
ENDBRANCH   1  16
TORSDOF 5
ENDMDL
