MODEL 1
REMARK VINA RESULT:      -8.0      0.000      0.000
REMARK  Name = 
REMARK  5 active torsions:
REMARK  status: ('A' for Active; 'I' for Inactive)
REMARK    1  A    between atoms: C_1  and  C_2
REMARK    2  A    between atoms: C_9  and  S_10
REMARK    3  A    between atoms: S_10  and  N_13
REMARK    4  A    between atoms: N_13  and  C_14
REMARK    5  A    between atoms: C_20  and  C_21
REMARK                            x       y       z     vdW  Elec       q    Type
REMARK                         _______ _______ _______ _____ _____    ______ ____
ROOT
ATOM      1  S   UNL     1       5.084   4.580  18.815  0.00  0.00    +0.000 S 
ATOM      2  O   UNL     1       5.205   3.196  19.231  0.00  0.00    +0.000 OA
ATOM      3  O   UNL     1       5.522   5.580  19.768  0.00  0.00    +0.000 OA
ENDROOT
BRANCH   1  12
ATOM      4  C   UNL     1       7.735   6.260  18.189  0.00  0.00    +0.000 C 
ATOM      5  C   UNL     1       6.971   5.537  17.113  0.00  0.00    +0.000 A 
ATOM      6  N   UNL     1       7.518   5.672  15.848  0.00  0.00    +0.000 N 
ATOM      7  C   UNL     1       7.009   5.110  14.714  0.00  0.00    +0.000 A 
ATOM      8  O   UNL     1       7.541   5.261  13.621  0.00  0.00    +0.000 OA
ATOM      9  N   UNL     1       5.881   4.372  14.886  0.00  0.00    +0.000 N 
ATOM     10  C   UNL     1       5.235   4.175  16.079  0.00  0.00    +0.000 A 
ATOM     11  O   UNL     1       4.220   3.491  16.102  0.00  0.00    +0.000 OA
ATOM     12  C   UNL     1       5.847   4.804  17.273  0.00  0.00    +0.000 A 
ATOM     13  H   UNL     1       8.354   6.230  15.702  0.00  0.00    +0.000 HD
ATOM     14  H   UNL     1       5.474   3.950  14.066  0.00  0.00    +0.000 HD
ENDBRANCH   1  12
BRANCH   1  15
ATOM     15  N   UNL     1       3.389   4.788  18.636  0.00  0.00    +0.000 N 
ATOM     16  H   UNL     1       2.946   4.075  19.222  0.00  0.00    +0.000 HD
BRANCH  15  17
ATOM     17  C   UNL     1       2.842   6.099  18.833  0.00  0.00    +0.000 A 
ATOM     18  C   UNL     1       3.070   7.018  17.798  0.00  0.00    +0.000 A 
ATOM     19  C   UNL     1       2.585   8.319  17.883  0.00  0.00    +0.000 A 
ATOM     20  C   UNL     1       1.858   8.704  19.003  0.00  0.00    +0.000 A 
ATOM     21  C   UNL     1       1.609   7.789  20.033  0.00  0.00    +0.000 A 
ATOM     22 CL   UNL     1       0.636   8.360  21.347  0.00  0.00    +0.000 Cl
ATOM     23  C   UNL     1       2.106   6.469  19.977  0.00  0.00    +0.000 A 
ATOM     24  C   UNL     1       1.767   5.473  21.054  0.00  0.00    +0.000 C 
ENDBRANCH  15  17
ENDBRANCH   1  15
TORSDOF 3
ENDMDL
MODEL 2
REMARK VINA RESULT:      -8.0      2.761      3.810
REMARK  Name = 
REMARK  5 active torsions:
REMARK  status: ('A' for Active; 'I' for Inactive)
REMARK    1  A    between atoms: C_1  and  C_2
REMARK    2  A    between atoms: C_9  and  S_10
REMARK    3  A    between atoms: S_10  and  N_13
REMARK    4  A    between atoms: N_13  and  C_14
REMARK    5  A    between atoms: C_20  and  C_21
REMARK                            x       y       z     vdW  Elec       q    Type
REMARK                         _______ _______ _______ _____ _____    ______ ____
ROOT
ATOM      1  S   UNL     1       5.724   5.006  19.107  0.00  0.00    +0.000 S 
ATOM      2  O   UNL     1       6.877   5.232  19.958  0.00  0.00    +0.000 OA
ATOM      3  O   UNL     1       4.537   5.779  19.411  0.00  0.00    +0.000 OA
ENDROOT
BRANCH   1  12
ATOM      4  C   UNL     1       4.097   6.517  16.803  0.00  0.00    +0.000 C 
ATOM      5  C   UNL     1       5.415   5.838  16.541  0.00  0.00    +0.000 A 
ATOM      6  N   UNL     1       5.842   5.928  15.227  0.00  0.00    +0.000 N 
ATOM      7  C   UNL     1       7.002   5.395  14.746  0.00  0.00    +0.000 A 
ATOM      8  O   UNL     1       7.330   5.512  13.572  0.00  0.00    +0.000 OA
ATOM      9  N   UNL     1       7.762   4.735  15.659  0.00  0.00    +0.000 N 
ATOM     10  C   UNL     1       7.444   4.563  16.981  0.00  0.00    +0.000 A 
ATOM     11  O   UNL     1       8.212   3.942  17.705  0.00  0.00    +0.000 OA
ATOM     12  C   UNL     1       6.175   5.177  17.441  0.00  0.00    +0.000 A 
ATOM     13  H   UNL     1       5.280   6.408  14.531  0.00  0.00    +0.000 HD
ATOM     14  H   UNL     1       8.622   4.322  15.334  0.00  0.00    +0.000 HD
ENDBRANCH   1  12
BRANCH   1  15
ATOM     15  N   UNL     1       5.327   3.364  19.414  0.00  0.00    +0.000 N 
ATOM     16  H   UNL     1       6.024   3.015  20.076  0.00  0.00    +0.000 HD
BRANCH  15  17
ATOM     17  C   UNL     1       3.980   3.052  19.798  0.00  0.00    +0.000 A 
ATOM     18  C   UNL     1       3.731   3.020  21.178  0.00  0.00    +0.000 A 
ATOM     19  C   UNL     1       2.461   2.728  21.664  0.00  0.00    +0.000 A 
ATOM     20  C   UNL     1       1.429   2.476  20.768  0.00  0.00    +0.000 A 
ATOM     21  C   UNL     1       1.663   2.524  19.389  0.00  0.00    +0.000 A 
ATOM     22 CL   UNL     1       0.289   2.260  18.368  0.00  0.00    +0.000 Cl
ATOM     23  C   UNL     1       2.947   2.801  18.873  0.00  0.00    +0.000 A 
ATOM     24  C   UNL     1       3.170   2.925  17.389  0.00  0.00    +0.000 C 
ENDBRANCH  15  17
ENDBRANCH   1  15
TORSDOF 3
ENDMDL
MODEL 3
REMARK VINA RESULT:      -7.9      2.703      3.616
REMARK  Name = 
REMARK  5 active torsions:
REMARK  status: ('A' for Active; 'I' for Inactive)
REMARK    1  A    between atoms: C_1  and  C_2
REMARK    2  A    between atoms: C_9  and  S_10
REMARK    3  A    between atoms: S_10  and  N_13
REMARK    4  A    between atoms: N_13  and  C_14
REMARK    5  A    between atoms: C_20  and  C_21
REMARK                            x       y       z     vdW  Elec       q    Type
REMARK                         _______ _______ _______ _____ _____    ______ ____
ROOT
ATOM      1  S   UNL     1       6.000   4.660  17.695  0.00  0.00    +0.000 S 
ATOM      2  O   UNL     1       6.508   3.926  16.551  0.00  0.00    +0.000 OA
ATOM      3  O   UNL     1       5.928   3.933  18.946  0.00  0.00    +0.000 OA
ENDROOT
BRANCH   1  12
ATOM      4  C   UNL     1       8.267   5.319  19.856  0.00  0.00    +0.000 C 
ATOM      5  C   UNL     1       7.819   6.326  18.830  0.00  0.00    +0.000 A 
ATOM      6  N   UNL     1       8.471   7.545  18.918  0.00  0.00    +0.000 N 
ATOM      7  C   UNL     1       8.240   8.613  18.101  0.00  0.00    +0.000 A 
ATOM      8  O   UNL     1       8.853   9.666  18.223  0.00  0.00    +0.000 OA
ATOM      9  N   UNL     1       7.292   8.421  17.146  0.00  0.00    +0.000 N 
ATOM     10  C   UNL     1       6.567   7.272  16.967  0.00  0.00    +0.000 A 
ATOM     11  O   UNL     1       5.733   7.225  16.071  0.00  0.00    +0.000 OA
ATOM     12  C   UNL     1       6.875   6.147  17.881  0.00  0.00    +0.000 A 
ATOM     13  H   UNL     1       9.173   7.707  19.633  0.00  0.00    +0.000 HD
ATOM     14  H   UNL     1       7.090   9.194  16.531  0.00  0.00    +0.000 HD
ENDBRANCH   1  12
BRANCH   1  15
ATOM     15  N   UNL     1       4.382   5.015  17.245  0.00  0.00    +0.000 N 
ATOM     16  H   UNL     1       4.176   4.440  16.424  0.00  0.00    +0.000 HD
BRANCH  15  17
ATOM     17  C   UNL     1       3.365   4.940  18.254  0.00  0.00    +0.000 A 
ATOM     18  C   UNL     1       3.221   6.078  19.061  0.00  0.00    +0.000 A 
ATOM     19  C   UNL     1       2.266   6.116  20.072  0.00  0.00    +0.000 A 
ATOM     20  C   UNL     1       1.442   5.016  20.273  0.00  0.00    +0.000 A 
ATOM     21  C   UNL     1       1.565   3.883  19.461  0.00  0.00    +0.000 A 
ATOM     22 CL   UNL     1       0.441   2.599  19.759  0.00  0.00    +0.000 Cl
ATOM     23  C   UNL     1       2.538   3.814  18.440  0.00  0.00    +0.000 A 
ATOM     24  C   UNL     1       2.610   2.621  17.525  0.00  0.00    +0.000 C 
ENDBRANCH  15  17
ENDBRANCH   1  15
TORSDOF 3
ENDMDL
MODEL 4
REMARK VINA RESULT:      -7.8      2.781      3.848
REMARK  Name = 
REMARK  5 active torsions:
REMARK  status: ('A' for Active; 'I' for Inactive)
REMARK    1  A    between atoms: C_1  and  C_2
REMARK    2  A    between atoms: C_9  and  S_10
REMARK    3  A    between atoms: S_10  and  N_13
REMARK    4  A    between atoms: N_13  and  C_14
REMARK    5  A    between atoms: C_20  and  C_21
REMARK                            x       y       z     vdW  Elec       q    Type
REMARK                         _______ _______ _______ _____ _____    ______ ____
ROOT
ATOM      1  S   UNL     1       6.197   4.672  17.694  0.00  0.00    +0.000 S 
ATOM      2  O   UNL     1       6.797   3.938  16.596  0.00  0.00    +0.000 OA
ATOM      3  O   UNL     1       6.069   3.962  18.950  0.00  0.00    +0.000 OA
ENDROOT
BRANCH   1  12
ATOM      4  C   UNL     1       8.374   5.402  19.923  0.00  0.00    +0.000 C 
ATOM      5  C   UNL     1       7.923   6.397  18.887  0.00  0.00    +0.000 A 
ATOM      6  N   UNL     1       8.529   7.636  18.996  0.00  0.00    +0.000 N 
ATOM      7  C   UNL     1       8.286   8.698  18.175  0.00  0.00    +0.000 A 
ATOM      8  O   UNL     1       8.858   9.771  18.318  0.00  0.00    +0.000 OA
ATOM      9  N   UNL     1       7.374   8.477  17.192  0.00  0.00    +0.000 N 
ATOM     10  C   UNL     1       6.695   7.304  16.989  0.00  0.00    +0.000 A 
ATOM     11  O   UNL     1       5.891   7.232  16.068  0.00  0.00    +0.000 OA
ATOM     12  C   UNL     1       7.014   6.187  17.909  0.00  0.00    +0.000 A 
ATOM     13  H   UNL     1       9.203   7.820  19.733  0.00  0.00    +0.000 HD
ATOM     14  H   UNL     1       7.165   9.244  16.573  0.00  0.00    +0.000 HD
ENDBRANCH   1  12
BRANCH   1  15
ATOM     15  N   UNL     1       4.600   4.970  17.139  0.00  0.00    +0.000 N 
ATOM     16  H   UNL     1       4.626   4.886  16.120  0.00  0.00    +0.000 HD
BRANCH  15  17
ATOM     17  C   UNL     1       3.525   4.233  17.738  0.00  0.00    +0.000 A 
ATOM     18  C   UNL     1       3.309   2.945  17.227  0.00  0.00    +0.000 A 
ATOM     19  C   UNL     1       2.293   2.141  17.733  0.00  0.00    +0.000 A 
ATOM     20  C   UNL     1       1.493   2.620  18.763  0.00  0.00    +0.000 A 
ATOM     21  C   UNL     1       1.713   3.897  19.293  0.00  0.00    +0.000 A 
ATOM     22 CL   UNL     1       0.699   4.364  20.618  0.00  0.00    +0.000 Cl
ATOM     23  C   UNL     1       2.726   4.738  18.784  0.00  0.00    +0.000 A 
ATOM     24  C   UNL     1       3.002   6.078  19.411  0.00  0.00    +0.000 C 
ENDBRANCH  15  17
ENDBRANCH   1  15
TORSDOF 3
ENDMDL
MODEL 5
REMARK VINA RESULT:      -7.7      2.502      3.596
REMARK  Name = 
REMARK  5 active torsions:
REMARK  status: ('A' for Active; 'I' for Inactive)
REMARK    1  A    between atoms: C_1  and  C_2
REMARK    2  A    between atoms: C_9  and  S_10
REMARK    3  A    between atoms: S_10  and  N_13
REMARK    4  A    between atoms: N_13  and  C_14
REMARK    5  A    between atoms: C_20  and  C_21
REMARK                            x       y       z     vdW  Elec       q    Type
REMARK                         _______ _______ _______ _____ _____    ______ ____
ROOT
ATOM      1  S   UNL     1       5.774   4.336  17.653  0.00  0.00    +0.000 S 
ATOM      2  O   UNL     1       6.178   3.629  16.453  0.00  0.00    +0.000 OA
ATOM      3  O   UNL     1       5.895   3.610  18.901  0.00  0.00    +0.000 OA
ENDROOT
BRANCH   1  12
ATOM      4  C   UNL     1       5.168   6.947  15.904  0.00  0.00    +0.000 C 
ATOM      5  C   UNL     1       6.250   6.916  16.951  0.00  0.00    +0.000 A 
ATOM      6  N   UNL     1       6.946   8.106  17.075  0.00  0.00    +0.000 N 
ATOM      7  C   UNL     1       7.968   8.325  17.952  0.00  0.00    +0.000 A 
ATOM      8  O   UNL     1       8.544   9.403  18.021  0.00  0.00    +0.000 OA
ATOM      9  N   UNL     1       8.292   7.267  18.742  0.00  0.00    +0.000 N 
ATOM     10  C   UNL     1       7.692   6.035  18.706  0.00  0.00    +0.000 A 
ATOM     11  O   UNL     1       8.080   5.159  19.468  0.00  0.00    +0.000 OA
ATOM     12  C   UNL     1       6.582   5.869  17.737  0.00  0.00    +0.000 A 
ATOM     13  H   UNL     1       6.723   8.901  16.484  0.00  0.00    +0.000 HD
ATOM     14  H   UNL     1       9.049   7.392  19.396  0.00  0.00    +0.000 HD
ENDBRANCH   1  12
BRANCH   1  15
ATOM     15  N   UNL     1       4.096   4.601  17.405  0.00  0.00    +0.000 N 
ATOM     16  H   UNL     1       3.771   3.850  16.791  0.00  0.00    +0.000 HD
BRANCH  15  17
ATOM     17  C   UNL     1       3.262   4.787  18.557  0.00  0.00    +0.000 A 
ATOM     18  C   UNL     1       3.062   6.117  18.958  0.00  0.00    +0.000 A 
ATOM     19  C   UNL     1       2.271   6.415  20.063  0.00  0.00    +0.000 A 
ATOM     20  C   UNL     1       1.666   5.381  20.767  0.00  0.00    +0.000 A 
ATOM     21  C   UNL     1       1.843   4.053  20.364  0.00  0.00    +0.000 A 
ATOM     22 CL   UNL     1       0.987   2.853  21.275  0.00  0.00    +0.000 Cl
ATOM     23  C   UNL     1       2.656   3.724  19.257  0.00  0.00    +0.000 A 
ATOM     24  C   UNL     1       2.778   2.299  18.787  0.00  0.00    +0.000 C 
ENDBRANCH  15  17
ENDBRANCH   1  15
TORSDOF 3
ENDMDL
MODEL 6
REMARK VINA RESULT:      -7.7      2.565      3.426
REMARK  Name = 
REMARK  5 active torsions:
REMARK  status: ('A' for Active; 'I' for Inactive)
REMARK    1  A    between atoms: C_1  and  C_2
REMARK    2  A    between atoms: C_9  and  S_10
REMARK    3  A    between atoms: S_10  and  N_13
REMARK    4  A    between atoms: N_13  and  C_14
REMARK    5  A    between atoms: C_20  and  C_21
REMARK                            x       y       z     vdW  Elec       q    Type
REMARK                         _______ _______ _______ _____ _____    ______ ____
ROOT
ATOM      1  S   UNL     1       5.878   5.226  19.146  0.00  0.00    +0.000 S 
ATOM      2  O   UNL     1       7.081   5.399  19.939  0.00  0.00    +0.000 OA
ATOM      3  O   UNL     1       4.770   6.106  19.457  0.00  0.00    +0.000 OA
ENDROOT
BRANCH   1  12
ATOM      4  C   UNL     1       4.220   6.663  16.817  0.00  0.00    +0.000 C 
ATOM      5  C   UNL     1       5.500   5.917  16.548  0.00  0.00    +0.000 A 
ATOM      6  N   UNL     1       5.877   5.911  15.216  0.00  0.00    +0.000 N 
ATOM      7  C   UNL     1       6.996   5.304  14.725  0.00  0.00    +0.000 A 
ATOM      8  O   UNL     1       7.282   5.337  13.535  0.00  0.00    +0.000 OA
ATOM      9  N   UNL     1       7.766   4.669  15.648  0.00  0.00    +0.000 N 
ATOM     10  C   UNL     1       7.494   4.589  16.989  0.00  0.00    +0.000 A 
ATOM     11  O   UNL     1       8.266   3.981  17.719  0.00  0.00    +0.000 OA
ATOM     12  C   UNL     1       6.269   5.280  17.457  0.00  0.00    +0.000 A 
ATOM     13  H   UNL     1       5.306   6.371  14.513  0.00  0.00    +0.000 HD
ATOM     14  H   UNL     1       8.596   4.203  15.317  0.00  0.00    +0.000 HD
ENDBRANCH   1  12
BRANCH   1  15
ATOM     15  N   UNL     1       5.368   3.638  19.553  0.00  0.00    +0.000 N 
ATOM     16  H   UNL     1       5.515   3.534  20.560  0.00  0.00    +0.000 HD
BRANCH  15  17
ATOM     17  C   UNL     1       4.065   3.215  19.128  0.00  0.00    +0.000 A 
ATOM     18  C   UNL     1       4.002   2.603  17.867  0.00  0.00    +0.000 A 
ATOM     19  C   UNL     1       2.789   2.154  17.354  0.00  0.00    +0.000 A 
ATOM     20  C   UNL     1       1.632   2.307  18.108  0.00  0.00    +0.000 A 
ATOM     21  C   UNL     1       1.687   2.899  19.375  0.00  0.00    +0.000 A 
ATOM     22 CL   UNL     1       0.195   2.975  20.251  0.00  0.00    +0.000 Cl
ATOM     23  C   UNL     1       2.903   3.378  19.909  0.00  0.00    +0.000 A 
ATOM     24  C   UNL     1       2.961   3.943  21.303  0.00  0.00    +0.000 C 
ENDBRANCH  15  17
ENDBRANCH   1  15
TORSDOF 3
ENDMDL
MODEL 7
REMARK VINA RESULT:      -7.7      2.923      3.077
REMARK  Name = 
REMARK  5 active torsions:
REMARK  status: ('A' for Active; 'I' for Inactive)
REMARK    1  A    between atoms: C_1  and  C_2
REMARK    2  A    between atoms: C_9  and  S_10
REMARK    3  A    between atoms: S_10  and  N_13
REMARK    4  A    between atoms: N_13  and  C_14
REMARK    5  A    between atoms: C_20  and  C_21
REMARK                            x       y       z     vdW  Elec       q    Type
REMARK                         _______ _______ _______ _____ _____    ______ ____
ROOT
ATOM      1  S   UNL     1       5.462   4.612  18.155  0.00  0.00    +0.000 S 
ATOM      2  O   UNL     1       6.459   4.375  19.183  0.00  0.00    +0.000 OA
ATOM      3  O   UNL     1       4.482   5.642  18.433  0.00  0.00    +0.000 OA
ENDROOT
BRANCH   1  12
ATOM      4  C   UNL     1       7.483   6.975  17.396  0.00  0.00    +0.000 C 
ATOM      5  C   UNL     1       7.082   5.914  16.406  0.00  0.00    +0.000 A 
ATOM      6  N   UNL     1       7.660   6.063  15.157  0.00  0.00    +0.000 N 
ATOM      7  C   UNL     1       7.453   5.230  14.097  0.00  0.00    +0.000 A 
ATOM      8  O   UNL     1       7.998   5.410  13.016  0.00  0.00    +0.000 OA
ATOM      9  N   UNL     1       6.608   4.191  14.330  0.00  0.00    +0.000 N 
ATOM     10  C   UNL     1       5.962   3.944  15.513  0.00  0.00    +0.000 A 
ATOM     11  O   UNL     1       5.219   2.974  15.596  0.00  0.00    +0.000 OA
ATOM     12  C   UNL     1       6.240   4.881  16.627  0.00  0.00    +0.000 A 
ATOM     13  H   UNL     1       8.284   6.841  14.965  0.00  0.00    +0.000 HD
ATOM     14  H   UNL     1       6.426   3.562  13.565  0.00  0.00    +0.000 HD
ENDBRANCH   1  12
BRANCH   1  15
ATOM     15  N   UNL     1       4.604   3.127  18.093  0.00  0.00    +0.000 N 
ATOM     16  H   UNL     1       5.237   2.409  18.455  0.00  0.00    +0.000 HD
BRANCH  15  17
ATOM     17  C   UNL     1       3.297   3.073  18.682  0.00  0.00    +0.000 A 
ATOM     18  C   UNL     1       2.228   3.370  17.824  0.00  0.00    +0.000 A 
ATOM     19  C   UNL     1       0.917   3.349  18.289  0.00  0.00    +0.000 A 
ATOM     20  C   UNL     1       0.669   3.020  19.616  0.00  0.00    +0.000 A 
ATOM     21  C   UNL     1       1.728   2.704  20.475  0.00  0.00    +0.000 A 
ATOM     22 CL   UNL     1       1.296   2.244  22.089  0.00  0.00    +0.000 Cl
ATOM     23  C   UNL     1       3.067   2.736  20.031  0.00  0.00    +0.000 A 
ATOM     24  C   UNL     1       4.191   2.320  20.943  0.00  0.00    +0.000 C 
ENDBRANCH  15  17
ENDBRANCH   1  15
TORSDOF 3
ENDMDL
MODEL 8
REMARK VINA RESULT:      -7.7      0.936      1.753
REMARK  Name = 
REMARK  5 active torsions:
REMARK  status: ('A' for Active; 'I' for Inactive)
REMARK    1  A    between atoms: C_1  and  C_2
REMARK    2  A    between atoms: C_9  and  S_10
REMARK    3  A    between atoms: S_10  and  N_13
REMARK    4  A    between atoms: N_13  and  C_14
REMARK    5  A    between atoms: C_20  and  C_21
REMARK                            x       y       z     vdW  Elec       q    Type
REMARK                         _______ _______ _______ _____ _____    ______ ____
ROOT
ATOM      1  S   UNL     1       5.017   4.656  18.925  0.00  0.00    +0.000 S 
ATOM      2  O   UNL     1       5.184   3.296  19.403  0.00  0.00    +0.000 OA
ATOM      3  O   UNL     1       5.417   5.712  19.834  0.00  0.00    +0.000 OA
ENDROOT
BRANCH   1  12
ATOM      4  C   UNL     1       7.679   6.300  18.254  0.00  0.00    +0.000 C 
ATOM      5  C   UNL     1       6.908   5.556  17.197  0.00  0.00    +0.000 A 
ATOM      6  N   UNL     1       7.453   5.657  15.928  0.00  0.00    +0.000 N 
ATOM      7  C   UNL     1       6.937   5.072  14.809  0.00  0.00    +0.000 A 
ATOM      8  O   UNL     1       7.468   5.192  13.712  0.00  0.00    +0.000 OA
ATOM      9  N   UNL     1       5.804   4.347  15.001  0.00  0.00    +0.000 N 
ATOM     10  C   UNL     1       5.159   4.184  16.200  0.00  0.00    +0.000 A 
ATOM     11  O   UNL     1       4.139   3.508  16.242  0.00  0.00    +0.000 OA
ATOM     12  C   UNL     1       5.779   4.837  17.377  0.00  0.00    +0.000 A 
ATOM     13  H   UNL     1       8.292   6.205  15.767  0.00  0.00    +0.000 HD
ATOM     14  H   UNL     1       5.392   3.908  14.193  0.00  0.00    +0.000 HD
ENDBRANCH   1  12
BRANCH   1  15
ATOM     15  N   UNL     1       3.317   4.797  18.734  0.00  0.00    +0.000 N 
ATOM     16  H   UNL     1       2.906   3.961  19.155  0.00  0.00    +0.000 HD
BRANCH  15  17
ATOM     17  C   UNL     1       2.685   6.012  19.162  0.00  0.00    +0.000 A 
ATOM     18  C   UNL     1       2.064   5.967  20.419  0.00  0.00    +0.000 A 
ATOM     19  C   UNL     1       1.419   7.087  20.934  0.00  0.00    +0.000 A 
ATOM     20  C   UNL     1       1.403   8.264  20.195  0.00  0.00    +0.000 A 
ATOM     21  C   UNL     1       2.036   8.324  18.948  0.00  0.00    +0.000 A 
ATOM     22 CL   UNL     1       2.009   9.860  18.148  0.00  0.00    +0.000 Cl
ATOM     23  C   UNL     1       2.681   7.196  18.397  0.00  0.00    +0.000 A 
ATOM     24  C   UNL     1       3.422   7.295  17.091  0.00  0.00    +0.000 C 
ENDBRANCH  15  17
ENDBRANCH   1  15
TORSDOF 3
ENDMDL
MODEL 9
REMARK VINA RESULT:      -7.6      3.050      3.447
REMARK  Name = 
REMARK  5 active torsions:
REMARK  status: ('A' for Active; 'I' for Inactive)
REMARK    1  A    between atoms: C_1  and  C_2
REMARK    2  A    between atoms: C_9  and  S_10
REMARK    3  A    between atoms: S_10  and  N_13
REMARK    4  A    between atoms: N_13  and  C_14
REMARK    5  A    between atoms: C_20  and  C_21
REMARK                            x       y       z     vdW  Elec       q    Type
REMARK                         _______ _______ _______ _____ _____    ______ ____
ROOT
ATOM      1  S   UNL     1       5.693   4.800  18.745  0.00  0.00    +0.000 S 
ATOM      2  O   UNL     1       6.751   4.912  19.732  0.00  0.00    +0.000 OA
ATOM      3  O   UNL     1       4.529   5.639  18.950  0.00  0.00    +0.000 OA
ENDROOT
BRANCH   1  12
ATOM      4  C   UNL     1       7.544   7.195  17.706  0.00  0.00    +0.000 C 
ATOM      5  C   UNL     1       7.122   6.061  16.811  0.00  0.00    +0.000 A 
ATOM      6  N   UNL     1       7.601   6.160  15.516  0.00  0.00    +0.000 N 
ATOM      7  C   UNL     1       7.356   5.257  14.523  0.00  0.00    +0.000 A 
ATOM      8  O   UNL     1       7.814   5.394  13.395  0.00  0.00    +0.000 OA
ATOM      9  N   UNL     1       6.579   4.200  14.876  0.00  0.00    +0.000 N 
ATOM     10  C   UNL     1       6.031   3.997  16.116  0.00  0.00    +0.000 A 
ATOM     11  O   UNL     1       5.341   3.004  16.309  0.00  0.00    +0.000 OA
ATOM     12  C   UNL     1       6.346   5.009  17.152  0.00  0.00    +0.000 A 
ATOM     13  H   UNL     1       8.174   6.949  15.234  0.00  0.00    +0.000 HD
ATOM     14  H   UNL     1       6.371   3.519  14.163  0.00  0.00    +0.000 HD
ENDBRANCH   1  12
BRANCH   1  15
ATOM     15  N   UNL     1       5.161   3.178  18.924  0.00  0.00    +0.000 N 
ATOM     16  H   UNL     1       5.920   2.672  19.387  0.00  0.00    +0.000 HD
BRANCH  15  17
ATOM     17  C   UNL     1       3.881   2.947  19.529  0.00  0.00    +0.000 A 
ATOM     18  C   UNL     1       3.880   2.812  20.925  0.00  0.00    +0.000 A 
ATOM     19  C   UNL     1       2.694   2.584  21.616  0.00  0.00    +0.000 A 
ATOM     20  C   UNL     1       1.499   2.502  20.912  0.00  0.00    +0.000 A 
ATOM     21  C   UNL     1       1.487   2.655  19.521  0.00  0.00    +0.000 A 
ATOM     22 CL   UNL     1      -0.067   2.601  18.757  0.00  0.00    +0.000 Cl
ATOM     23  C   UNL     1       2.679   2.869  18.796  0.00  0.00    +0.000 A 
ATOM     24  C   UNL     1       2.644   3.107  17.310  0.00  0.00    +0.000 C 
ENDBRANCH  15  17
ENDBRANCH   1  15
TORSDOF 3
ENDMDL
