MODEL 1
REMARK VINA RESULT:      -6.2      0.000      0.000
REMARK  Name = 
REMARK  8 active torsions:
REMARK  status: ('A' for Active; 'I' for Inactive)
REMARK    1  A    between atoms: C_1  and  O_2
REMARK    2  A    between atoms: O_2  and  C_3
REMARK    3  A    between atoms: N_5  and  C_6
REMARK    4  A    between atoms: N_5  and  C_7
REMARK    5  A    between atoms: C_7  and  O_8
REMARK    6  A    between atoms: O_8  and  C_9
REMARK    7  A    between atoms: C_12  and  N_13
REMARK    8  A    between atoms: C_14  and  C_15
REMARK                            x       y       z     vdW  Elec       q    Type
REMARK                         _______ _______ _______ _____ _____    ______ ____
ROOT
ATOM      1  C   UNL     1       5.146   5.579  18.516  0.00  0.00    +0.000 A 
ATOM      2  C   UNL     1       6.348   4.879  18.429  0.00  0.00    +0.000 A 
ATOM      3  C   UNL     1       7.087   4.862  17.244  0.00  0.00    +0.000 A 
ATOM      4  C   UNL     1       6.630   5.530  16.109  0.00  0.00    +0.000 A 
ATOM      5  C   UNL     1       5.432   6.253  16.203  0.00  0.00    +0.000 A 
ATOM      6  C   UNL     1       4.693   6.278  17.398  0.00  0.00    +0.000 A 
ENDROOT
BRANCH   4   7
ATOM      7  N   UNL     1       7.291   5.492  14.859  0.00  0.00    +0.000 N 
ATOM      8  C   UNL     1       6.948   4.708  13.766  0.00  0.00    +0.000 C 
ATOM      9  C   UNL     1       7.801   4.962  12.549  0.00  0.00    +0.000 C 
ATOM     10  O   UNL     1       6.063   3.861  13.720  0.00  0.00    +0.000 OA
ATOM     11  H   UNL     1       8.074   6.124  14.746  0.00  0.00    +0.000 HD
ENDBRANCH   4   7
BRANCH   1  12
ATOM     12  O   UNL     1       4.500   5.456  19.711  0.00  0.00    +0.000 OA
BRANCH  12  13
ATOM     13  C   UNL     1       3.127   5.824  19.741  0.00  0.00    +0.000 C 
BRANCH  13  16
ATOM     14  C   UNL     1       1.553   4.171  18.963  0.00  0.00    +0.000 C 
ATOM     15  O   UNL     1       1.627   4.615  17.821  0.00  0.00    +0.000 OA
ATOM     16  N   UNL     1       2.296   4.664  20.019  0.00  0.00    +0.000 N 
ATOM     17  C   UNL     1       2.203   4.153  21.377  0.00  0.00    +0.000 C 
BRANCH  14  19
ATOM     18  C   UNL     1       1.006   1.907  18.699  0.00  0.00    +0.000 C 
ATOM     19  O   UNL     1       0.722   3.158  19.326  0.00  0.00    +0.000 OA
ENDBRANCH  14  19
ENDBRANCH  13  16
ENDBRANCH  12  13
ENDBRANCH   1  12
TORSDOF 5
ENDMDL
MODEL 2
REMARK VINA RESULT:      -6.0      1.243      1.585
REMARK  Name = 
REMARK  8 active torsions:
REMARK  status: ('A' for Active; 'I' for Inactive)
REMARK    1  A    between atoms: C_1  and  O_2
REMARK    2  A    between atoms: O_2  and  C_3
REMARK    3  A    between atoms: N_5  and  C_6
REMARK    4  A    between atoms: N_5  and  C_7
REMARK    5  A    between atoms: C_7  and  O_8
REMARK    6  A    between atoms: O_8  and  C_9
REMARK    7  A    between atoms: C_12  and  N_13
REMARK    8  A    between atoms: C_14  and  C_15
REMARK                            x       y       z     vdW  Elec       q    Type
REMARK                         _______ _______ _______ _____ _____    ______ ____
ROOT
ATOM      1  C   UNL     1       4.915   5.630  18.652  0.00  0.00    +0.000 A 
ATOM      2  C   UNL     1       5.998   4.758  18.544  0.00  0.00    +0.000 A 
ATOM      3  C   UNL     1       6.797   4.742  17.398  0.00  0.00    +0.000 A 
ATOM      4  C   UNL     1       6.519   5.585  16.323  0.00  0.00    +0.000 A 
ATOM      5  C   UNL     1       5.444   6.477  16.441  0.00  0.00    +0.000 A 
ATOM      6  C   UNL     1       4.645   6.501  17.597  0.00  0.00    +0.000 A 
ENDROOT
BRANCH   4   7
ATOM      7  N   UNL     1       7.243   5.566  15.107  0.00  0.00    +0.000 N 
ATOM      8  C   UNL     1       6.960   4.794  13.989  0.00  0.00    +0.000 C 
ATOM      9  C   UNL     1       7.871   5.069  12.820  0.00  0.00    +0.000 C 
ATOM     10  O   UNL     1       6.085   3.942  13.889  0.00  0.00    +0.000 OA
ATOM     11  H   UNL     1       8.025   6.205  15.042  0.00  0.00    +0.000 HD
ENDBRANCH   4   7
BRANCH   1  12
ATOM     12  O   UNL     1       4.186   5.492  19.797  0.00  0.00    +0.000 OA
BRANCH  12  13
ATOM     13  C   UNL     1       2.773   5.421  19.654  0.00  0.00    +0.000 C 
BRANCH  13  16
ATOM     14  C   UNL     1       2.715   3.011  19.718  0.00  0.00    +0.000 C 
ATOM     15  O   UNL     1       3.230   3.012  20.832  0.00  0.00    +0.000 OA
ATOM     16  N   UNL     1       2.388   4.165  19.031  0.00  0.00    +0.000 N 
ATOM     17  C   UNL     1       1.791   4.172  17.706  0.00  0.00    +0.000 C 
BRANCH  14  19
ATOM     18  C   UNL     1       3.551   1.241  18.429  0.00  0.00    +0.000 C 
ATOM     19  O   UNL     1       2.421   1.880  19.024  0.00  0.00    +0.000 OA
ENDBRANCH  14  19
ENDBRANCH  13  16
ENDBRANCH  12  13
ENDBRANCH   1  12
TORSDOF 5
ENDMDL
MODEL 3
REMARK VINA RESULT:      -6.0      1.821      2.274
REMARK  Name = 
REMARK  8 active torsions:
REMARK  status: ('A' for Active; 'I' for Inactive)
REMARK    1  A    between atoms: C_1  and  O_2
REMARK    2  A    between atoms: O_2  and  C_3
REMARK    3  A    between atoms: N_5  and  C_6
REMARK    4  A    between atoms: N_5  and  C_7
REMARK    5  A    between atoms: C_7  and  O_8
REMARK    6  A    between atoms: O_8  and  C_9
REMARK    7  A    between atoms: C_12  and  N_13
REMARK    8  A    between atoms: C_14  and  C_15
REMARK                            x       y       z     vdW  Elec       q    Type
REMARK                         _______ _______ _______ _____ _____    ______ ____
ROOT
ATOM      1  C   UNL     1       4.790   5.423  17.063  0.00  0.00    +0.000 A 
ATOM      2  C   UNL     1       5.184   6.185  15.964  0.00  0.00    +0.000 A 
ATOM      3  C   UNL     1       5.711   5.579  14.820  0.00  0.00    +0.000 A 
ATOM      4  C   UNL     1       5.877   4.196  14.759  0.00  0.00    +0.000 A 
ATOM      5  C   UNL     1       5.461   3.429  15.855  0.00  0.00    +0.000 A 
ATOM      6  C   UNL     1       4.921   4.036  17.002  0.00  0.00    +0.000 A 
ENDROOT
BRANCH   4   7
ATOM      7  N   UNL     1       6.473   3.528  13.663  0.00  0.00    +0.000 N 
ATOM      8  C   UNL     1       5.881   3.266  12.434  0.00  0.00    +0.000 C 
ATOM      9  C   UNL     1       6.812   2.612  11.444  0.00  0.00    +0.000 C 
ATOM     10  O   UNL     1       4.722   3.498  12.114  0.00  0.00    +0.000 OA
ATOM     11  H   UNL     1       7.436   3.242  13.782  0.00  0.00    +0.000 HD
ENDBRANCH   4   7
BRANCH   1  12
ATOM     12  O   UNL     1       4.354   6.150  18.132  0.00  0.00    +0.000 OA
BRANCH  12  13
ATOM     13  C   UNL     1       4.446   5.533  19.410  0.00  0.00    +0.000 C 
BRANCH  13  16
ATOM     14  C   UNL     1       2.819   3.956  20.234  0.00  0.00    +0.000 C 
ATOM     15  O   UNL     1       3.630   3.041  20.133  0.00  0.00    +0.000 OA
ATOM     16  N   UNL     1       3.119   5.273  19.945  0.00  0.00    +0.000 N 
ATOM     17  C   UNL     1       2.160   6.361  20.049  0.00  0.00    +0.000 C 
BRANCH  14  19
ATOM     18  C   UNL     1       0.756   2.947  19.761  0.00  0.00    +0.000 C 
ATOM     19  O   UNL     1       1.528   3.780  20.626  0.00  0.00    +0.000 OA
ENDBRANCH  14  19
ENDBRANCH  13  16
ENDBRANCH  12  13
ENDBRANCH   1  12
TORSDOF 5
ENDMDL
MODEL 4
REMARK VINA RESULT:      -6.0      1.703      2.036
REMARK  Name = 
REMARK  8 active torsions:
REMARK  status: ('A' for Active; 'I' for Inactive)
REMARK    1  A    between atoms: C_1  and  O_2
REMARK    2  A    between atoms: O_2  and  C_3
REMARK    3  A    between atoms: N_5  and  C_6
REMARK    4  A    between atoms: N_5  and  C_7
REMARK    5  A    between atoms: C_7  and  O_8
REMARK    6  A    between atoms: O_8  and  C_9
REMARK    7  A    between atoms: C_12  and  N_13
REMARK    8  A    between atoms: C_14  and  C_15
REMARK                            x       y       z     vdW  Elec       q    Type
REMARK                         _______ _______ _______ _____ _____    ______ ____
ROOT
ATOM      1  C   UNL     1       4.417   5.314  17.384  0.00  0.00    +0.000 A 
ATOM      2  C   UNL     1       4.775   3.975  17.233  0.00  0.00    +0.000 A 
ATOM      3  C   UNL     1       5.514   3.547  16.127  0.00  0.00    +0.000 A 
ATOM      4  C   UNL     1       5.895   4.448  15.134  0.00  0.00    +0.000 A 
ATOM      5  C   UNL     1       5.554   5.798  15.296  0.00  0.00    +0.000 A 
ATOM      6  C   UNL     1       4.819   6.230  16.414  0.00  0.00    +0.000 A 
ENDROOT
BRANCH   4   7
ATOM      7  N   UNL     1       6.578   4.069  13.954  0.00  0.00    +0.000 N 
ATOM      8  C   UNL     1       6.001   3.661  12.760  0.00  0.00    +0.000 C 
ATOM      9  C   UNL     1       7.002   3.408  11.661  0.00  0.00    +0.000 C 
ATOM     10  O   UNL     1       4.808   3.485  12.544  0.00  0.00    +0.000 OA
ATOM     11  H   UNL     1       7.588   4.133  13.981  0.00  0.00    +0.000 HD
ENDBRANCH   4   7
BRANCH   1  12
ATOM     12  O   UNL     1       3.643   5.576  18.477  0.00  0.00    +0.000 OA
BRANCH  12  13
ATOM     13  C   UNL     1       2.234   5.562  18.284  0.00  0.00    +0.000 C 
BRANCH  13  16
ATOM     14  C   UNL     1       1.469   4.532  20.325  0.00  0.00    +0.000 C 
ATOM     15  O   UNL     1       1.719   5.555  20.955  0.00  0.00    +0.000 OA
ATOM     16  N   UNL     1       1.640   4.420  18.959  0.00  0.00    +0.000 N 
ATOM     17  C   UNL     1       1.359   3.206  18.209  0.00  0.00    +0.000 C 
BRANCH  14  19
ATOM     18  C   UNL     1       1.965   2.716  21.724  0.00  0.00    +0.000 C 
ATOM     19  O   UNL     1       1.012   3.386  20.899  0.00  0.00    +0.000 OA
ENDBRANCH  14  19
ENDBRANCH  13  16
ENDBRANCH  12  13
ENDBRANCH   1  12
TORSDOF 5
ENDMDL
MODEL 5
REMARK VINA RESULT:      -6.0      2.920      6.997
REMARK  Name = 
REMARK  8 active torsions:
REMARK  status: ('A' for Active; 'I' for Inactive)
REMARK    1  A    between atoms: C_1  and  O_2
REMARK    2  A    between atoms: O_2  and  C_3
REMARK    3  A    between atoms: N_5  and  C_6
REMARK    4  A    between atoms: N_5  and  C_7
REMARK    5  A    between atoms: C_7  and  O_8
REMARK    6  A    between atoms: O_8  and  C_9
REMARK    7  A    between atoms: C_12  and  N_13
REMARK    8  A    between atoms: C_14  and  C_15
REMARK                            x       y       z     vdW  Elec       q    Type
REMARK                         _______ _______ _______ _____ _____    ______ ____
ROOT
ATOM      1  C   UNL     1       2.510   5.200  18.463  0.00  0.00    +0.000 A 
ATOM      2  C   UNL     1       2.058   4.808  19.722  0.00  0.00    +0.000 A 
ATOM      3  C   UNL     1       1.707   5.755  20.688  0.00  0.00    +0.000 A 
ATOM      4  C   UNL     1       1.821   7.119  20.423  0.00  0.00    +0.000 A 
ATOM      5  C   UNL     1       2.255   7.513  19.150  0.00  0.00    +0.000 A 
ATOM      6  C   UNL     1       2.599   6.562  18.174  0.00  0.00    +0.000 A 
ENDROOT
BRANCH   4   7
ATOM      7  N   UNL     1       1.553   8.126  21.380  0.00  0.00    +0.000 N 
ATOM      8  C   UNL     1       0.313   8.455  21.909  0.00  0.00    +0.000 C 
ATOM      9  C   UNL     1       0.374   9.519  22.976  0.00  0.00    +0.000 C 
ATOM     10  O   UNL     1      -0.771   7.984  21.585  0.00  0.00    +0.000 OA
ATOM     11  H   UNL     1       2.355   8.634  21.733  0.00  0.00    +0.000 HD
ENDBRANCH   4   7
BRANCH   1  12
ATOM     12  O   UNL     1       2.877   4.172  17.645  0.00  0.00    +0.000 OA
BRANCH  12  13
ATOM     13  C   UNL     1       4.057   3.460  17.997  0.00  0.00    +0.000 C 
BRANCH  13  16
ATOM     14  C   UNL     1       6.018   4.775  18.487  0.00  0.00    +0.000 C 
ATOM     15  O   UNL     1       5.802   4.678  19.691  0.00  0.00    +0.000 OA
ATOM     16  N   UNL     1       5.236   4.166  17.524  0.00  0.00    +0.000 N 
ATOM     17  C   UNL     1       5.478   4.287  16.095  0.00  0.00    +0.000 C 
BRANCH  14  19
ATOM     18  C   UNL     1       7.925   6.066  18.927  0.00  0.00    +0.000 C 
ATOM     19  O   UNL     1       7.038   5.504  17.959  0.00  0.00    +0.000 OA
ENDBRANCH  14  19
ENDBRANCH  13  16
ENDBRANCH  12  13
ENDBRANCH   1  12
TORSDOF 5
ENDMDL
MODEL 6
REMARK VINA RESULT:      -6.0      2.874      6.851
REMARK  Name = 
REMARK  8 active torsions:
REMARK  status: ('A' for Active; 'I' for Inactive)
REMARK    1  A    between atoms: C_1  and  O_2
REMARK    2  A    between atoms: O_2  and  C_3
REMARK    3  A    between atoms: N_5  and  C_6
REMARK    4  A    between atoms: N_5  and  C_7
REMARK    5  A    between atoms: C_7  and  O_8
REMARK    6  A    between atoms: O_8  and  C_9
REMARK    7  A    between atoms: C_12  and  N_13
REMARK    8  A    between atoms: C_14  and  C_15
REMARK                            x       y       z     vdW  Elec       q    Type
REMARK                         _______ _______ _______ _____ _____    ______ ____
ROOT
ATOM      1  C   UNL     1       2.252   5.072  18.410  0.00  0.00    +0.000 A 
ATOM      2  C   UNL     1       2.535   6.408  18.129  0.00  0.00    +0.000 A 
ATOM      3  C   UNL     1       2.395   7.395  19.108  0.00  0.00    +0.000 A 
ATOM      4  C   UNL     1       1.949   7.071  20.388  0.00  0.00    +0.000 A 
ATOM      5  C   UNL     1       1.685   5.725  20.678  0.00  0.00    +0.000 A 
ATOM      6  C   UNL     1       1.834   4.730  19.696  0.00  0.00    +0.000 A 
ENDROOT
BRANCH   4   7
ATOM      7  N   UNL     1       1.716   8.031  21.402  0.00  0.00    +0.000 N 
ATOM      8  C   UNL     1       0.482   8.516  21.812  0.00  0.00    +0.000 C 
ATOM      9  C   UNL     1       0.565   9.469  22.978  0.00  0.00    +0.000 C 
ATOM     10  O   UNL     1      -0.609   8.258  21.318  0.00  0.00    +0.000 OA
ATOM     11  H   UNL     1       2.533   8.370  21.894  0.00  0.00    +0.000 HD
ENDBRANCH   4   7
BRANCH   1  12
ATOM     12  O   UNL     1       2.369   4.229  17.344  0.00  0.00    +0.000 OA
BRANCH  12  13
ATOM     13  C   UNL     1       3.340   3.195  17.447  0.00  0.00    +0.000 C 
BRANCH  13  16
ATOM     14  C   UNL     1       5.415   3.803  18.514  0.00  0.00    +0.000 C 
ATOM     15  O   UNL     1       5.018   3.348  19.583  0.00  0.00    +0.000 OA
ATOM     16  N   UNL     1       4.681   3.746  17.345  0.00  0.00    +0.000 N 
ATOM     17  C   UNL     1       5.140   4.294  16.079  0.00  0.00    +0.000 C 
BRANCH  14  19
ATOM     18  C   UNL     1       6.779   5.595  19.165  0.00  0.00    +0.000 C 
ATOM     19  O   UNL     1       6.613   4.428  18.360  0.00  0.00    +0.000 OA
ENDBRANCH  14  19
ENDBRANCH  13  16
ENDBRANCH  12  13
ENDBRANCH   1  12
TORSDOF 5
ENDMDL
MODEL 7
REMARK VINA RESULT:      -6.0      2.792      6.886
REMARK  Name = 
REMARK  8 active torsions:
REMARK  status: ('A' for Active; 'I' for Inactive)
REMARK    1  A    between atoms: C_1  and  O_2
REMARK    2  A    between atoms: O_2  and  C_3
REMARK    3  A    between atoms: N_5  and  C_6
REMARK    4  A    between atoms: N_5  and  C_7
REMARK    5  A    between atoms: C_7  and  O_8
REMARK    6  A    between atoms: O_8  and  C_9
REMARK    7  A    between atoms: C_12  and  N_13
REMARK    8  A    between atoms: C_14  and  C_15
REMARK                            x       y       z     vdW  Elec       q    Type
REMARK                         _______ _______ _______ _____ _____    ______ ____
ROOT
ATOM      1  C   UNL     1       2.938   4.896  18.204  0.00  0.00    +0.000 A 
ATOM      2  C   UNL     1       3.011   6.272  17.992  0.00  0.00    +0.000 A 
ATOM      3  C   UNL     1       2.599   7.175  18.976  0.00  0.00    +0.000 A 
ATOM      4  C   UNL     1       2.085   6.721  20.189  0.00  0.00    +0.000 A 
ATOM      5  C   UNL     1       2.032   5.337  20.411  0.00  0.00    +0.000 A 
ATOM      6  C   UNL     1       2.455   4.429  19.426  0.00  0.00    +0.000 A 
ENDROOT
BRANCH   4   7
ATOM      7  N   UNL     1       1.582   7.579  21.196  0.00  0.00    +0.000 N 
ATOM      8  C   UNL     1       0.892   8.767  20.999  0.00  0.00    +0.000 C 
ATOM      9  C   UNL     1       0.413   9.405  22.279  0.00  0.00    +0.000 C 
ATOM     10  O   UNL     1       0.666   9.315  19.928  0.00  0.00    +0.000 OA
ATOM     11  H   UNL     1       1.716   7.274  22.152  0.00  0.00    +0.000 HD
ENDBRANCH   4   7
BRANCH   1  12
ATOM     12  O   UNL     1       3.313   4.135  17.136  0.00  0.00    +0.000 OA
BRANCH  12  13
ATOM     13  C   UNL     1       4.570   3.475  17.226  0.00  0.00    +0.000 C 
BRANCH  13  16
ATOM     14  C   UNL     1       6.592   4.758  17.508  0.00  0.00    +0.000 C 
ATOM     15  O   UNL     1       6.644   4.445  18.693  0.00  0.00    +0.000 OA
ATOM     16  N   UNL     1       5.618   4.296  16.643  0.00  0.00    +0.000 N 
ATOM     17  C   UNL     1       5.541   4.673  15.241  0.00  0.00    +0.000 C 
BRANCH  14  19
ATOM     18  C   UNL     1       7.577   6.885  17.536  0.00  0.00    +0.000 C 
ATOM     19  O   UNL     1       7.472   5.605  16.911  0.00  0.00    +0.000 OA
ENDBRANCH  14  19
ENDBRANCH  13  16
ENDBRANCH  12  13
ENDBRANCH   1  12
TORSDOF 5
ENDMDL
MODEL 8
REMARK VINA RESULT:      -5.9      1.713      2.108
REMARK  Name = 
REMARK  8 active torsions:
REMARK  status: ('A' for Active; 'I' for Inactive)
REMARK    1  A    between atoms: C_1  and  O_2
REMARK    2  A    between atoms: O_2  and  C_3
REMARK    3  A    between atoms: N_5  and  C_6
REMARK    4  A    between atoms: N_5  and  C_7
REMARK    5  A    between atoms: C_7  and  O_8
REMARK    6  A    between atoms: O_8  and  C_9
REMARK    7  A    between atoms: C_12  and  N_13
REMARK    8  A    between atoms: C_14  and  C_15
REMARK                            x       y       z     vdW  Elec       q    Type
REMARK                         _______ _______ _______ _____ _____    ______ ____
ROOT
ATOM      1  C   UNL     1       4.635   5.345  17.225  0.00  0.00    +0.000 A 
ATOM      2  C   UNL     1       4.964   6.163  16.145  0.00  0.00    +0.000 A 
ATOM      3  C   UNL     1       5.559   5.635  14.996  0.00  0.00    +0.000 A 
ATOM      4  C   UNL     1       5.859   4.276  14.910  0.00  0.00    +0.000 A 
ATOM      5  C   UNL     1       5.508   3.449  15.987  0.00  0.00    +0.000 A 
ATOM      6  C   UNL     1       4.901   3.979  17.139  0.00  0.00    +0.000 A 
ENDROOT
BRANCH   4   7
ATOM      7  N   UNL     1       6.527   3.691  13.808  0.00  0.00    +0.000 N 
ATOM      8  C   UNL     1       5.978   3.409  12.564  0.00  0.00    +0.000 C 
ATOM      9  C   UNL     1       6.977   2.865  11.574  0.00  0.00    +0.000 C 
ATOM     10  O   UNL     1       4.808   3.546  12.231  0.00  0.00    +0.000 OA
ATOM     11  H   UNL     1       7.510   3.489  13.936  0.00  0.00    +0.000 HD
ENDBRANCH   4   7
BRANCH   1  12
ATOM     12  O   UNL     1       4.120   6.004  18.303  0.00  0.00    +0.000 OA
BRANCH  12  13
ATOM     13  C   UNL     1       2.723   6.268  18.287  0.00  0.00    +0.000 C 
BRANCH  13  16
ATOM     14  C   UNL     1       1.636   4.489  19.498  0.00  0.00    +0.000 C 
ATOM     15  O   UNL     1       1.793   3.726  18.550  0.00  0.00    +0.000 OA
ATOM     16  N   UNL     1       2.102   5.790  19.511  0.00  0.00    +0.000 N 
ATOM     17  C   UNL     1       1.908   6.704  20.625  0.00  0.00    +0.000 C 
BRANCH  14  19
ATOM     18  C   UNL     1       1.346   2.886  21.185  0.00  0.00    +0.000 C 
ATOM     19  O   UNL     1       0.974   4.151  20.637  0.00  0.00    +0.000 OA
ENDBRANCH  14  19
ENDBRANCH  13  16
ENDBRANCH  12  13
ENDBRANCH   1  12
TORSDOF 5
ENDMDL
MODEL 9
REMARK VINA RESULT:      -5.9      2.546      6.490
REMARK  Name = 
REMARK  8 active torsions:
REMARK  status: ('A' for Active; 'I' for Inactive)
REMARK    1  A    between atoms: C_1  and  O_2
REMARK    2  A    between atoms: O_2  and  C_3
REMARK    3  A    between atoms: N_5  and  C_6
REMARK    4  A    between atoms: N_5  and  C_7
REMARK    5  A    between atoms: C_7  and  O_8
REMARK    6  A    between atoms: O_8  and  C_9
REMARK    7  A    between atoms: C_12  and  N_13
REMARK    8  A    between atoms: C_14  and  C_15
REMARK                            x       y       z     vdW  Elec       q    Type
REMARK                         _______ _______ _______ _____ _____    ______ ____
ROOT
ATOM      1  C   UNL     1       4.205   4.139  17.658  0.00  0.00    +0.000 A 
ATOM      2  C   UNL     1       4.853   4.655  18.780  0.00  0.00    +0.000 A 
ATOM      3  C   UNL     1       4.155   5.398  19.736  0.00  0.00    +0.000 A 
ATOM      4  C   UNL     1       2.795   5.659  19.581  0.00  0.00    +0.000 A 
ATOM      5  C   UNL     1       2.139   5.122  18.465  0.00  0.00    +0.000 A 
ATOM      6  C   UNL     1       2.838   4.367  17.507  0.00  0.00    +0.000 A 
ENDROOT
BRANCH   4   7
ATOM      7  N   UNL     1       2.047   6.465  20.473  0.00  0.00    +0.000 N 
ATOM      8  C   UNL     1       1.654   7.780  20.265  0.00  0.00    +0.000 C 
ATOM      9  C   UNL     1       0.790   8.332  21.371  0.00  0.00    +0.000 C 
ATOM     10  O   UNL     1       1.949   8.493  19.314  0.00  0.00    +0.000 OA
ATOM     11  H   UNL     1       1.745   6.022  21.332  0.00  0.00    +0.000 HD
ENDBRANCH   4   7
BRANCH   1  12
ATOM     12  O   UNL     1       5.021   3.491  16.778  0.00  0.00    +0.000 OA
BRANCH  12  13
ATOM     13  C   UNL     1       5.278   4.143  15.540  0.00  0.00    +0.000 C 
BRANCH  13  16
ATOM     14  C   UNL     1       7.178   5.456  16.234  0.00  0.00    +0.000 C 
ATOM     15  O   UNL     1       7.847   4.439  16.382  0.00  0.00    +0.000 OA
ATOM     16  N   UNL     1       5.877   5.448  15.768  0.00  0.00    +0.000 N 
ATOM     17  C   UNL     1       5.073   6.648  15.602  0.00  0.00    +0.000 C 
BRANCH  14  19
ATOM     18  C   UNL     1       7.693   7.001  17.921  0.00  0.00    +0.000 C 
ATOM     19  O   UNL     1       7.629   6.705  16.525  0.00  0.00    +0.000 OA
ENDBRANCH  14  19
ENDBRANCH  13  16
ENDBRANCH  12  13
ENDBRANCH   1  12
TORSDOF 5
ENDMDL
