MODEL 1
REMARK VINA RESULT:      -7.9      0.000      0.000
REMARK  Name = 
REMARK  7 active torsions:
REMARK  status: ('A' for Active; 'I' for Inactive)
REMARK    1  A    between atoms: C_1  and  N_2
REMARK    2  A    between atoms: N_5  and  C_6
REMARK    3  A    between atoms: C_6  and  C_7
REMARK    4  A    between atoms: C_10  and  N_11
REMARK    5  A    between atoms: N_11  and  C_12
REMARK    6  A    between atoms: C_12  and  C_13
REMARK    7  A    between atoms: C_16  and  C_17
REMARK                            x       y       z     vdW  Elec       q    Type
REMARK                         _______ _______ _______ _____ _____    ______ ____
ROOT
ATOM      1  C   UNL     1       2.309   6.862  19.810  0.00  0.00    +0.000 A 
ATOM      2  C   UNL     1       1.449   7.739  20.499  0.00  0.00    +0.000 A 
ATOM      3  C   UNL     1       1.050   8.961  19.934  0.00  0.00    +0.000 A 
ATOM      4  C   UNL     1       1.473   9.342  18.659  0.00  0.00    +0.000 A 
ATOM      5  C   UNL     1       2.341   8.475  17.986  0.00  0.00    +0.000 A 
ATOM      6  C   UNL     1       2.734   7.246  18.533  0.00  0.00    +0.000 A 
ATOM      7 BR   UNL     1       3.865   6.183  17.431  0.00  0.00    +0.000 Br
ENDROOT
BRANCH   4   8
ATOM      8  N   UNL     1       1.149  10.617  18.160  0.00  0.00    +0.000 N 
ATOM      9  H   UNL     1       1.962  11.228  18.122  0.00  0.00    +0.000 HD
BRANCH   8  10
ATOM     10  C   UNL     1      -0.000  11.295  18.767  0.00  0.00    +0.000 C 
BRANCH  10  11
ATOM     11  C   UNL     1      -1.325  10.955  18.177  0.00  0.00    +0.000 A 
ATOM     12  C   UNL     1      -1.725  10.018  17.251  0.00  0.00    +0.000 A 
ATOM     13  C   UNL     1      -3.137  10.082  17.209  0.00  0.00    +0.000 A 
ATOM     14  C   UNL     1      -3.521  11.068  18.097  0.00  0.00    +0.000 A 
ATOM     15  O   UNL     1      -2.412  11.608  18.686  0.00  0.00    +0.000 OA
BRANCH  14  16
ATOM     16  C   UNL     1      -4.810  11.611  18.513  0.00  0.00    +0.000 A 
ATOM     17  C   UNL     1      -4.895  12.552  19.544  0.00  0.00    +0.000 A 
ATOM     18  C   UNL     1      -6.137  13.036  19.953  0.00  0.00    +0.000 A 
ATOM     19  C   UNL     1      -7.267  12.565  19.310  0.00  0.00    +0.000 A 
ATOM     20  N   UNL     1      -7.235  11.673  18.300  0.00  0.00    +0.000 NA
ATOM     21  C   UNL     1      -6.010  11.220  17.925  0.00  0.00    +0.000 A 
ENDBRANCH  14  16
ENDBRANCH  10  11
ENDBRANCH   8  10
ENDBRANCH   4   8
BRANCH   1  22
ATOM     22  C   UNL     1       2.802   5.608  20.505  0.00  0.00    +0.000 C 
BRANCH  22  27
ATOM     23  C   UNL     1       3.552   1.412  18.420  0.00  0.00    +0.000 C 
ATOM     24  N   UNL     1       2.619   2.099  19.312  0.00  0.00    +0.000 NA
ATOM     25  C   UNL     1       1.977   3.229  18.616  0.00  0.00    +0.000 C 
ATOM     26  C   UNL     1       1.102   4.106  19.544  0.00  0.00    +0.000 C 
ATOM     27  N   UNL     1       1.770   4.590  20.773  0.00  0.00    +0.000 NA
ATOM     28  C   UNL     1       2.380   3.412  21.441  0.00  0.00    +0.000 C 
ATOM     29  C   UNL     1       3.302   2.557  20.534  0.00  0.00    +0.000 C 
ENDBRANCH  22  27
ENDBRANCH   1  22
TORSDOF 6
ENDMDL
MODEL 2
REMARK VINA RESULT:      -7.7      4.106      9.893
REMARK  Name = 
REMARK  7 active torsions:
REMARK  status: ('A' for Active; 'I' for Inactive)
REMARK    1  A    between atoms: C_1  and  N_2
REMARK    2  A    between atoms: N_5  and  C_6
REMARK    3  A    between atoms: C_6  and  C_7
REMARK    4  A    between atoms: C_10  and  N_11
REMARK    5  A    between atoms: N_11  and  C_12
REMARK    6  A    between atoms: C_12  and  C_13
REMARK    7  A    between atoms: C_16  and  C_17
REMARK                            x       y       z     vdW  Elec       q    Type
REMARK                         _______ _______ _______ _____ _____    ______ ____
ROOT
ATOM      1  C   UNL     1       0.648  10.112  20.257  0.00  0.00    +0.000 A 
ATOM      2  C   UNL     1       1.378   9.436  19.260  0.00  0.00    +0.000 A 
ATOM      3  C   UNL     1       1.857   8.132  19.468  0.00  0.00    +0.000 A 
ATOM      4  C   UNL     1       1.607   7.450  20.661  0.00  0.00    +0.000 A 
ATOM      5  C   UNL     1       0.895   8.134  21.652  0.00  0.00    +0.000 A 
ATOM      6  C   UNL     1       0.400   9.429  21.452  0.00  0.00    +0.000 A 
ATOM      7 BR   UNL     1      -0.598  10.158  22.899  0.00  0.00    +0.000 Br
ENDROOT
BRANCH   4   8
ATOM      8  N   UNL     1       2.187   6.189  20.887  0.00  0.00    +0.000 N 
ATOM      9  H   UNL     1       3.157   6.157  20.579  0.00  0.00    +0.000 HD
BRANCH   8  10
ATOM     10  C   UNL     1       1.439   5.019  20.414  0.00  0.00    +0.000 C 
BRANCH  10  11
ATOM     11  C   UNL     1       1.983   4.366  19.192  0.00  0.00    +0.000 A 
ATOM     12  C   UNL     1       1.503   3.373  18.368  0.00  0.00    +0.000 A 
ATOM     13  C   UNL     1       2.406   3.287  17.283  0.00  0.00    +0.000 A 
ATOM     14  C   UNL     1       3.398   4.221  17.513  0.00  0.00    +0.000 A 
ATOM     15  O   UNL     1       3.144   4.878  18.684  0.00  0.00    +0.000 OA
BRANCH  14  16
ATOM     16  C   UNL     1       4.596   4.626  16.785  0.00  0.00    +0.000 A 
ATOM     17  C   UNL     1       5.283   3.723  15.968  0.00  0.00    +0.000 A 
ATOM     18  C   UNL     1       6.445   4.116  15.306  0.00  0.00    +0.000 A 
ATOM     19  C   UNL     1       6.888   5.415  15.477  0.00  0.00    +0.000 A 
ATOM     20  N   UNL     1       6.251   6.328  16.238  0.00  0.00    +0.000 NA
ATOM     21  C   UNL     1       5.122   5.913  16.870  0.00  0.00    +0.000 A 
ENDBRANCH  14  16
ENDBRANCH  10  11
ENDBRANCH   8  10
ENDBRANCH   4   8
BRANCH   1  22
ATOM     22  C   UNL     1       0.249  11.558  20.031  0.00  0.00    +0.000 C 
BRANCH  22  27
ATOM     23  C   UNL     1       0.883  16.259  19.920  0.00  0.00    +0.000 C 
ATOM     24  N   UNL     1       0.932  15.075  19.064  0.00  0.00    +0.000 NA
ATOM     25  C   UNL     1      -0.400  14.450  18.972  0.00  0.00    +0.000 C 
ATOM     26  C   UNL     1      -0.394  13.098  18.219  0.00  0.00    +0.000 C 
ATOM     27  N   UNL     1       0.591  12.106  18.706  0.00  0.00    +0.000 NA
ATOM     28  C   UNL     1       1.912  12.782  18.761  0.00  0.00    +0.000 C 
ATOM     29  C   UNL     1       1.929  14.110  19.560  0.00  0.00    +0.000 C 
ENDBRANCH  22  27
ENDBRANCH   1  22
TORSDOF 6
ENDMDL
MODEL 3
REMARK VINA RESULT:      -7.6      2.420      3.095
REMARK  Name = 
REMARK  7 active torsions:
REMARK  status: ('A' for Active; 'I' for Inactive)
REMARK    1  A    between atoms: C_1  and  N_2
REMARK    2  A    between atoms: N_5  and  C_6
REMARK    3  A    between atoms: C_6  and  C_7
REMARK    4  A    between atoms: C_10  and  N_11
REMARK    5  A    between atoms: N_11  and  C_12
REMARK    6  A    between atoms: C_12  and  C_13
REMARK    7  A    between atoms: C_16  and  C_17
REMARK                            x       y       z     vdW  Elec       q    Type
REMARK                         _______ _______ _______ _____ _____    ______ ____
ROOT
ATOM      1  C   UNL     1       2.661   7.210  18.381  0.00  0.00    +0.000 A 
ATOM      2  C   UNL     1       2.518   8.439  17.710  0.00  0.00    +0.000 A 
ATOM      3  C   UNL     1       1.787   9.496  18.275  0.00  0.00    +0.000 A 
ATOM      4  C   UNL     1       1.194   9.376  19.534  0.00  0.00    +0.000 A 
ATOM      5  C   UNL     1       1.326   8.147  20.189  0.00  0.00    +0.000 A 
ATOM      6  C   UNL     1       2.065   7.089  19.641  0.00  0.00    +0.000 A 
ATOM      7 BR   UNL     1       2.178   5.524  20.719  0.00  0.00    +0.000 Br
ENDROOT
BRANCH   4   8
ATOM      8  N   UNL     1       0.378  10.408  20.031  0.00  0.00    +0.000 N 
ATOM      9  H   UNL     1      -0.379  10.049  20.609  0.00  0.00    +0.000 HD
BRANCH   8  10
ATOM     10  C   UNL     1      -0.113  11.392  19.061  0.00  0.00    +0.000 C 
BRANCH  10  11
ATOM     11  C   UNL     1      -1.400  11.044  18.398  0.00  0.00    +0.000 A 
ATOM     12  C   UNL     1      -1.756  10.059  17.505  0.00  0.00    +0.000 A 
ATOM     13  C   UNL     1      -3.160  10.150  17.354  0.00  0.00    +0.000 A 
ATOM     14  C   UNL     1      -3.581  11.199  18.149  0.00  0.00    +0.000 A 
ATOM     15  O   UNL     1      -2.503  11.751  18.784  0.00  0.00    +0.000 OA
BRANCH  14  16
ATOM     16  C   UNL     1      -4.882  11.795  18.435  0.00  0.00    +0.000 A 
ATOM     17  C   UNL     1      -5.885  11.835  17.462  0.00  0.00    +0.000 A 
ATOM     18  C   UNL     1      -7.110  12.439  17.739  0.00  0.00    +0.000 A 
ATOM     19  C   UNL     1      -7.302  12.985  18.995  0.00  0.00    +0.000 A 
ATOM     20  N   UNL     1      -6.373  12.954  19.973  0.00  0.00    +0.000 NA
ATOM     21  C   UNL     1      -5.189  12.360  19.671  0.00  0.00    +0.000 A 
ENDBRANCH  14  16
ENDBRANCH  10  11
ENDBRANCH   8  10
ENDBRANCH   4   8
BRANCH   1  22
ATOM     22  C   UNL     1       3.362   6.060  17.683  0.00  0.00    +0.000 C 
BRANCH  22  27
ATOM     23  C   UNL     1       6.023   4.006  14.336  0.00  0.00    +0.000 C 
ATOM     24  N   UNL     1       6.111   4.582  15.676  0.00  0.00    +0.000 NA
ATOM     25  C   UNL     1       5.289   3.808  16.625  0.00  0.00    +0.000 C 
ATOM     26  C   UNL     1       5.198   4.454  18.028  0.00  0.00    +0.000 C 
ATOM     27  N   UNL     1       4.779   5.874  18.046  0.00  0.00    +0.000 NA
ATOM     28  C   UNL     1       5.649   6.606  17.091  0.00  0.00    +0.000 C 
ATOM     29  C   UNL     1       5.704   5.998  15.666  0.00  0.00    +0.000 C 
ENDBRANCH  22  27
ENDBRANCH   1  22
TORSDOF 6
ENDMDL
MODEL 4
REMARK VINA RESULT:      -7.6      0.805      1.133
REMARK  Name = 
REMARK  7 active torsions:
REMARK  status: ('A' for Active; 'I' for Inactive)
REMARK    1  A    between atoms: C_1  and  N_2
REMARK    2  A    between atoms: N_5  and  C_6
REMARK    3  A    between atoms: C_6  and  C_7
REMARK    4  A    between atoms: C_10  and  N_11
REMARK    5  A    between atoms: N_11  and  C_12
REMARK    6  A    between atoms: C_12  and  C_13
REMARK    7  A    between atoms: C_16  and  C_17
REMARK                            x       y       z     vdW  Elec       q    Type
REMARK                         _______ _______ _______ _____ _____    ______ ____
ROOT
ATOM      1  C   UNL     1       1.907   6.946  20.238  0.00  0.00    +0.000 A 
ATOM      2  C   UNL     1       1.059   7.489  21.222  0.00  0.00    +0.000 A 
ATOM      3  C   UNL     1       0.526   8.781  21.091  0.00  0.00    +0.000 A 
ATOM      4  C   UNL     1       0.797   9.567  19.969  0.00  0.00    +0.000 A 
ATOM      5  C   UNL     1       1.654   9.028  19.003  0.00  0.00    +0.000 A 
ATOM      6  C   UNL     1       2.181   7.734  19.115  0.00  0.00    +0.000 A 
ATOM      7 BR   UNL     1       3.272   7.165  17.663  0.00  0.00    +0.000 Br
ENDROOT
BRANCH   4   8
ATOM      8  N   UNL     1       0.340  10.896  19.910  0.00  0.00    +0.000 N 
ATOM      9  H   UNL     1      -0.394  11.075  20.593  0.00  0.00    +0.000 HD
BRANCH   8  10
ATOM     10  C   UNL     1      -0.023  11.416  18.589  0.00  0.00    +0.000 C 
BRANCH  10  11
ATOM     11  C   UNL     1      -1.368  11.014  18.093  0.00  0.00    +0.000 A 
ATOM     12  C   UNL     1      -1.803   9.972  17.305  0.00  0.00    +0.000 A 
ATOM     13  C   UNL     1      -3.216  10.038  17.306  0.00  0.00    +0.000 A 
ATOM     14  C   UNL     1      -3.566  11.127  18.080  0.00  0.00    +0.000 A 
ATOM     15  O   UNL     1      -2.435  11.729  18.558  0.00  0.00    +0.000 OA
BRANCH  14  16
ATOM     16  C   UNL     1      -4.838  11.724  18.473  0.00  0.00    +0.000 A 
ATOM     17  C   UNL     1      -5.968  11.614  17.657  0.00  0.00    +0.000 A 
ATOM     18  C   UNL     1      -7.167  12.219  18.030  0.00  0.00    +0.000 A 
ATOM     19  C   UNL     1      -7.204  12.919  19.222  0.00  0.00    +0.000 A 
ATOM     20  N   UNL     1      -6.147  13.039  20.051  0.00  0.00    +0.000 NA
ATOM     21  C   UNL     1      -4.993  12.438  19.659  0.00  0.00    +0.000 A 
ENDBRANCH  14  16
ENDBRANCH  10  11
ENDBRANCH   8  10
ENDBRANCH   4   8
BRANCH   1  22
ATOM     22  C   UNL     1       2.549   5.593  20.476  0.00  0.00    +0.000 C 
BRANCH  22  27
ATOM     23  C   UNL     1       3.576   1.458  18.389  0.00  0.00    +0.000 C 
ATOM     24  N   UNL     1       2.617   2.073  19.306  0.00  0.00    +0.000 NA
ATOM     25  C   UNL     1       1.865   3.142  18.624  0.00  0.00    +0.000 C 
ATOM     26  C   UNL     1       0.950   3.951  19.574  0.00  0.00    +0.000 C 
ATOM     27  N   UNL     1       1.613   4.496  20.780  0.00  0.00    +0.000 NA
ATOM     28  C   UNL     1       2.336   3.377  21.434  0.00  0.00    +0.000 C 
ATOM     29  C   UNL     1       3.297   2.594  20.504  0.00  0.00    +0.000 C 
ENDBRANCH  22  27
ENDBRANCH   1  22
TORSDOF 6
ENDMDL
MODEL 5
REMARK VINA RESULT:      -7.5      3.805     10.178
REMARK  Name = 
REMARK  7 active torsions:
REMARK  status: ('A' for Active; 'I' for Inactive)
REMARK    1  A    between atoms: C_1  and  N_2
REMARK    2  A    between atoms: N_5  and  C_6
REMARK    3  A    between atoms: C_6  and  C_7
REMARK    4  A    between atoms: C_10  and  N_11
REMARK    5  A    between atoms: N_11  and  C_12
REMARK    6  A    between atoms: C_12  and  C_13
REMARK    7  A    between atoms: C_16  and  C_17
REMARK                            x       y       z     vdW  Elec       q    Type
REMARK                         _______ _______ _______ _____ _____    ______ ____
ROOT
ATOM      1  C   UNL     1       0.825   9.969  20.325  0.00  0.00    +0.000 A 
ATOM      2  C   UNL     1       1.507   9.353  19.257  0.00  0.00    +0.000 A 
ATOM      3  C   UNL     1       1.963   8.029  19.352  0.00  0.00    +0.000 A 
ATOM      4  C   UNL     1       1.737   7.265  20.499  0.00  0.00    +0.000 A 
ATOM      5  C   UNL     1       1.073   7.887  21.562  0.00  0.00    +0.000 A 
ATOM      6  C   UNL     1       0.601   9.204  21.474  0.00  0.00    +0.000 A 
ATOM      7 BR   UNL     1      -0.332   9.844  23.005  0.00  0.00    +0.000 Br
ENDROOT
BRANCH   4   8
ATOM      8  N   UNL     1       2.296   5.979  20.612  0.00  0.00    +0.000 N 
ATOM      9  H   UNL     1       3.264   5.958  20.300  0.00  0.00    +0.000 HD
BRANCH   8  10
ATOM     10  C   UNL     1       1.527   4.869  20.040  0.00  0.00    +0.000 C 
BRANCH  10  11
ATOM     11  C   UNL     1       2.244   4.058  19.017  0.00  0.00    +0.000 A 
ATOM     12  C   UNL     1       1.952   2.864  18.397  0.00  0.00    +0.000 A 
ATOM     13  C   UNL     1       2.946   2.679  17.408  0.00  0.00    +0.000 A 
ATOM     14  C   UNL     1       3.801   3.761  17.491  0.00  0.00    +0.000 A 
ATOM     15  O   UNL     1       3.375   4.603  18.480  0.00  0.00    +0.000 OA
BRANCH  14  16
ATOM     16  C   UNL     1       5.001   4.164  16.764  0.00  0.00    +0.000 A 
ATOM     17  C   UNL     1       4.969   4.369  15.381  0.00  0.00    +0.000 A 
ATOM     18  C   UNL     1       6.131   4.720  14.696  0.00  0.00    +0.000 A 
ATOM     19  C   UNL     1       7.301   4.863  15.420  0.00  0.00    +0.000 A 
ATOM     20  N   UNL     1       7.377   4.694  16.756  0.00  0.00    +0.000 NA
ATOM     21  C   UNL     1       6.228   4.352  17.394  0.00  0.00    +0.000 A 
ENDBRANCH  14  16
ENDBRANCH  10  11
ENDBRANCH   8  10
ENDBRANCH   4   8
BRANCH   1  22
ATOM     22  C   UNL     1       0.453  11.435  20.220  0.00  0.00    +0.000 C 
BRANCH  22  27
ATOM     23  C   UNL     1      -0.742  16.023  20.041  0.00  0.00    +0.000 C 
ATOM     24  N   UNL     1      -1.238  14.695  19.685  0.00  0.00    +0.000 NA
ATOM     25  C   UNL     1      -1.422  13.871  20.894  0.00  0.00    +0.000 C 
ATOM     26  C   UNL     1      -1.785  12.399  20.586  0.00  0.00    +0.000 C 
ATOM     27  N   UNL     1      -0.877  11.707  19.644  0.00  0.00    +0.000 NA
ATOM     28  C   UNL     1      -0.744  12.569  18.442  0.00  0.00    +0.000 C 
ATOM     29  C   UNL     1      -0.327  14.032  18.735  0.00  0.00    +0.000 C 
ENDBRANCH  22  27
ENDBRANCH   1  22
TORSDOF 6
ENDMDL
MODEL 6
REMARK VINA RESULT:      -7.5      3.662     10.042
REMARK  Name = 
REMARK  7 active torsions:
REMARK  status: ('A' for Active; 'I' for Inactive)
REMARK    1  A    between atoms: C_1  and  N_2
REMARK    2  A    between atoms: N_5  and  C_6
REMARK    3  A    between atoms: C_6  and  C_7
REMARK    4  A    between atoms: C_10  and  N_11
REMARK    5  A    between atoms: N_11  and  C_12
REMARK    6  A    between atoms: C_12  and  C_13
REMARK    7  A    between atoms: C_16  and  C_17
REMARK                            x       y       z     vdW  Elec       q    Type
REMARK                         _______ _______ _______ _____ _____    ______ ____
ROOT
ATOM      1  C   UNL     1       0.884  10.041  20.155  0.00  0.00    +0.000 A 
ATOM      2  C   UNL     1       1.586   9.305  19.181  0.00  0.00    +0.000 A 
ATOM      3  C   UNL     1       1.968   7.974  19.410  0.00  0.00    +0.000 A 
ATOM      4  C   UNL     1       1.646   7.322  20.603  0.00  0.00    +0.000 A 
ATOM      5  C   UNL     1       0.963   8.064  21.572  0.00  0.00    +0.000 A 
ATOM      6  C   UNL     1       0.564   9.389  21.350  0.00  0.00    +0.000 A 
ATOM      7 BR   UNL     1      -0.411  10.200  22.770  0.00  0.00    +0.000 Br
ENDROOT
BRANCH   4   8
ATOM      8  N   UNL     1       2.133   6.026  20.852  0.00  0.00    +0.000 N 
ATOM      9  H   UNL     1       3.118   5.939  20.615  0.00  0.00    +0.000 HD
BRANCH   8  10
ATOM     10  C   UNL     1       1.353   4.909  20.310  0.00  0.00    +0.000 C 
BRANCH  10  11
ATOM     11  C   UNL     1       1.978   4.192  19.164  0.00  0.00    +0.000 A 
ATOM     12  C   UNL     1       1.508   3.243  18.285  0.00  0.00    +0.000 A 
ATOM     13  C   UNL     1       2.527   3.056  17.322  0.00  0.00    +0.000 A 
ATOM     14  C   UNL     1       3.571   3.889  17.677  0.00  0.00    +0.000 A 
ATOM     15  O   UNL     1       3.239   4.580  18.808  0.00  0.00    +0.000 OA
BRANCH  14  16
ATOM     16  C   UNL     1       4.886   4.165  17.106  0.00  0.00    +0.000 A 
ATOM     17  C   UNL     1       5.973   4.485  17.925  0.00  0.00    +0.000 A 
ATOM     18  C   UNL     1       7.214   4.780  17.363  0.00  0.00    +0.000 A 
ATOM     19  C   UNL     1       7.334   4.741  15.986  0.00  0.00    +0.000 A 
ATOM     20  N   UNL     1       6.321   4.421  15.156  0.00  0.00    +0.000 NA
ATOM     21  C   UNL     1       5.125   4.139  15.734  0.00  0.00    +0.000 A 
ENDBRANCH  14  16
ENDBRANCH  10  11
ENDBRANCH   8  10
ENDBRANCH   4   8
BRANCH   1  22
ATOM     22  C   UNL     1       0.592  11.509  19.908  0.00  0.00    +0.000 C 
BRANCH  22  27
ATOM     23  C   UNL     1      -2.046  15.278  21.067  0.00  0.00    +0.000 C 
ATOM     24  N   UNL     1      -1.921  14.235  20.050  0.00  0.00    +0.000 NA
ATOM     25  C   UNL     1      -2.130  12.904  20.649  0.00  0.00    +0.000 C 
ATOM     26  C   UNL     1      -1.849  11.739  19.670  0.00  0.00    +0.000 C 
ATOM     27  N   UNL     1      -0.532  11.782  18.995  0.00  0.00    +0.000 NA
ATOM     28  C   UNL     1      -0.384  13.133  18.397  0.00  0.00    +0.000 C 
ATOM     29  C   UNL     1      -0.610  14.308  19.382  0.00  0.00    +0.000 C 
ENDBRANCH  22  27
ENDBRANCH   1  22
TORSDOF 6
ENDMDL
MODEL 7
REMARK VINA RESULT:      -7.5      3.464      9.593
REMARK  Name = 
REMARK  7 active torsions:
REMARK  status: ('A' for Active; 'I' for Inactive)
REMARK    1  A    between atoms: C_1  and  N_2
REMARK    2  A    between atoms: N_5  and  C_6
REMARK    3  A    between atoms: C_6  and  C_7
REMARK    4  A    between atoms: C_10  and  N_11
REMARK    5  A    between atoms: N_11  and  C_12
REMARK    6  A    between atoms: C_12  and  C_13
REMARK    7  A    between atoms: C_16  and  C_17
REMARK                            x       y       z     vdW  Elec       q    Type
REMARK                         _______ _______ _______ _____ _____    ______ ____
ROOT
ATOM      1  C   UNL     1      -1.170  11.705  20.965  0.00  0.00    +0.000 A 
ATOM      2  C   UNL     1      -1.241  12.118  19.621  0.00  0.00    +0.000 A 
ATOM      3  C   UNL     1      -0.632  11.375  18.598  0.00  0.00    +0.000 A 
ATOM      4  C   UNL     1       0.049  10.186  18.872  0.00  0.00    +0.000 A 
ATOM      5  C   UNL     1       0.131   9.790  20.211  0.00  0.00    +0.000 A 
ATOM      6  C   UNL     1      -0.486  10.515  21.240  0.00  0.00    +0.000 A 
ATOM      7 BR   UNL     1      -0.311   9.774  22.984  0.00  0.00    +0.000 Br
ENDROOT
BRANCH   4   8
ATOM      8  N   UNL     1       0.742   9.518  17.847  0.00  0.00    +0.000 N 
ATOM      9  H   UNL     1       0.330   8.611  17.639  0.00  0.00    +0.000 HD
BRANCH   8  10
ATOM     10  C   UNL     1       2.199   9.423  17.983  0.00  0.00    +0.000 C 
BRANCH  10  11
ATOM     11  C   UNL     1       2.746   8.038  18.018  0.00  0.00    +0.000 A 
ATOM     12  C   UNL     1       3.877   7.465  17.482  0.00  0.00    +0.000 A 
ATOM     13  C   UNL     1       3.928   6.144  17.985  0.00  0.00    +0.000 A 
ATOM     14  C   UNL     1       2.815   5.977  18.787  0.00  0.00    +0.000 A 
ATOM     15  O   UNL     1       2.088   7.135  18.803  0.00  0.00    +0.000 OA
BRANCH  14  16
ATOM     16  C   UNL     1       2.296   4.870  19.584  0.00  0.00    +0.000 A 
ATOM     17  C   UNL     1       1.283   4.042  19.091  0.00  0.00    +0.000 A 
ATOM     18  C   UNL     1       0.774   3.010  19.878  0.00  0.00    +0.000 A 
ATOM     19  C   UNL     1       1.302   2.830  21.144  0.00  0.00    +0.000 A 
ATOM     20  N   UNL     1       2.291   3.591  21.656  0.00  0.00    +0.000 NA
ATOM     21  C   UNL     1       2.765   4.588  20.865  0.00  0.00    +0.000 A 
ENDBRANCH  14  16
ENDBRANCH  10  11
ENDBRANCH   8  10
ENDBRANCH   4   8
BRANCH   1  22
ATOM     22  C   UNL     1      -1.746  12.597  22.048  0.00  0.00    +0.000 C 
BRANCH  22  27
ATOM     23  C   UNL     1      -3.917  16.240  24.176  0.00  0.00    +0.000 C 
ATOM     24  N   UNL     1      -4.172  14.898  23.656  0.00  0.00    +0.000 NA
ATOM     25  C   UNL     1      -3.384  13.898  24.399  0.00  0.00    +0.000 C 
ATOM     26  C   UNL     1      -3.474  12.475  23.799  0.00  0.00    +0.000 C 
ATOM     27  N   UNL     1      -3.171  12.377  22.354  0.00  0.00    +0.000 NA
ATOM     28  C   UNL     1      -4.004  13.388  21.656  0.00  0.00    +0.000 C 
ATOM     29  C   UNL     1      -3.879  14.829  22.214  0.00  0.00    +0.000 C 
ENDBRANCH  22  27
ENDBRANCH   1  22
TORSDOF 6
ENDMDL
MODEL 8
REMARK VINA RESULT:      -7.5      4.245     10.101
REMARK  Name = 
REMARK  7 active torsions:
REMARK  status: ('A' for Active; 'I' for Inactive)
REMARK    1  A    between atoms: C_1  and  N_2
REMARK    2  A    between atoms: N_5  and  C_6
REMARK    3  A    between atoms: C_6  and  C_7
REMARK    4  A    between atoms: C_10  and  N_11
REMARK    5  A    between atoms: N_11  and  C_12
REMARK    6  A    between atoms: C_12  and  C_13
REMARK    7  A    between atoms: C_16  and  C_17
REMARK                            x       y       z     vdW  Elec       q    Type
REMARK                         _______ _______ _______ _____ _____    ______ ____
ROOT
ATOM      1  C   UNL     1       0.738  10.265  19.674  0.00  0.00    +0.000 A 
ATOM      2  C   UNL     1       1.455   9.591  18.667  0.00  0.00    +0.000 A 
ATOM      3  C   UNL     1       2.007   8.320  18.893  0.00  0.00    +0.000 A 
ATOM      4  C   UNL     1       1.846   7.667  20.118  0.00  0.00    +0.000 A 
ATOM      5  C   UNL     1       1.147   8.349  21.119  0.00  0.00    +0.000 A 
ATOM      6  C   UNL     1       0.579   9.612  20.901  0.00  0.00    +0.000 A 
ATOM      7 BR   UNL     1      -0.387  10.341  22.370  0.00  0.00    +0.000 Br
ENDROOT
BRANCH   4   8
ATOM      8  N   UNL     1       2.498   6.444  20.356  0.00  0.00    +0.000 N 
ATOM      9  H   UNL     1       3.437   6.431  19.963  0.00  0.00    +0.000 HD
BRANCH   8  10
ATOM     10  C   UNL     1       1.762   5.222  20.019  0.00  0.00    +0.000 C 
BRANCH  10  11
ATOM     11  C   UNL     1       2.399   4.360  18.985  0.00  0.00    +0.000 A 
ATOM     12  C   UNL     1       2.033   3.163  18.410  0.00  0.00    +0.000 A 
ATOM     13  C   UNL     1       2.973   2.916  17.382  0.00  0.00    +0.000 A 
ATOM     14  C   UNL     1       3.871   3.966  17.398  0.00  0.00    +0.000 A 
ATOM     15  O   UNL     1       3.524   4.847  18.383  0.00  0.00    +0.000 OA
BRANCH  14  16
ATOM     16  C   UNL     1       5.049   4.304  16.606  0.00  0.00    +0.000 A 
ATOM     17  C   UNL     1       5.000   4.311  15.209  0.00  0.00    +0.000 A 
ATOM     18  C   UNL     1       6.143   4.603  14.466  0.00  0.00    +0.000 A 
ATOM     19  C   UNL     1       7.312   4.887  15.148  0.00  0.00    +0.000 A 
ATOM     20  N   UNL     1       7.406   4.909  16.494  0.00  0.00    +0.000 NA
ATOM     21  C   UNL     1       6.275   4.621  17.188  0.00  0.00    +0.000 A 
ENDBRANCH  14  16
ENDBRANCH  10  11
ENDBRANCH   8  10
ENDBRANCH   4   8
BRANCH   1  22
ATOM     22  C   UNL     1       0.258  11.681  19.421  0.00  0.00    +0.000 C 
BRANCH  22  27
ATOM     23  C   UNL     1       2.649  15.535  18.025  0.00  0.00    +0.000 C 
ATOM     24  N   UNL     1       2.037  14.930  19.208  0.00  0.00    +0.000 NA
ATOM     25  C   UNL     1       2.704  13.658  19.540  0.00  0.00    +0.000 C 
ATOM     26  C   UNL     1       2.006  12.877  20.679  0.00  0.00    +0.000 C 
ATOM     27  N   UNL     1       0.556  12.648  20.493  0.00  0.00    +0.000 NA
ATOM     28  C   UNL     1      -0.065  13.960  20.182  0.00  0.00    +0.000 C 
ATOM     29  C   UNL     1       0.593  14.726  19.006  0.00  0.00    +0.000 C 
ENDBRANCH  22  27
ENDBRANCH   1  22
TORSDOF 6
ENDMDL
MODEL 9
REMARK VINA RESULT:      -7.5      4.121     10.421
REMARK  Name = 
REMARK  7 active torsions:
REMARK  status: ('A' for Active; 'I' for Inactive)
REMARK    1  A    between atoms: C_1  and  N_2
REMARK    2  A    between atoms: N_5  and  C_6
REMARK    3  A    between atoms: C_6  and  C_7
REMARK    4  A    between atoms: C_10  and  N_11
REMARK    5  A    between atoms: N_11  and  C_12
REMARK    6  A    between atoms: C_12  and  C_13
REMARK    7  A    between atoms: C_16  and  C_17
REMARK                            x       y       z     vdW  Elec       q    Type
REMARK                         _______ _______ _______ _____ _____    ______ ____
ROOT
ATOM      1  C   UNL     1      -0.639  10.986  21.493  0.00  0.00    +0.000 A 
ATOM      2  C   UNL     1      -0.134  10.195  22.543  0.00  0.00    +0.000 A 
ATOM      3  C   UNL     1       0.741   9.127  22.293  0.00  0.00    +0.000 A 
ATOM      4  C   UNL     1       1.162   8.822  20.995  0.00  0.00    +0.000 A 
ATOM      5  C   UNL     1       0.643   9.602  19.956  0.00  0.00    +0.000 A 
ATOM      6  C   UNL     1      -0.219  10.680  20.194  0.00  0.00    +0.000 A 
ATOM      7 BR   UNL     1      -0.760  11.653  18.650  0.00  0.00    +0.000 Br
ENDROOT
BRANCH   4   8
ATOM      8  N   UNL     1       1.952   7.683  20.759  0.00  0.00    +0.000 N 
ATOM      9  H   UNL     1       2.439   7.737  19.868  0.00  0.00    +0.000 HD
BRANCH   8  10
ATOM     10  C   UNL     1       1.305   6.379  20.934  0.00  0.00    +0.000 C 
BRANCH  10  11
ATOM     11  C   UNL     1       1.962   5.243  20.230  0.00  0.00    +0.000 A 
ATOM     12  C   UNL     1       1.561   3.954  19.957  0.00  0.00    +0.000 A 
ATOM     13  C   UNL     1       2.561   3.397  19.127  0.00  0.00    +0.000 A 
ATOM     14  C   UNL     1       3.527   4.370  18.953  0.00  0.00    +0.000 A 
ATOM     15  O   UNL     1       3.163   5.499  19.633  0.00  0.00    +0.000 OA
BRANCH  14  16
ATOM     16  C   UNL     1       4.786   4.429  18.218  0.00  0.00    +0.000 A 
ATOM     17  C   UNL     1       4.822   4.235  16.834  0.00  0.00    +0.000 A 
ATOM     18  C   UNL     1       6.037   4.260  16.152  0.00  0.00    +0.000 A 
ATOM     19  C   UNL     1       7.192   4.486  16.879  0.00  0.00    +0.000 A 
ATOM     20  N   UNL     1       7.207   4.696  18.211  0.00  0.00    +0.000 NA
ATOM     21  C   UNL     1       6.007   4.665  18.846  0.00  0.00    +0.000 A 
ENDBRANCH  14  16
ENDBRANCH  10  11
ENDBRANCH   8  10
ENDBRANCH   4   8
BRANCH   1  22
ATOM     22  C   UNL     1      -1.669  12.057  21.800  0.00  0.00    +0.000 C 
BRANCH  22  27
ATOM     23  C   UNL     1      -4.661  15.629  22.690  0.00  0.00    +0.000 C 
ATOM     24  N   UNL     1      -3.781  14.675  23.364  0.00  0.00    +0.000 NA
ATOM     25  C   UNL     1      -2.380  14.894  22.962  0.00  0.00    +0.000 C 
ATOM     26  C   UNL     1      -1.410  13.817  23.504  0.00  0.00    +0.000 C 
ATOM     27  N   UNL     1      -1.798  12.416  23.223  0.00  0.00    +0.000 NA
ATOM     28  C   UNL     1      -3.206  12.249  23.664  0.00  0.00    +0.000 C 
ATOM     29  C   UNL     1      -4.196  13.290  23.083  0.00  0.00    +0.000 C 
ENDBRANCH  22  27
ENDBRANCH   1  22
TORSDOF 6
ENDMDL
