MODEL 1
REMARK VINA RESULT:      -8.3      0.000      0.000
REMARK  Name = 
REMARK  3 active torsions:
REMARK  status: ('A' for Active; 'I' for Inactive)
REMARK    1  A    between atoms: C_1  and  C_2
REMARK    2  A    between atoms: C_7  and  N_8
REMARK    3  A    between atoms: C_12  and  C_14
REMARK                            x       y       z     vdW  Elec       q    Type
REMARK                         _______ _______ _______ _____ _____    ______ ____
ROOT
ATOM      1  N   UNL     1       4.029   4.308  18.609  0.00  0.00    +0.000 N 
ATOM      2  C   UNL     1       4.868   5.506  18.813  0.00  0.00    +0.000 C 
ATOM      3  C   UNL     1       6.244   5.308  18.111  0.00  0.00    +0.000 C 
ATOM      4  N   UNL     1       6.120   4.753  16.744  0.00  0.00    +0.000 N 
ATOM      5  C   UNL     1       6.860   5.299  15.701  0.00  0.00    +0.000 C 
ATOM      6  O   UNL     1       7.664   6.212  15.874  0.00  0.00    +0.000 OA
ATOM      7  C   UNL     1       5.255   3.563  16.686  0.00  0.00    +0.000 C 
ATOM      8  C   UNL     1       3.863   3.963  17.192  0.00  0.00    +0.000 C 
ENDROOT
BRANCH   1  15
ATOM      9  C   UNL     1       4.645   2.024  20.403  0.00  0.00    +0.000 C 
ATOM     10  C   UNL     1       3.319   2.744  20.353  0.00  0.00    +0.000 A 
ATOM     11  C   UNL     1       2.319   2.289  21.234  0.00  0.00    +0.000 A 
ATOM     12  C   UNL     1       1.106   2.957  21.339  0.00  0.00    +0.000 A 
ATOM     13  C   UNL     1       0.877   4.085  20.563  0.00  0.00    +0.000 A 
ATOM     14  C   UNL     1       1.857   4.529  19.668  0.00  0.00    +0.000 A 
ATOM     15  C   UNL     1       3.084   3.865  19.517  0.00  0.00    +0.000 A 
ENDBRANCH   1  15
BRANCH   5  16
ATOM     16  C   UNL     1       6.719   4.770  14.322  0.00  0.00    +0.000 A 
ATOM     17  C   UNL     1       5.676   3.942  13.899  0.00  0.00    +0.000 A 
ATOM     18  C   UNL     1       5.694   3.416  12.608  0.00  0.00    +0.000 A 
ATOM     19  C   UNL     1       6.710   3.805  11.753  0.00  0.00    +0.000 A 
ATOM     20  N   UNL     1       7.687   4.670  12.099  0.00  0.00    +0.000 NA
ATOM     21  C   UNL     1       7.666   5.139  13.375  0.00  0.00    +0.000 A 
ENDBRANCH   5  16
TORSDOF 2
ENDMDL
MODEL 2
REMARK VINA RESULT:      -7.8      0.627      1.051
REMARK  Name = 
REMARK  3 active torsions:
REMARK  status: ('A' for Active; 'I' for Inactive)
REMARK    1  A    between atoms: C_1  and  C_2
REMARK    2  A    between atoms: C_7  and  N_8
REMARK    3  A    between atoms: C_12  and  C_14
REMARK                            x       y       z     vdW  Elec       q    Type
REMARK                         _______ _______ _______ _____ _____    ______ ____
ROOT
ATOM      1  N   UNL     1       4.056   4.356  18.568  0.00  0.00    +0.000 N 
ATOM      2  C   UNL     1       4.868   5.570  18.784  0.00  0.00    +0.000 C 
ATOM      3  C   UNL     1       6.271   5.386  18.132  0.00  0.00    +0.000 C 
ATOM      4  N   UNL     1       6.202   4.811  16.769  0.00  0.00    +0.000 N 
ATOM      5  C   UNL     1       6.968   5.356  15.744  0.00  0.00    +0.000 C 
ATOM      6  O   UNL     1       7.751   6.284  15.931  0.00  0.00    +0.000 OA
ATOM      7  C   UNL     1       5.358   3.607  16.698  0.00  0.00    +0.000 C 
ATOM      8  C   UNL     1       3.944   3.991  17.150  0.00  0.00    +0.000 C 
ENDROOT
BRANCH   1  15
ATOM      9  C   UNL     1       4.615   2.045  20.345  0.00  0.00    +0.000 C 
ATOM     10  C   UNL     1       3.296   2.775  20.276  0.00  0.00    +0.000 A 
ATOM     11  C   UNL     1       2.274   2.318  21.128  0.00  0.00    +0.000 A 
ATOM     12  C   UNL     1       1.064   2.994  21.216  0.00  0.00    +0.000 A 
ATOM     13  C   UNL     1       0.860   4.134  20.450  0.00  0.00    +0.000 A 
ATOM     14  C   UNL     1       1.863   4.581  19.582  0.00  0.00    +0.000 A 
ATOM     15  C   UNL     1       3.088   3.909  19.449  0.00  0.00    +0.000 A 
ENDBRANCH   1  15
BRANCH   5  16
ATOM     16  C   UNL     1       6.882   4.807  14.368  0.00  0.00    +0.000 A 
ATOM     17  C   UNL     1       7.734   5.170  13.321  0.00  0.00    +0.000 A 
ATOM     18  C   UNL     1       7.502   4.673  12.040  0.00  0.00    +0.000 A 
ATOM     19  C   UNL     1       6.476   3.761  11.864  0.00  0.00    +0.000 A 
ATOM     20  N   UNL     1       5.687   3.321  12.868  0.00  0.00    +0.000 NA
ATOM     21  C   UNL     1       5.912   3.850  14.100  0.00  0.00    +0.000 A 
ENDBRANCH   5  16
TORSDOF 2
ENDMDL
MODEL 3
REMARK VINA RESULT:      -7.7      0.508      1.473
REMARK  Name = 
REMARK  3 active torsions:
REMARK  status: ('A' for Active; 'I' for Inactive)
REMARK    1  A    between atoms: C_1  and  C_2
REMARK    2  A    between atoms: C_7  and  N_8
REMARK    3  A    between atoms: C_12  and  C_14
REMARK                            x       y       z     vdW  Elec       q    Type
REMARK                         _______ _______ _______ _____ _____    ______ ____
ROOT
ATOM      1  N   UNL     1       4.060   4.191  18.599  0.00  0.00    +0.000 N 
ATOM      2  C   UNL     1       4.850   5.418  18.823  0.00  0.00    +0.000 C 
ATOM      3  C   UNL     1       6.242   5.279  18.137  0.00  0.00    +0.000 C 
ATOM      4  N   UNL     1       6.156   4.730  16.764  0.00  0.00    +0.000 N 
ATOM      5  C   UNL     1       6.887   5.312  15.735  0.00  0.00    +0.000 C 
ATOM      6  O   UNL     1       7.654   6.254  15.924  0.00  0.00    +0.000 OA
ATOM      7  C   UNL     1       5.337   3.509  16.686  0.00  0.00    +0.000 C 
ATOM      8  C   UNL     1       3.926   3.852  17.176  0.00  0.00    +0.000 C 
ENDROOT
BRANCH   1  15
ATOM      9  C   UNL     1       1.167   4.396  17.970  0.00  0.00    +0.000 C 
ATOM     10  C   UNL     1       1.729   3.833  19.253  0.00  0.00    +0.000 A 
ATOM     11  C   UNL     1       0.799   3.369  20.202  0.00  0.00    +0.000 A 
ATOM     12  C   UNL     1       1.222   2.734  21.363  0.00  0.00    +0.000 A 
ATOM     13  C   UNL     1       2.579   2.557  21.590  0.00  0.00    +0.000 A 
ATOM     14  C   UNL     1       3.511   3.037  20.662  0.00  0.00    +0.000 A 
ATOM     15  C   UNL     1       3.122   3.705  19.491  0.00  0.00    +0.000 A 
ENDBRANCH   1  15
BRANCH   5  16
ATOM     16  C   UNL     1       6.784   4.790  14.350  0.00  0.00    +0.000 A 
ATOM     17  C   UNL     1       5.782   3.921  13.909  0.00  0.00    +0.000 A 
ATOM     18  C   UNL     1       5.836   3.408  12.614  0.00  0.00    +0.000 A 
ATOM     19  C   UNL     1       6.843   3.847  11.773  0.00  0.00    +0.000 A 
ATOM     20  N   UNL     1       7.778   4.751  12.137  0.00  0.00    +0.000 NA
ATOM     21  C   UNL     1       7.724   5.208  13.416  0.00  0.00    +0.000 A 
ENDBRANCH   5  16
TORSDOF 2
ENDMDL
MODEL 4
REMARK VINA RESULT:      -7.4      3.483      4.902
REMARK  Name = 
REMARK  3 active torsions:
REMARK  status: ('A' for Active; 'I' for Inactive)
REMARK    1  A    between atoms: C_1  and  C_2
REMARK    2  A    between atoms: C_7  and  N_8
REMARK    3  A    between atoms: C_12  and  C_14
REMARK                            x       y       z     vdW  Elec       q    Type
REMARK                         _______ _______ _______ _____ _____    ______ ____
ROOT
ATOM      1  N   UNL     1       2.144   7.091  19.663  0.00  0.00    +0.000 N 
ATOM      2  C   UNL     1       2.028   5.720  20.200  0.00  0.00    +0.000 C 
ATOM      3  C   UNL     1       2.101   4.692  19.032  0.00  0.00    +0.000 C 
ATOM      4  N   UNL     1       3.188   4.988  18.071  0.00  0.00    +0.000 N 
ATOM      5  C   UNL     1       4.013   3.964  17.617  0.00  0.00    +0.000 C 
ATOM      6  O   UNL     1       3.850   2.792  17.949  0.00  0.00    +0.000 OA
ATOM      7  C   UNL     1       3.188   6.389  17.620  0.00  0.00    +0.000 C 
ATOM      8  C   UNL     1       3.354   7.284  18.854  0.00  0.00    +0.000 C 
ENDROOT
BRANCH   1  15
ATOM      9  C   UNL     1       1.142   9.294  17.946  0.00  0.00    +0.000 C 
ATOM     10  C   UNL     1       1.099   9.295  19.455  0.00  0.00    +0.000 A 
ATOM     11  C   UNL     1       0.533  10.426  20.072  0.00  0.00    +0.000 A 
ATOM     12  C   UNL     1       0.350  10.469  21.448  0.00  0.00    +0.000 A 
ATOM     13  C   UNL     1       0.734   9.384  22.224  0.00  0.00    +0.000 A 
ATOM     14  C   UNL     1       1.320   8.266  21.620  0.00  0.00    +0.000 A 
ATOM     15  C   UNL     1       1.543   8.196  20.236  0.00  0.00    +0.000 A 
ENDBRANCH   1  15
BRANCH   5  16
ATOM     16  C   UNL     1       5.125   4.256  16.678  0.00  0.00    +0.000 A 
ATOM     17  C   UNL     1       4.999   4.263  15.287  0.00  0.00    +0.000 A 
ATOM     18  C   UNL     1       6.130   4.446  14.493  0.00  0.00    +0.000 A 
ATOM     19  C   UNL     1       7.338   4.703  15.118  0.00  0.00    +0.000 A 
ATOM     20  N   UNL     1       7.482   4.789  16.458  0.00  0.00    +0.000 NA
ATOM     21  C   UNL     1       6.370   4.570  17.209  0.00  0.00    +0.000 A 
ENDBRANCH   5  16
TORSDOF 2
ENDMDL
MODEL 5
REMARK VINA RESULT:      -7.4      1.092      1.220
REMARK  Name = 
REMARK  3 active torsions:
REMARK  status: ('A' for Active; 'I' for Inactive)
REMARK    1  A    between atoms: C_1  and  C_2
REMARK    2  A    between atoms: C_7  and  N_8
REMARK    3  A    between atoms: C_12  and  C_14
REMARK                            x       y       z     vdW  Elec       q    Type
REMARK                         _______ _______ _______ _____ _____    ______ ____
ROOT
ATOM      1  N   UNL     1       4.356   4.496  18.103  0.00  0.00    +0.000 N 
ATOM      2  C   UNL     1       5.337   5.592  17.972  0.00  0.00    +0.000 C 
ATOM      3  C   UNL     1       6.538   5.119  17.099  0.00  0.00    +0.000 C 
ATOM      4  N   UNL     1       6.114   4.396  15.878  0.00  0.00    +0.000 N 
ATOM      5  C   UNL     1       6.707   4.688  14.655  0.00  0.00    +0.000 C 
ATOM      6  O   UNL     1       7.620   5.505  14.545  0.00  0.00    +0.000 OA
ATOM      7  C   UNL     1       5.134   3.333  16.154  0.00  0.00    +0.000 C 
ATOM      8  C   UNL     1       3.904   3.978  16.805  0.00  0.00    +0.000 C 
ENDROOT
BRANCH   1  15
ATOM      9  C   UNL     1       4.551   1.994  19.688  0.00  0.00    +0.000 C 
ATOM     10  C   UNL     1       3.572   3.110  19.962  0.00  0.00    +0.000 A 
ATOM     11  C   UNL     1       2.704   2.936  21.056  0.00  0.00    +0.000 A 
ATOM     12  C   UNL     1       1.846   3.953  21.453  0.00  0.00    +0.000 A 
ATOM     13  C   UNL     1       1.843   5.155  20.759  0.00  0.00    +0.000 A 
ATOM     14  C   UNL     1       2.686   5.327  19.655  0.00  0.00    +0.000 A 
ATOM     15  C   UNL     1       3.548   4.313  19.210  0.00  0.00    +0.000 A 
ENDBRANCH   1  15
BRANCH   5  16
ATOM     16  C   UNL     1       6.268   3.992  13.421  0.00  0.00    +0.000 A 
ATOM     17  C   UNL     1       4.945   3.939  12.975  0.00  0.00    +0.000 A 
ATOM     18  C   UNL     1       4.623   3.170  11.858  0.00  0.00    +0.000 A 
ATOM     19  C   UNL     1       5.650   2.547  11.171  0.00  0.00    +0.000 A 
ATOM     20  N   UNL     1       6.951   2.646  11.521  0.00  0.00    +0.000 NA
ATOM     21  C   UNL     1       7.231   3.372  12.635  0.00  0.00    +0.000 A 
ENDBRANCH   5  16
TORSDOF 2
ENDMDL
MODEL 6
REMARK VINA RESULT:      -7.3      1.175      1.930
REMARK  Name = 
REMARK  3 active torsions:
REMARK  status: ('A' for Active; 'I' for Inactive)
REMARK    1  A    between atoms: C_1  and  C_2
REMARK    2  A    between atoms: C_7  and  N_8
REMARK    3  A    between atoms: C_12  and  C_14
REMARK                            x       y       z     vdW  Elec       q    Type
REMARK                         _______ _______ _______ _____ _____    ______ ____
ROOT
ATOM      1  N   UNL     1       4.466   4.356  18.172  0.00  0.00    +0.000 N 
ATOM      2  C   UNL     1       5.445   5.454  18.051  0.00  0.00    +0.000 C 
ATOM      3  C   UNL     1       6.626   5.006  17.138  0.00  0.00    +0.000 C 
ATOM      4  N   UNL     1       6.174   4.318  15.907  0.00  0.00    +0.000 N 
ATOM      5  C   UNL     1       6.742   4.644  14.680  0.00  0.00    +0.000 C 
ATOM      6  O   UNL     1       7.653   5.463  14.574  0.00  0.00    +0.000 OA
ATOM      7  C   UNL     1       5.199   3.248  16.174  0.00  0.00    +0.000 C 
ATOM      8  C   UNL     1       3.985   3.876  16.870  0.00  0.00    +0.000 C 
ENDROOT
BRANCH   1  15
ATOM      9  C   UNL     1       2.546   6.437  19.062  0.00  0.00    +0.000 C 
ATOM     10  C   UNL     1       2.792   5.132  19.780  0.00  0.00    +0.000 A 
ATOM     11  C   UNL     1       2.042   4.902  20.948  0.00  0.00    +0.000 A 
ATOM     12  C   UNL     1       2.118   3.686  21.615  0.00  0.00    +0.000 A 
ATOM     13  C   UNL     1       2.947   2.687  21.124  0.00  0.00    +0.000 A 
ATOM     14  C   UNL     1       3.714   2.918  19.976  0.00  0.00    +0.000 A 
ATOM     15  C   UNL     1       3.682   4.142  19.290  0.00  0.00    +0.000 A 
ENDBRANCH   1  15
BRANCH   5  16
ATOM     16  C   UNL     1       6.274   3.984  13.436  0.00  0.00    +0.000 A 
ATOM     17  C   UNL     1       4.948   3.985  12.995  0.00  0.00    +0.000 A 
ATOM     18  C   UNL     1       4.597   3.247  11.866  0.00  0.00    +0.000 A 
ATOM     19  C   UNL     1       5.599   2.599  11.165  0.00  0.00    +0.000 A 
ATOM     20  N   UNL     1       6.904   2.646  11.512  0.00  0.00    +0.000 NA
ATOM     21  C   UNL     1       7.213   3.344  12.637  0.00  0.00    +0.000 A 
ENDBRANCH   5  16
TORSDOF 2
ENDMDL
MODEL 7
REMARK VINA RESULT:      -7.3      0.743      1.831
REMARK  Name = 
REMARK  3 active torsions:
REMARK  status: ('A' for Active; 'I' for Inactive)
REMARK    1  A    between atoms: C_1  and  C_2
REMARK    2  A    between atoms: C_7  and  N_8
REMARK    3  A    between atoms: C_12  and  C_14
REMARK                            x       y       z     vdW  Elec       q    Type
REMARK                         _______ _______ _______ _____ _____    ______ ____
ROOT
ATOM      1  N   UNL     1       4.160   4.250  18.631  0.00  0.00    +0.000 N 
ATOM      2  C   UNL     1       4.923   5.495  18.843  0.00  0.00    +0.000 C 
ATOM      3  C   UNL     1       6.329   5.367  18.182  0.00  0.00    +0.000 C 
ATOM      4  N   UNL     1       6.275   4.790  16.819  0.00  0.00    +0.000 N 
ATOM      5  C   UNL     1       7.012   5.365  15.791  0.00  0.00    +0.000 C 
ATOM      6  O   UNL     1       7.759   6.325  15.974  0.00  0.00    +0.000 OA
ATOM      7  C   UNL     1       5.480   3.553  16.753  0.00  0.00    +0.000 C 
ATOM      8  C   UNL     1       4.054   3.880  17.214  0.00  0.00    +0.000 C 
ENDROOT
BRANCH   1  15
ATOM      9  C   UNL     1       1.297   4.954  18.286  0.00  0.00    +0.000 C 
ATOM     10  C   UNL     1       1.846   4.121  19.420  0.00  0.00    +0.000 A 
ATOM     11  C   UNL     1       0.917   3.648  20.365  0.00  0.00    +0.000 A 
ATOM     12  C   UNL     1       1.310   2.784  21.379  0.00  0.00    +0.000 A 
ATOM     13  C   UNL     1       2.637   2.386  21.462  0.00  0.00    +0.000 A 
ATOM     14  C   UNL     1       3.571   2.871  20.540  0.00  0.00    +0.000 A 
ATOM     15  C   UNL     1       3.215   3.765  19.517  0.00  0.00    +0.000 A 
ENDBRANCH   1  15
BRANCH   5  16
ATOM     16  C   UNL     1       6.941   4.814  14.415  0.00  0.00    +0.000 A 
ATOM     17  C   UNL     1       7.772   5.209  13.364  0.00  0.00    +0.000 A 
ATOM     18  C   UNL     1       7.553   4.704  12.084  0.00  0.00    +0.000 A 
ATOM     19  C   UNL     1       6.562   3.753  11.913  0.00  0.00    +0.000 A 
ATOM     20  N   UNL     1       5.795   3.283  12.921  0.00  0.00    +0.000 NA
ATOM     21  C   UNL     1       6.006   3.820  14.151  0.00  0.00    +0.000 A 
ENDBRANCH   5  16
TORSDOF 2
ENDMDL
MODEL 8
REMARK VINA RESULT:      -7.1      3.600      5.161
REMARK  Name = 
REMARK  3 active torsions:
REMARK  status: ('A' for Active; 'I' for Inactive)
REMARK    1  A    between atoms: C_1  and  C_2
REMARK    2  A    between atoms: C_7  and  N_8
REMARK    3  A    between atoms: C_12  and  C_14
REMARK                            x       y       z     vdW  Elec       q    Type
REMARK                         _______ _______ _______ _____ _____    ______ ____
ROOT
ATOM      1  N   UNL     1       2.012   7.165  19.885  0.00  0.00    +0.000 N 
ATOM      2  C   UNL     1       1.823   5.825  20.475  0.00  0.00    +0.000 C 
ATOM      3  C   UNL     1       1.945   4.740  19.364  0.00  0.00    +0.000 C 
ATOM      4  N   UNL     1       3.100   4.962  18.465  0.00  0.00    +0.000 N 
ATOM      5  C   UNL     1       3.925   3.899  18.116  0.00  0.00    +0.000 C 
ATOM      6  O   UNL     1       3.709   2.748  18.490  0.00  0.00    +0.000 OA
ATOM      7  C   UNL     1       3.168   6.340  17.951  0.00  0.00    +0.000 C 
ATOM      8  C   UNL     1       3.278   7.289  19.150  0.00  0.00    +0.000 C 
ENDROOT
BRANCH   1  15
ATOM      9  C   UNL     1       1.162   9.294  18.001  0.00  0.00    +0.000 C 
ATOM     10  C   UNL     1       1.033   9.376  19.503  0.00  0.00    +0.000 A 
ATOM     11  C   UNL     1       0.459  10.549  20.027  0.00  0.00    +0.000 A 
ATOM     12  C   UNL     1       0.199  10.668  21.386  0.00  0.00    +0.000 A 
ATOM     13  C   UNL     1       0.512   9.618  22.237  0.00  0.00    +0.000 A 
ATOM     14  C   UNL     1       1.105   8.458  21.727  0.00  0.00    +0.000 A 
ATOM     15  C   UNL     1       1.405   8.311  20.364  0.00  0.00    +0.000 A 
ENDBRANCH   1  15
BRANCH   5  16
ATOM     16  C   UNL     1       5.104   4.117  17.242  0.00  0.00    +0.000 A 
ATOM     17  C   UNL     1       6.376   4.461  17.706  0.00  0.00    +0.000 A 
ATOM     18  C   UNL     1       7.390   4.745  16.793  0.00  0.00    +0.000 A 
ATOM     19  C   UNL     1       7.122   4.593  15.444  0.00  0.00    +0.000 A 
ATOM     20  N   UNL     1       5.930   4.180  14.961  0.00  0.00    +0.000 NA
ATOM     21  C   UNL     1       4.949   3.945  15.872  0.00  0.00    +0.000 A 
ENDBRANCH   5  16
TORSDOF 2
ENDMDL
MODEL 9
REMARK VINA RESULT:      -7.0      5.361      8.143
REMARK  Name = 
REMARK  3 active torsions:
REMARK  status: ('A' for Active; 'I' for Inactive)
REMARK    1  A    between atoms: C_1  and  C_2
REMARK    2  A    between atoms: C_7  and  N_8
REMARK    3  A    between atoms: C_12  and  C_14
REMARK                            x       y       z     vdW  Elec       q    Type
REMARK                         _______ _______ _______ _____ _____    ______ ____
ROOT
ATOM      1  N   UNL     1       2.855   6.727  18.521  0.00  0.00    +0.000 N 
ATOM      2  C   UNL     1       2.198   6.329  19.782  0.00  0.00    +0.000 C 
ATOM      3  C   UNL     1       1.929   7.592  20.654  0.00  0.00    +0.000 C 
ATOM      4  N   UNL     1       1.357   8.717  19.879  0.00  0.00    +0.000 N 
ATOM      5  C   UNL     1       0.282   9.437  20.389  0.00  0.00    +0.000 C 
ATOM      6  O   UNL     1      -0.197   9.207  21.497  0.00  0.00    +0.000 OA
ATOM      7  C   UNL     1       2.109   9.004  18.647  0.00  0.00    +0.000 C 
ATOM      8  C   UNL     1       2.095   7.740  17.778  0.00  0.00    +0.000 C 
ENDROOT
BRANCH   1  15
ATOM      9  C   UNL     1       2.034   4.026  17.606  0.00  0.00    +0.000 C 
ATOM     10  C   UNL     1       3.414   4.610  17.425  0.00  0.00    +0.000 A 
ATOM     11  C   UNL     1       4.362   3.805  16.767  0.00  0.00    +0.000 A 
ATOM     12  C   UNL     1       5.623   4.298  16.457  0.00  0.00    +0.000 A 
ATOM     13  C   UNL     1       5.952   5.601  16.804  0.00  0.00    +0.000 A 
ATOM     14  C   UNL     1       5.023   6.399  17.481  0.00  0.00    +0.000 A 
ATOM     15  C   UNL     1       3.749   5.928  17.833  0.00  0.00    +0.000 A 
ENDBRANCH   1  15
BRANCH   5  16
ATOM     16  C   UNL     1      -0.318  10.545  19.606  0.00  0.00    +0.000 A 
ATOM     17  C   UNL     1      -1.333  10.382  18.660  0.00  0.00    +0.000 A 
ATOM     18  C   UNL     1      -1.755  11.475  17.905  0.00  0.00    +0.000 A 
ATOM     19  C   UNL     1      -1.207  12.715  18.181  0.00  0.00    +0.000 A 
ATOM     20  N   UNL     1      -0.286  12.928  19.146  0.00  0.00    +0.000 NA
ATOM     21  C   UNL     1       0.133  11.838  19.842  0.00  0.00    +0.000 A 
ENDBRANCH   5  16
TORSDOF 2
ENDMDL
