MODEL 1
REMARK VINA RESULT:      -7.9      0.000      0.000
REMARK  Name = 
REMARK  9 active torsions:
REMARK  status: ('A' for Active; 'I' for Inactive)
REMARK    1  A    between atoms: C_1  and  C_2
REMARK    2  A    between atoms: C_2  and  C_3
REMARK    3  A    between atoms: C_3  and  C_4
REMARK    4  A    between atoms: C_3  and  C_19
REMARK    5  A    between atoms: C_5  and  C_6
REMARK    6  A    between atoms: C_6  and  C_7
REMARK    7  A    between atoms: C_7  and  N_8
REMARK    8  A    between atoms: N_8  and  C_9
REMARK    9  A    between atoms: N_8  and  C_10
REMARK                            x       y       z     vdW  Elec       q    Type
REMARK                         _______ _______ _______ _____ _____    ______ ____
ROOT
ATOM      1  C   UNL     1       2.847   6.485  18.874  0.00  0.00    +0.000 C 
ATOM      2  C   UNL     1       2.370   5.975  20.057  0.00  0.00    +0.000 C 
ATOM      3  C   UNL     1       1.478   6.979  20.790  0.00  0.00    +0.000 C 
ATOM      4  C   UNL     1       1.521   8.153  19.883  0.00  0.00    +0.000 A 
ATOM      5  C   UNL     1       0.900   9.393  20.036  0.00  0.00    +0.000 A 
ATOM      6  C   UNL     1       1.072  10.345  19.033  0.00  0.00    +0.000 A 
ATOM      7 CL   UNL     1       0.347  11.897  19.187  0.00  0.00    +0.000 Cl
ATOM      8  C   UNL     1       1.829  10.054  17.895  0.00  0.00    +0.000 A 
ATOM      9  C   UNL     1       2.432   8.805  17.754  0.00  0.00    +0.000 A 
ATOM     10  C   UNL     1       2.298   7.858  18.759  0.00  0.00    +0.000 A 
ENDROOT
BRANCH   1  11
ATOM     11  C   UNL     1       3.715   5.910  17.759  0.00  0.00    +0.000 C 
BRANCH  11  12
ATOM     12  C   UNL     1       5.213   6.083  18.058  0.00  0.00    +0.000 A 
ATOM     13  C   UNL     1       5.975   6.931  17.259  0.00  0.00    +0.000 A 
ATOM     14  C   UNL     1       7.330   7.084  17.534  0.00  0.00    +0.000 A 
ATOM     15  C   UNL     1       7.892   6.400  18.603  0.00  0.00    +0.000 A 
ATOM     16  C   UNL     1       7.071   5.582  19.359  0.00  0.00    +0.000 A 
ATOM     17  N   UNL     1       5.756   5.408  19.104  0.00  0.00    +0.000 NA
ENDBRANCH  11  12
BRANCH  11  19
ATOM     18  C   UNL     1       4.487   3.827  16.426  0.00  0.00    +0.000 C 
ATOM     19  C   UNL     1       3.437   4.438  17.332  0.00  0.00    +0.000 C 
ENDBRANCH  11  19
ENDBRANCH   1  11
BRANCH   2  20
ATOM     20  C   UNL     1       2.514   4.644  20.789  0.00  0.00    +0.000 C 
BRANCH  20  21
ATOM     21  C   UNL     1       1.325   3.674  20.726  0.00  0.00    +0.000 C 
BRANCH  21  22
ATOM     22  N   UNL     1       1.504   2.370  20.051  0.00  0.00    +0.000 NA
ATOM     23  C   UNL     1       0.765   2.410  18.776  0.00  0.00    +0.000 C 
ATOM     24  C   UNL     1       2.908   2.069  19.756  0.00  0.00    +0.000 C 
ENDBRANCH  21  22
ENDBRANCH  20  21
ENDBRANCH   2  20
TORSDOF 6
ENDMDL
MODEL 2
REMARK VINA RESULT:      -7.8      0.854      1.160
REMARK  Name = 
REMARK  9 active torsions:
REMARK  status: ('A' for Active; 'I' for Inactive)
REMARK    1  A    between atoms: C_1  and  C_2
REMARK    2  A    between atoms: C_2  and  C_3
REMARK    3  A    between atoms: C_3  and  C_4
REMARK    4  A    between atoms: C_3  and  C_19
REMARK    5  A    between atoms: C_5  and  C_6
REMARK    6  A    between atoms: C_6  and  C_7
REMARK    7  A    between atoms: C_7  and  N_8
REMARK    8  A    between atoms: N_8  and  C_9
REMARK    9  A    between atoms: N_8  and  C_10
REMARK                            x       y       z     vdW  Elec       q    Type
REMARK                         _______ _______ _______ _____ _____    ______ ____
ROOT
ATOM      1  C   UNL     1       3.255   6.251  18.660  0.00  0.00    +0.000 C 
ATOM      2  C   UNL     1       2.843   5.564  19.776  0.00  0.00    +0.000 C 
ATOM      3  C   UNL     1       1.816   6.358  20.585  0.00  0.00    +0.000 C 
ATOM      4  C   UNL     1       1.706   7.613  19.800  0.00  0.00    +0.000 A 
ATOM      5  C   UNL     1       0.921   8.737  20.062  0.00  0.00    +0.000 A 
ATOM      6  C   UNL     1       0.969   9.799  19.164  0.00  0.00    +0.000 A 
ATOM      7 CL   UNL     1       0.038  11.215  19.455  0.00  0.00    +0.000 Cl
ATOM      8  C   UNL     1       1.768   9.731  18.019  0.00  0.00    +0.000 A 
ATOM      9  C   UNL     1       2.537   8.595  17.768  0.00  0.00    +0.000 A 
ATOM     10  C   UNL     1       2.526   7.541  18.670  0.00  0.00    +0.000 A 
ENDROOT
BRANCH   1  11
ATOM     11  C   UNL     1       4.203   5.913  17.512  0.00  0.00    +0.000 C 
BRANCH  11  12
ATOM     12  C   UNL     1       5.657   6.279  17.851  0.00  0.00    +0.000 A 
ATOM     13  C   UNL     1       6.326   5.570  18.845  0.00  0.00    +0.000 A 
ATOM     14  C   UNL     1       7.642   5.904  19.147  0.00  0.00    +0.000 A 
ATOM     15  C   UNL     1       8.265   6.929  18.447  0.00  0.00    +0.000 A 
ATOM     16  C   UNL     1       7.541   7.583  17.466  0.00  0.00    +0.000 A 
ATOM     17  N   UNL     1       6.259   7.284  17.162  0.00  0.00    +0.000 NA
ENDBRANCH  11  12
BRANCH  11  19
ATOM     18  C   UNL     1       5.086   4.189  15.792  0.00  0.00    +0.000 C 
ATOM     19  C   UNL     1       4.149   4.462  16.951  0.00  0.00    +0.000 C 
ENDBRANCH  11  19
ENDBRANCH   1  11
BRANCH   2  20
ATOM     20  C   UNL     1       3.161   4.196  20.375  0.00  0.00    +0.000 C 
BRANCH  20  21
ATOM     21  C   UNL     1       1.981   3.247  20.629  0.00  0.00    +0.000 C 
BRANCH  21  22
ATOM     22  N   UNL     1       1.737   2.142  19.677  0.00  0.00    +0.000 NA
ATOM     23  C   UNL     1       0.714   2.588  18.711  0.00  0.00    +0.000 C 
ATOM     24  C   UNL     1       2.937   1.761  18.926  0.00  0.00    +0.000 C 
ENDBRANCH  21  22
ENDBRANCH  20  21
ENDBRANCH   2  20
TORSDOF 6
ENDMDL
MODEL 3
REMARK VINA RESULT:      -7.5      2.899      5.103
REMARK  Name = 
REMARK  9 active torsions:
REMARK  status: ('A' for Active; 'I' for Inactive)
REMARK    1  A    between atoms: C_1  and  C_2
REMARK    2  A    between atoms: C_2  and  C_3
REMARK    3  A    between atoms: C_3  and  C_4
REMARK    4  A    between atoms: C_3  and  C_19
REMARK    5  A    between atoms: C_5  and  C_6
REMARK    6  A    between atoms: C_6  and  C_7
REMARK    7  A    between atoms: C_7  and  N_8
REMARK    8  A    between atoms: N_8  and  C_9
REMARK    9  A    between atoms: N_8  and  C_10
REMARK                            x       y       z     vdW  Elec       q    Type
REMARK                         _______ _______ _______ _____ _____    ______ ____
ROOT
ATOM      1  C   UNL     1       3.475   6.193  18.022  0.00  0.00    +0.000 C 
ATOM      2  C   UNL     1       2.681   7.262  18.356  0.00  0.00    +0.000 C 
ATOM      3  C   UNL     1       1.749   6.935  19.524  0.00  0.00    +0.000 C 
ATOM      4  C   UNL     1       2.093   5.519  19.808  0.00  0.00    +0.000 A 
ATOM      5  C   UNL     1       1.550   4.670  20.773  0.00  0.00    +0.000 A 
ATOM      6  C   UNL     1       2.050   3.373  20.866  0.00  0.00    +0.000 A 
ATOM      7 CL   UNL     1       1.397   2.281  22.023  0.00  0.00    +0.000 Cl
ATOM      8  C   UNL     1       3.083   2.944  20.028  0.00  0.00    +0.000 A 
ATOM      9  C   UNL     1       3.621   3.812  19.078  0.00  0.00    +0.000 A 
ATOM     10  C   UNL     1       3.111   5.096  18.950  0.00  0.00    +0.000 A 
ENDROOT
BRANCH   1  11
ATOM     11  C   UNL     1       4.586   5.992  16.994  0.00  0.00    +0.000 C 
BRANCH  11  12
ATOM     12  C   UNL     1       5.947   6.462  17.529  0.00  0.00    +0.000 A 
ATOM     13  C   UNL     1       6.610   5.691  18.481  0.00  0.00    +0.000 A 
ATOM     14  C   UNL     1       7.842   6.121  18.963  0.00  0.00    +0.000 A 
ATOM     15  C   UNL     1       8.391   7.301  18.479  0.00  0.00    +0.000 A 
ATOM     16  C   UNL     1       7.680   8.009  17.527  0.00  0.00    +0.000 A 
ATOM     17  N   UNL     1       6.477   7.619  17.052  0.00  0.00    +0.000 NA
ENDBRANCH  11  12
BRANCH  11  19
ATOM     18  C   UNL     1       5.563   4.505  15.111  0.00  0.00    +0.000 C 
ATOM     19  C   UNL     1       4.732   4.570  16.377  0.00  0.00    +0.000 C 
ENDBRANCH  11  19
ENDBRANCH   1  11
BRANCH   2  20
ATOM     20  C   UNL     1       2.531   8.692  17.842  0.00  0.00    +0.000 C 
BRANCH  20  21
ATOM     21  C   UNL     1       1.136   9.329  17.931  0.00  0.00    +0.000 C 
BRANCH  21  22
ATOM     22  N   UNL     1       0.899  10.386  18.938  0.00  0.00    +0.000 NA
ATOM     23  C   UNL     1       1.729  11.553  18.580  0.00  0.00    +0.000 C 
ATOM     24  C   UNL     1      -0.500  10.820  18.989  0.00  0.00    +0.000 C 
ENDBRANCH  21  22
ENDBRANCH  20  21
ENDBRANCH   2  20
TORSDOF 6
ENDMDL
MODEL 4
REMARK VINA RESULT:      -7.3      1.627      4.655
REMARK  Name = 
REMARK  9 active torsions:
REMARK  status: ('A' for Active; 'I' for Inactive)
REMARK    1  A    between atoms: C_1  and  C_2
REMARK    2  A    between atoms: C_2  and  C_3
REMARK    3  A    between atoms: C_3  and  C_4
REMARK    4  A    between atoms: C_3  and  C_19
REMARK    5  A    between atoms: C_5  and  C_6
REMARK    6  A    between atoms: C_6  and  C_7
REMARK    7  A    between atoms: C_7  and  N_8
REMARK    8  A    between atoms: N_8  and  C_9
REMARK    9  A    between atoms: N_8  and  C_10
REMARK                            x       y       z     vdW  Elec       q    Type
REMARK                         _______ _______ _______ _____ _____    ______ ____
ROOT
ATOM      1  C   UNL     1       3.612   6.337  18.641  0.00  0.00    +0.000 C 
ATOM      2  C   UNL     1       3.994   6.780  17.399  0.00  0.00    +0.000 C 
ATOM      3  C   UNL     1       3.297   8.089  17.023  0.00  0.00    +0.000 C 
ATOM      4  C   UNL     1       2.436   8.333  18.207  0.00  0.00    +0.000 A 
ATOM      5  C   UNL     1       1.547   9.384  18.434  0.00  0.00    +0.000 A 
ATOM      6  C   UNL     1       0.854   9.414  19.641  0.00  0.00    +0.000 A 
ATOM      7 CL   UNL     1      -0.270  10.676  19.958  0.00  0.00    +0.000 Cl
ATOM      8  C   UNL     1       1.061   8.425  20.608  0.00  0.00    +0.000 A 
ATOM      9  C   UNL     1       1.962   7.388  20.368  0.00  0.00    +0.000 A 
ATOM     10  C   UNL     1       2.636   7.326  19.156  0.00  0.00    +0.000 A 
ENDROOT
BRANCH   1  11
ATOM     11  C   UNL     1       4.023   5.145  19.502  0.00  0.00    +0.000 C 
BRANCH  11  12
ATOM     12  C   UNL     1       2.958   4.037  19.484  0.00  0.00    +0.000 A 
ATOM     13  C   UNL     1       2.158   3.840  20.607  0.00  0.00    +0.000 A 
ATOM     14  C   UNL     1       1.195   2.836  20.585  0.00  0.00    +0.000 A 
ATOM     15  C   UNL     1       1.044   2.059  19.445  0.00  0.00    +0.000 A 
ATOM     16  C   UNL     1       1.867   2.318  18.364  0.00  0.00    +0.000 A 
ATOM     17  N   UNL     1       2.817   3.279  18.365  0.00  0.00    +0.000 NA
ENDBRANCH  11  12
BRANCH  11  19
ATOM     18  C   UNL     1       6.593   5.463  19.444  0.00  0.00    +0.000 C 
ATOM     19  C   UNL     1       5.424   4.523  19.228  0.00  0.00    +0.000 C 
ENDBRANCH  11  19
ENDBRANCH   1  11
BRANCH   2  20
ATOM     20  C   UNL     1       4.959   6.277  16.328  0.00  0.00    +0.000 C 
BRANCH  20  21
ATOM     21  C   UNL     1       4.768   4.838  15.829  0.00  0.00    +0.000 C 
BRANCH  21  22
ATOM     22  N   UNL     1       5.962   4.040  15.477  0.00  0.00    +0.000 NA
ATOM     23  C   UNL     1       6.016   3.920  14.007  0.00  0.00    +0.000 C 
ATOM     24  C   UNL     1       7.212   4.657  15.930  0.00  0.00    +0.000 C 
ENDBRANCH  21  22
ENDBRANCH  20  21
ENDBRANCH   2  20
TORSDOF 6
ENDMDL
MODEL 5
REMARK VINA RESULT:      -7.3      0.789      1.121
REMARK  Name = 
REMARK  9 active torsions:
REMARK  status: ('A' for Active; 'I' for Inactive)
REMARK    1  A    between atoms: C_1  and  C_2
REMARK    2  A    between atoms: C_2  and  C_3
REMARK    3  A    between atoms: C_3  and  C_4
REMARK    4  A    between atoms: C_3  and  C_19
REMARK    5  A    between atoms: C_5  and  C_6
REMARK    6  A    between atoms: C_6  and  C_7
REMARK    7  A    between atoms: C_7  and  N_8
REMARK    8  A    between atoms: N_8  and  C_9
REMARK    9  A    between atoms: N_8  and  C_10
REMARK                            x       y       z     vdW  Elec       q    Type
REMARK                         _______ _______ _______ _____ _____    ______ ____
ROOT
ATOM      1  C   UNL     1       2.623   6.773  18.962  0.00  0.00    +0.000 C 
ATOM      2  C   UNL     1       2.177   6.384  20.201  0.00  0.00    +0.000 C 
ATOM      3  C   UNL     1       1.395   7.499  20.899  0.00  0.00    +0.000 C 
ATOM      4  C   UNL     1       1.469   8.599  19.905  0.00  0.00    +0.000 A 
ATOM      5  C   UNL     1       0.943   9.888  19.994  0.00  0.00    +0.000 A 
ATOM      6  C   UNL     1       1.124  10.751  18.916  0.00  0.00    +0.000 A 
ATOM      7 CL   UNL     1       0.515  12.357  18.988  0.00  0.00    +0.000 Cl
ATOM      8  C   UNL     1       1.797  10.326  17.767  0.00  0.00    +0.000 A 
ATOM      9  C   UNL     1       2.306   9.030  17.692  0.00  0.00    +0.000 A 
ATOM     10  C   UNL     1       2.163   8.169  18.771  0.00  0.00    +0.000 A 
ENDROOT
BRANCH   1  11
ATOM     11  C   UNL     1       3.389   6.058  17.852  0.00  0.00    +0.000 C 
BRANCH  11  12
ATOM     12  C   UNL     1       4.908   6.118  18.081  0.00  0.00    +0.000 A 
ATOM     13  C   UNL     1       5.694   6.907  17.246  0.00  0.00    +0.000 A 
ATOM     14  C   UNL     1       7.068   6.957  17.458  0.00  0.00    +0.000 A 
ATOM     15  C   UNL     1       7.626   6.231  18.501  0.00  0.00    +0.000 A 
ATOM     16  C   UNL     1       6.782   5.477  19.296  0.00  0.00    +0.000 A 
ATOM     17  N   UNL     1       5.446   5.402  19.103  0.00  0.00    +0.000 NA
ENDBRANCH  11  12
BRANCH  11  19
ATOM     18  C   UNL     1       1.475   4.368  17.412  0.00  0.00    +0.000 C 
ATOM     19  C   UNL     1       2.970   4.594  17.531  0.00  0.00    +0.000 C 
ENDBRANCH  11  19
ENDBRANCH   1  11
BRANCH   2  20
ATOM     20  C   UNL     1       2.270   5.102  21.024  0.00  0.00    +0.000 C 
BRANCH  20  21
ATOM     21  C   UNL     1       1.242   4.000  20.729  0.00  0.00    +0.000 C 
BRANCH  21  22
ATOM     22  N   UNL     1       1.664   2.586  20.825  0.00  0.00    +0.000 NA
ATOM     23  C   UNL     1       3.082   2.504  20.428  0.00  0.00    +0.000 C 
ATOM     24  C   UNL     1       1.538   2.045  22.182  0.00  0.00    +0.000 C 
ENDBRANCH  21  22
ENDBRANCH  20  21
ENDBRANCH   2  20
TORSDOF 6
ENDMDL
MODEL 6
REMARK VINA RESULT:      -7.2      1.039      1.512
REMARK  Name = 
REMARK  9 active torsions:
REMARK  status: ('A' for Active; 'I' for Inactive)
REMARK    1  A    between atoms: C_1  and  C_2
REMARK    2  A    between atoms: C_2  and  C_3
REMARK    3  A    between atoms: C_3  and  C_4
REMARK    4  A    between atoms: C_3  and  C_19
REMARK    5  A    between atoms: C_5  and  C_6
REMARK    6  A    between atoms: C_6  and  C_7
REMARK    7  A    between atoms: C_7  and  N_8
REMARK    8  A    between atoms: N_8  and  C_9
REMARK    9  A    between atoms: N_8  and  C_10
REMARK                            x       y       z     vdW  Elec       q    Type
REMARK                         _______ _______ _______ _____ _____    ______ ____
ROOT
ATOM      1  C   UNL     1       3.041   6.448  18.770  0.00  0.00    +0.000 C 
ATOM      2  C   UNL     1       2.622   5.821  19.917  0.00  0.00    +0.000 C 
ATOM      3  C   UNL     1       1.642   6.686  20.712  0.00  0.00    +0.000 C 
ATOM      4  C   UNL     1       1.569   7.914  19.882  0.00  0.00    +0.000 A 
ATOM      5  C   UNL     1       0.834   9.078  20.115  0.00  0.00    +0.000 A 
ATOM      6  C   UNL     1       0.909  10.104  19.176  0.00  0.00    +0.000 A 
ATOM      7 CL   UNL     1       0.041  11.566  19.429  0.00  0.00    +0.000 Cl
ATOM      8  C   UNL     1       1.684   9.960  18.021  0.00  0.00    +0.000 A 
ATOM      9  C   UNL     1       2.402   8.785  17.801  0.00  0.00    +0.000 A 
ATOM     10  C   UNL     1       2.365   7.767  18.743  0.00  0.00    +0.000 A 
ENDROOT
BRANCH   1  11
ATOM     11  C   UNL     1       3.955   6.030  17.620  0.00  0.00    +0.000 C 
BRANCH  11  12
ATOM     12  C   UNL     1       5.438   6.226  17.972  0.00  0.00    +0.000 A 
ATOM     13  C   UNL     1       5.999   5.480  19.005  0.00  0.00    +0.000 A 
ATOM     14  C   UNL     1       7.341   5.662  19.321  0.00  0.00    +0.000 A 
ATOM     15  C   UNL     1       8.097   6.573  18.595  0.00  0.00    +0.000 A 
ATOM     16  C   UNL     1       7.474   7.272  17.576  0.00  0.00    +0.000 A 
ATOM     17  N   UNL     1       6.169   7.122  17.259  0.00  0.00    +0.000 NA
ENDBRANCH  11  12
BRANCH  11  19
ATOM     18  C   UNL     1       4.837   4.134  16.091  0.00  0.00    +0.000 C 
ATOM     19  C   UNL     1       3.744   4.605  17.030  0.00  0.00    +0.000 C 
ENDBRANCH  11  19
ENDBRANCH   1  11
BRANCH   2  20
ATOM     20  C   UNL     1       2.896   4.465  20.562  0.00  0.00    +0.000 C 
BRANCH  20  21
ATOM     21  C   UNL     1       2.713   3.218  19.684  0.00  0.00    +0.000 C 
BRANCH  21  22
ATOM     22  N   UNL     1       3.905   2.423  19.317  0.00  0.00    +0.000 NA
ATOM     23  C   UNL     1       4.540   1.949  20.561  0.00  0.00    +0.000 C 
ATOM     24  C   UNL     1       3.578   1.253  18.496  0.00  0.00    +0.000 C 
ENDBRANCH  21  22
ENDBRANCH  20  21
ENDBRANCH   2  20
TORSDOF 6
ENDMDL
MODEL 7
REMARK VINA RESULT:      -7.1      1.052      1.462
REMARK  Name = 
REMARK  9 active torsions:
REMARK  status: ('A' for Active; 'I' for Inactive)
REMARK    1  A    between atoms: C_1  and  C_2
REMARK    2  A    between atoms: C_2  and  C_3
REMARK    3  A    between atoms: C_3  and  C_4
REMARK    4  A    between atoms: C_3  and  C_19
REMARK    5  A    between atoms: C_5  and  C_6
REMARK    6  A    between atoms: C_6  and  C_7
REMARK    7  A    between atoms: C_7  and  N_8
REMARK    8  A    between atoms: N_8  and  C_9
REMARK    9  A    between atoms: N_8  and  C_10
REMARK                            x       y       z     vdW  Elec       q    Type
REMARK                         _______ _______ _______ _____ _____    ______ ____
ROOT
ATOM      1  C   UNL     1       2.451   6.646  18.969  0.00  0.00    +0.000 C 
ATOM      2  C   UNL     1       1.929   6.236  20.171  0.00  0.00    +0.000 C 
ATOM      3  C   UNL     1       1.207   7.374  20.895  0.00  0.00    +0.000 C 
ATOM      4  C   UNL     1       1.401   8.510  19.959  0.00  0.00    +0.000 A 
ATOM      5  C   UNL     1       0.970   9.830  20.093  0.00  0.00    +0.000 A 
ATOM      6  C   UNL     1       1.257  10.725  19.066  0.00  0.00    +0.000 A 
ATOM      7 CL   UNL     1       0.767  12.369  19.195  0.00  0.00    +0.000 Cl
ATOM      8  C   UNL     1       1.940  10.304  17.922  0.00  0.00    +0.000 A 
ATOM      9  C   UNL     1       2.353   8.977  17.801  0.00  0.00    +0.000 A 
ATOM     10  C   UNL     1       2.105   8.081  18.830  0.00  0.00    +0.000 A 
ENDROOT
BRANCH   1  11
ATOM     11  C   UNL     1       3.204   5.927  17.853  0.00  0.00    +0.000 C 
BRANCH  11  12
ATOM     12  C   UNL     1       4.725   6.083  18.003  0.00  0.00    +0.000 A 
ATOM     13  C   UNL     1       5.392   5.363  18.991  0.00  0.00    +0.000 A 
ATOM     14  C   UNL     1       6.769   5.507  19.122  0.00  0.00    +0.000 A 
ATOM     15  C   UNL     1       7.452   6.356  18.262  0.00  0.00    +0.000 A 
ATOM     16  C   UNL     1       6.726   7.032  17.298  0.00  0.00    +0.000 A 
ATOM     17  N   UNL     1       5.387   6.917  17.158  0.00  0.00    +0.000 NA
ENDBRANCH  11  12
BRANCH  11  19
ATOM     18  C   UNL     1       1.380   4.138  17.425  0.00  0.00    +0.000 C 
ATOM     19  C   UNL     1       2.855   4.429  17.614  0.00  0.00    +0.000 C 
ENDBRANCH  11  19
ENDBRANCH   1  11
BRANCH   2  20
ATOM     20  C   UNL     1       1.894   4.914  20.932  0.00  0.00    +0.000 C 
BRANCH  20  21
ATOM     21  C   UNL     1       3.208   4.125  21.034  0.00  0.00    +0.000 C 
BRANCH  21  22
ATOM     22  N   UNL     1       3.160   2.648  20.959  0.00  0.00    +0.000 NA
ATOM     23  C   UNL     1       1.823   2.257  20.475  0.00  0.00    +0.000 C 
ATOM     24  C   UNL     1       4.159   2.092  20.042  0.00  0.00    +0.000 C 
ENDBRANCH  21  22
ENDBRANCH  20  21
ENDBRANCH   2  20
TORSDOF 6
ENDMDL
MODEL 8
REMARK VINA RESULT:      -7.0      1.650      4.646
REMARK  Name = 
REMARK  9 active torsions:
REMARK  status: ('A' for Active; 'I' for Inactive)
REMARK    1  A    between atoms: C_1  and  C_2
REMARK    2  A    between atoms: C_2  and  C_3
REMARK    3  A    between atoms: C_3  and  C_4
REMARK    4  A    between atoms: C_3  and  C_19
REMARK    5  A    between atoms: C_5  and  C_6
REMARK    6  A    between atoms: C_6  and  C_7
REMARK    7  A    between atoms: C_7  and  N_8
REMARK    8  A    between atoms: N_8  and  C_9
REMARK    9  A    between atoms: N_8  and  C_10
REMARK                            x       y       z     vdW  Elec       q    Type
REMARK                         _______ _______ _______ _____ _____    ______ ____
ROOT
ATOM      1  C   UNL     1       3.522   6.491  18.816  0.00  0.00    +0.000 C 
ATOM      2  C   UNL     1       3.872   7.110  17.641  0.00  0.00    +0.000 C 
ATOM      3  C   UNL     1       3.086   8.404  17.424  0.00  0.00    +0.000 C 
ATOM      4  C   UNL     1       2.211   8.440  18.622  0.00  0.00    +0.000 A 
ATOM      5  C   UNL     1       1.252   9.392  18.970  0.00  0.00    +0.000 A 
ATOM      6  C   UNL     1       0.559   9.224  20.166  0.00  0.00    +0.000 A 
ATOM      7 CL   UNL     1      -0.649  10.357  20.627  0.00  0.00    +0.000 Cl
ATOM      8  C   UNL     1       0.834   8.140  21.005  0.00  0.00    +0.000 A 
ATOM      9  C   UNL     1       1.804   7.205  20.645  0.00  0.00    +0.000 A 
ATOM     10  C   UNL     1       2.480   7.340  19.441  0.00  0.00    +0.000 A 
ENDROOT
BRANCH   1  11
ATOM     11  C   UNL     1       4.014   5.232  19.525  0.00  0.00    +0.000 C 
BRANCH  11  12
ATOM     12  C   UNL     1       2.942   4.132  19.540  0.00  0.00    +0.000 A 
ATOM     13  C   UNL     1       2.370   3.718  18.340  0.00  0.00    +0.000 A 
ATOM     14  C   UNL     1       1.399   2.722  18.359  0.00  0.00    +0.000 A 
ATOM     15  C   UNL     1       1.027   2.154  19.571  0.00  0.00    +0.000 A 
ATOM     16  C   UNL     1       1.645   2.609  20.722  0.00  0.00    +0.000 A 
ATOM     17  N   UNL     1       2.581   3.583  20.730  0.00  0.00    +0.000 NA
ENDBRANCH  11  12
BRANCH  11  19
ATOM     18  C   UNL     1       6.594   5.444  19.412  0.00  0.00    +0.000 C 
ATOM     19  C   UNL     1       5.368   4.632  19.044  0.00  0.00    +0.000 C 
ENDBRANCH  11  19
ENDBRANCH   1  11
BRANCH   2  20
ATOM     20  C   UNL     1       4.869   6.811  16.524  0.00  0.00    +0.000 C 
BRANCH  20  21
ATOM     21  C   UNL     1       4.860   5.393  15.934  0.00  0.00    +0.000 C 
BRANCH  21  22
ATOM     22  N   UNL     1       5.933   5.006  14.992  0.00  0.00    +0.000 NA
ATOM     23  C   UNL     1       7.065   4.481  15.779  0.00  0.00    +0.000 C 
ATOM     24  C   UNL     1       5.513   3.967  14.047  0.00  0.00    +0.000 C 
ENDBRANCH  21  22
ENDBRANCH  20  21
ENDBRANCH   2  20
TORSDOF 6
ENDMDL
MODEL 9
REMARK VINA RESULT:      -6.9      1.454      4.848
REMARK  Name = 
REMARK  9 active torsions:
REMARK  status: ('A' for Active; 'I' for Inactive)
REMARK    1  A    between atoms: C_1  and  C_2
REMARK    2  A    between atoms: C_2  and  C_3
REMARK    3  A    between atoms: C_3  and  C_4
REMARK    4  A    between atoms: C_3  and  C_19
REMARK    5  A    between atoms: C_5  and  C_6
REMARK    6  A    between atoms: C_6  and  C_7
REMARK    7  A    between atoms: C_7  and  N_8
REMARK    8  A    between atoms: N_8  and  C_9
REMARK    9  A    between atoms: N_8  and  C_10
REMARK                            x       y       z     vdW  Elec       q    Type
REMARK                         _______ _______ _______ _____ _____    ______ ____
ROOT
ATOM      1  C   UNL     1       3.226   6.574  18.955  0.00  0.00    +0.000 C 
ATOM      2  C   UNL     1       3.614   6.989  17.705  0.00  0.00    +0.000 C 
ATOM      3  C   UNL     1       2.920   8.290  17.298  0.00  0.00    +0.000 C 
ATOM      4  C   UNL     1       2.055   8.561  18.474  0.00  0.00    +0.000 A 
ATOM      5  C   UNL     1       1.167   9.619  18.674  0.00  0.00    +0.000 A 
ATOM      6  C   UNL     1       0.470   9.675  19.879  0.00  0.00    +0.000 A 
ATOM      7 CL   UNL     1      -0.653  10.946  20.164  0.00  0.00    +0.000 Cl
ATOM      8  C   UNL     1       0.672   8.708  20.867  0.00  0.00    +0.000 A 
ATOM      9  C   UNL     1       1.572   7.665  20.652  0.00  0.00    +0.000 A 
ATOM     10  C   UNL     1       2.250   7.576  19.445  0.00  0.00    +0.000 A 
ENDROOT
BRANCH   1  11
ATOM     11  C   UNL     1       3.633   5.400  19.842  0.00  0.00    +0.000 C 
BRANCH  11  12
ATOM     12  C   UNL     1       2.543   4.317  19.886  0.00  0.00    +0.000 A 
ATOM     13  C   UNL     1       2.230   3.712  21.100  0.00  0.00    +0.000 A 
ATOM     14  C   UNL     1       1.242   2.732  21.134  0.00  0.00    +0.000 A 
ATOM     15  C   UNL     1       0.583   2.385  19.962  0.00  0.00    +0.000 A 
ATOM     16  C   UNL     1       0.941   3.035  18.795  0.00  0.00    +0.000 A 
ATOM     17  N   UNL     1       1.904   3.981  18.734  0.00  0.00    +0.000 NA
ENDBRANCH  11  12
BRANCH  11  19
ATOM     18  C   UNL     1       4.943   3.395  18.854  0.00  0.00    +0.000 C 
ATOM     19  C   UNL     1       5.012   4.738  19.554  0.00  0.00    +0.000 C 
ENDBRANCH  11  19
ENDBRANCH   1  11
BRANCH   2  20
ATOM     20  C   UNL     1       4.582   6.462  16.649  0.00  0.00    +0.000 C 
BRANCH  20  21
ATOM     21  C   UNL     1       5.954   7.144  16.548  0.00  0.00    +0.000 C 
BRANCH  21  22
ATOM     22  N   UNL     1       7.172   6.309  16.623  0.00  0.00    +0.000 NA
ATOM     23  C   UNL     1       7.658   6.332  18.016  0.00  0.00    +0.000 C 
ATOM     24  C   UNL     1       6.930   4.913  16.247  0.00  0.00    +0.000 C 
ENDBRANCH  21  22
ENDBRANCH  20  21
ENDBRANCH   2  20
TORSDOF 6
ENDMDL
