MODEL 1
REMARK VINA RESULT:      -6.2      0.000      0.000
REMARK  Name = 
REMARK  6 active torsions:
REMARK  status: ('A' for Active; 'I' for Inactive)
REMARK    1  A    between atoms: N_1  and  CA_2
REMARK    2  A    between atoms: CA_2  and  C_3
REMARK    3  A    between atoms: CA_2  and  C_11
REMARK    4  A    between atoms: C_3  and  C_4
REMARK    5  A    between atoms: C_8  and  O_9
REMARK    6  A    between atoms: C_11  and  OXT_13
REMARK                            x       y       z     vdW  Elec       q    Type
REMARK                         _______ _______ _______ _____ _____    ______ ____
ROOT
ATOM      1  C   UNL     1       5.656   5.443  16.819  0.00  0.00    +0.000 C 
ENDROOT
BRANCH   1   2
ATOM      2  C   UNL     1       4.296   4.956  17.265  0.00  0.00    +0.000 A 
ATOM      3  C   UNL     1       3.330   5.859  17.729  0.00  0.00    +0.000 A 
ATOM      4  C   UNL     1       2.075   5.407  18.143  0.00  0.00    +0.000 A 
ATOM      5  C   UNL     1       1.767   4.048  18.093  0.00  0.00    +0.000 A 
ATOM      6  C   UNL     1       2.725   3.150  17.630  0.00  0.00    +0.000 A 
ATOM      7  C   UNL     1       3.980   3.591  17.222  0.00  0.00    +0.000 A 
BRANCH   6   8
ATOM      8  O   UNL     1       2.464   1.814  17.555  0.00  0.00    +0.000 OA
ATOM      9  H   UNL     1       3.303   1.337  17.446  0.00  0.00    +0.000 HD
ENDBRANCH   6   8
ENDBRANCH   1   2
BRANCH   1  10
ATOM     10  CA  UNL     1       6.591   4.318  16.345  0.00  0.00    +0.000 C 
BRANCH  10  11
ATOM     11  N   UNL     1       7.880   4.241  17.107  0.00  0.00    +0.000 NA
ATOM     12  H1  UNL     1       8.142   5.204  17.347  0.00  0.00    +0.000 HD
ATOM     13  H2  UNL     1       8.613   3.940  16.456  0.00  0.00    +0.000 HD
ENDBRANCH  10  11
BRANCH  10  14
ATOM     14  C   UNL     1       6.944   4.509  14.860  0.00  0.00    +0.000 C 
ATOM     15  O   UNL     1       7.630   5.405  14.395  0.00  0.00    +0.000 OA
BRANCH  14  16
ATOM     16  OXT UNL     1       6.363   3.544  14.096  0.00  0.00    +0.000 OA
ATOM     17  HXT UNL     1       5.623   3.175  14.644  0.00  0.00    +0.000 HD
ENDBRANCH  14  16
ENDBRANCH  10  14
ENDBRANCH   1  10
TORSDOF 6
ENDMDL
MODEL 2
REMARK VINA RESULT:      -5.9      1.538      1.794
REMARK  Name = 
REMARK  6 active torsions:
REMARK  status: ('A' for Active; 'I' for Inactive)
REMARK    1  A    between atoms: N_1  and  CA_2
REMARK    2  A    between atoms: CA_2  and  C_3
REMARK    3  A    between atoms: CA_2  and  C_11
REMARK    4  A    between atoms: C_3  and  C_4
REMARK    5  A    between atoms: C_8  and  O_9
REMARK    6  A    between atoms: C_11  and  OXT_13
REMARK                            x       y       z     vdW  Elec       q    Type
REMARK                         _______ _______ _______ _____ _____    ______ ____
ROOT
ATOM      1  C   UNL     1       4.824   4.090  16.196  0.00  0.00    +0.000 C 
ENDROOT
BRANCH   1   2
ATOM      2  C   UNL     1       3.668   4.051  17.170  0.00  0.00    +0.000 A 
ATOM      3  C   UNL     1       3.224   5.221  17.801  0.00  0.00    +0.000 A 
ATOM      4  C   UNL     1       2.158   5.182  18.702  0.00  0.00    +0.000 A 
ATOM      5  C   UNL     1       1.518   3.974  18.980  0.00  0.00    +0.000 A 
ATOM      6  C   UNL     1       1.957   2.812  18.353  0.00  0.00    +0.000 A 
ATOM      7  C   UNL     1       3.023   2.840  17.459  0.00  0.00    +0.000 A 
BRANCH   6   8
ATOM      8  O   UNL     1       1.355   1.612  18.588  0.00  0.00    +0.000 OA
ATOM      9  H   UNL     1       0.511   1.586  18.108  0.00  0.00    +0.000 HD
ENDBRANCH   6   8
ENDBRANCH   1   2
BRANCH   1  10
ATOM     10  CA  UNL     1       5.716   5.335  16.344  0.00  0.00    +0.000 C 
BRANCH  10  11
ATOM     11  N   UNL     1       5.396   6.426  15.368  0.00  0.00    +0.000 NA
ATOM     12  H1  UNL     1       5.500   6.027  14.428  0.00  0.00    +0.000 HD
ATOM     13  H2  UNL     1       6.143   7.127  15.423  0.00  0.00    +0.000 HD
ENDBRANCH  10  11
BRANCH  10  14
ATOM     14  C   UNL     1       7.194   4.957  16.145  0.00  0.00    +0.000 C 
ATOM     15  O   UNL     1       7.905   4.391  16.959  0.00  0.00    +0.000 OA
BRANCH  14  16
ATOM     16  OXT UNL     1       7.637   5.361  14.923  0.00  0.00    +0.000 OA
ATOM     17  HXT UNL     1       6.823   5.561  14.393  0.00  0.00    +0.000 HD
ENDBRANCH  14  16
ENDBRANCH  10  14
ENDBRANCH   1  10
TORSDOF 6
ENDMDL
MODEL 3
REMARK VINA RESULT:      -5.9      2.035      2.363
REMARK  Name = 
REMARK  6 active torsions:
REMARK  status: ('A' for Active; 'I' for Inactive)
REMARK    1  A    between atoms: N_1  and  CA_2
REMARK    2  A    between atoms: CA_2  and  C_3
REMARK    3  A    between atoms: CA_2  and  C_11
REMARK    4  A    between atoms: C_3  and  C_4
REMARK    5  A    between atoms: C_8  and  O_9
REMARK    6  A    between atoms: C_11  and  OXT_13
REMARK                            x       y       z     vdW  Elec       q    Type
REMARK                         _______ _______ _______ _____ _____    ______ ____
ROOT
ATOM      1  C   UNL     1       5.966   4.932  18.815  0.00  0.00    +0.000 C 
ENDROOT
BRANCH   1   2
ATOM      2  C   UNL     1       4.530   4.643  18.442  0.00  0.00    +0.000 A 
ATOM      3  C   UNL     1       3.600   5.684  18.319  0.00  0.00    +0.000 A 
ATOM      4  C   UNL     1       2.272   5.414  17.977  0.00  0.00    +0.000 A 
ATOM      5  C   UNL     1       1.860   4.101  17.750  0.00  0.00    +0.000 A 
ATOM      6  C   UNL     1       2.783   3.068  17.871  0.00  0.00    +0.000 A 
ATOM      7  C   UNL     1       4.106   3.326  18.218  0.00  0.00    +0.000 A 
BRANCH   6   8
ATOM      8  O   UNL     1       2.425   1.771  17.649  0.00  0.00    +0.000 OA
ATOM      9  H   UNL     1       3.172   1.196  17.883  0.00  0.00    +0.000 HD
ENDBRANCH   6   8
ENDBRANCH   1   2
BRANCH   1  10
ATOM     10  CA  UNL     1       6.866   5.257  17.611  0.00  0.00    +0.000 C 
BRANCH  10  11
ATOM     11  N   UNL     1       7.937   4.238  17.364  0.00  0.00    +0.000 NA
ATOM     12  H1  UNL     1       8.400   4.068  18.264  0.00  0.00    +0.000 HD
ATOM     13  H2  UNL     1       8.664   4.678  16.790  0.00  0.00    +0.000 HD
ENDBRANCH  10  11
BRANCH  10  14
ATOM     14  C   UNL     1       7.559   6.615  17.815  0.00  0.00    +0.000 C 
ATOM     15  O   UNL     1       7.552   7.549  17.030  0.00  0.00    +0.000 OA
BRANCH  14  16
ATOM     16  OXT UNL     1       8.222   6.646  19.003  0.00  0.00    +0.000 OA
ATOM     17  HXT UNL     1       9.122   7.011  18.801  0.00  0.00    +0.000 HD
ENDBRANCH  14  16
ENDBRANCH  10  14
ENDBRANCH   1  10
TORSDOF 6
ENDMDL
MODEL 4
REMARK VINA RESULT:      -5.9      2.085      2.544
REMARK  Name = 
REMARK  6 active torsions:
REMARK  status: ('A' for Active; 'I' for Inactive)
REMARK    1  A    between atoms: N_1  and  CA_2
REMARK    2  A    between atoms: CA_2  and  C_3
REMARK    3  A    between atoms: CA_2  and  C_11
REMARK    4  A    between atoms: C_3  and  C_4
REMARK    5  A    between atoms: C_8  and  O_9
REMARK    6  A    between atoms: C_11  and  OXT_13
REMARK                            x       y       z     vdW  Elec       q    Type
REMARK                         _______ _______ _______ _____ _____    ______ ____
ROOT
ATOM      1  C   UNL     1       4.787   4.173  16.333  0.00  0.00    +0.000 C 
ENDROOT
BRANCH   1   2
ATOM      2  C   UNL     1       3.677   4.223  17.359  0.00  0.00    +0.000 A 
ATOM      3  C   UNL     1       2.583   3.353  17.273  0.00  0.00    +0.000 A 
ATOM      4  C   UNL     1       1.557   3.404  18.220  0.00  0.00    +0.000 A 
ATOM      5  C   UNL     1       1.616   4.322  19.268  0.00  0.00    +0.000 A 
ATOM      6  C   UNL     1       2.703   5.185  19.356  0.00  0.00    +0.000 A 
ATOM      7  C   UNL     1       3.726   5.147  18.413  0.00  0.00    +0.000 A 
BRANCH   6   8
ATOM      8  O   UNL     1       2.806   6.092  20.370  0.00  0.00    +0.000 OA
ATOM      9  H   UNL     1       2.269   5.785  21.119  0.00  0.00    +0.000 HD
ENDBRANCH   6   8
ENDBRANCH   1   2
BRANCH   1  10
ATOM     10  CA  UNL     1       5.718   5.396  16.368  0.00  0.00    +0.000 C 
BRANCH  10  11
ATOM     11  N   UNL     1       5.361   6.456  15.370  0.00  0.00    +0.000 NA
ATOM     12  H1  UNL     1       6.217   6.672  14.845  0.00  0.00    +0.000 HD
ATOM     13  H2  UNL     1       5.163   7.320  15.885  0.00  0.00    +0.000 HD
ENDBRANCH  10  11
BRANCH  10  14
ATOM     14  C   UNL     1       7.169   4.969  16.088  0.00  0.00    +0.000 C 
ATOM     15  O   UNL     1       7.906   4.381  16.863  0.00  0.00    +0.000 OA
BRANCH  14  16
ATOM     16  OXT UNL     1       7.556   5.355  14.841  0.00  0.00    +0.000 OA
ATOM     17  HXT UNL     1       8.435   4.925  14.686  0.00  0.00    +0.000 HD
ENDBRANCH  14  16
ENDBRANCH  10  14
ENDBRANCH   1  10
TORSDOF 6
ENDMDL
MODEL 5
REMARK VINA RESULT:      -5.8      1.882      2.118
REMARK  Name = 
REMARK  6 active torsions:
REMARK  status: ('A' for Active; 'I' for Inactive)
REMARK    1  A    between atoms: N_1  and  CA_2
REMARK    2  A    between atoms: CA_2  and  C_3
REMARK    3  A    between atoms: CA_2  and  C_11
REMARK    4  A    between atoms: C_3  and  C_4
REMARK    5  A    between atoms: C_8  and  O_9
REMARK    6  A    between atoms: C_11  and  OXT_13
REMARK                            x       y       z     vdW  Elec       q    Type
REMARK                         _______ _______ _______ _____ _____    ______ ____
ROOT
ATOM      1  C   UNL     1       4.589   4.311  16.438  0.00  0.00    +0.000 C 
ENDROOT
BRANCH   1   2
ATOM      2  C   UNL     1       3.451   4.179  17.425  0.00  0.00    +0.000 A 
ATOM      3  C   UNL     1       3.168   5.207  18.333  0.00  0.00    +0.000 A 
ATOM      4  C   UNL     1       2.118   5.081  19.246  0.00  0.00    +0.000 A 
ATOM      5  C   UNL     1       1.336   3.927  19.259  0.00  0.00    +0.000 A 
ATOM      6  C   UNL     1       1.615   2.906  18.357  0.00  0.00    +0.000 A 
ATOM      7  C   UNL     1       2.663   3.019  17.449  0.00  0.00    +0.000 A 
BRANCH   6   8
ATOM      8  O   UNL     1       0.869   1.764  18.329  0.00  0.00    +0.000 OA
ATOM      9  H   UNL     1       0.594   1.548  19.235  0.00  0.00    +0.000 HD
ENDBRANCH   6   8
ENDBRANCH   1   2
BRANCH   1  10
ATOM     10  CA  UNL     1       5.661   5.330  16.862  0.00  0.00    +0.000 C 
BRANCH  10  11
ATOM     11  N   UNL     1       6.024   6.308  15.786  0.00  0.00    +0.000 NA
ATOM     12  H1  UNL     1       7.041   6.442  15.836  0.00  0.00    +0.000 HD
ATOM     13  H2  UNL     1       5.642   7.222  16.050  0.00  0.00    +0.000 HD
ENDBRANCH  10  11
BRANCH  10  14
ATOM     14  C   UNL     1       6.950   4.603  17.280  0.00  0.00    +0.000 C 
ATOM     15  O   UNL     1       7.948   4.459  16.593  0.00  0.00    +0.000 OA
BRANCH  14  16
ATOM     16  OXT UNL     1       6.837   4.102  18.541  0.00  0.00    +0.000 OA
ATOM     17  HXT UNL     1       6.262   3.298  18.462  0.00  0.00    +0.000 HD
ENDBRANCH  14  16
ENDBRANCH  10  14
ENDBRANCH   1  10
TORSDOF 6
ENDMDL
MODEL 6
REMARK VINA RESULT:      -5.8      2.278      2.721
REMARK  Name = 
REMARK  6 active torsions:
REMARK  status: ('A' for Active; 'I' for Inactive)
REMARK    1  A    between atoms: N_1  and  CA_2
REMARK    2  A    between atoms: CA_2  and  C_3
REMARK    3  A    between atoms: CA_2  and  C_11
REMARK    4  A    between atoms: C_3  and  C_4
REMARK    5  A    between atoms: C_8  and  O_9
REMARK    6  A    between atoms: C_11  and  OXT_13
REMARK                            x       y       z     vdW  Elec       q    Type
REMARK                         _______ _______ _______ _____ _____    ______ ____
ROOT
ATOM      1  C   UNL     1       4.609   4.383  16.585  0.00  0.00    +0.000 C 
ENDROOT
BRANCH   1   2
ATOM      2  C   UNL     1       3.496   4.263  17.601  0.00  0.00    +0.000 A 
ATOM      3  C   UNL     1       2.420   3.392  17.383  0.00  0.00    +0.000 A 
ATOM      4  C   UNL     1       1.390   3.285  18.322  0.00  0.00    +0.000 A 
ATOM      5  C   UNL     1       1.427   4.043  19.492  0.00  0.00    +0.000 A 
ATOM      6  C   UNL     1       2.496   4.906  19.710  0.00  0.00    +0.000 A 
ATOM      7  C   UNL     1       3.522   5.025  18.778  0.00  0.00    +0.000 A 
BRANCH   6   8
ATOM      8  O   UNL     1       2.577   5.658  20.845  0.00  0.00    +0.000 OA
ATOM      9  H   UNL     1       1.899   5.354  21.470  0.00  0.00    +0.000 HD
ENDBRANCH   6   8
ENDBRANCH   1   2
BRANCH   1  10
ATOM     10  CA  UNL     1       5.700   5.393  16.979  0.00  0.00    +0.000 C 
BRANCH  10  11
ATOM     11  N   UNL     1       5.840   6.536  16.020  0.00  0.00    +0.000 NA
ATOM     12  H1  UNL     1       5.787   6.140  15.074  0.00  0.00    +0.000 HD
ATOM     13  H2  UNL     1       6.801   6.888  16.087  0.00  0.00    +0.000 HD
ENDBRANCH  10  11
BRANCH  10  14
ATOM     14  C   UNL     1       7.067   4.693  17.066  0.00  0.00    +0.000 C 
ATOM     15  O   UNL     1       7.863   4.556  16.151  0.00  0.00    +0.000 OA
BRANCH  14  16
ATOM     16  OXT UNL     1       7.283   4.208  18.320  0.00  0.00    +0.000 OA
ATOM     17  HXT UNL     1       8.052   4.721  18.679  0.00  0.00    +0.000 HD
ENDBRANCH  14  16
ENDBRANCH  10  14
ENDBRANCH   1  10
TORSDOF 6
ENDMDL
MODEL 7
REMARK VINA RESULT:      -5.8      1.696      1.933
REMARK  Name = 
REMARK  6 active torsions:
REMARK  status: ('A' for Active; 'I' for Inactive)
REMARK    1  A    between atoms: N_1  and  CA_2
REMARK    2  A    between atoms: CA_2  and  C_3
REMARK    3  A    between atoms: CA_2  and  C_11
REMARK    4  A    between atoms: C_3  and  C_4
REMARK    5  A    between atoms: C_8  and  O_9
REMARK    6  A    between atoms: C_11  and  OXT_13
REMARK                            x       y       z     vdW  Elec       q    Type
REMARK                         _______ _______ _______ _____ _____    ______ ____
ROOT
ATOM      1  C   UNL     1       5.332   5.756  16.402  0.00  0.00    +0.000 C 
ENDROOT
BRANCH   1   2
ATOM      2  C   UNL     1       4.137   5.151  17.105  0.00  0.00    +0.000 A 
ATOM      3  C   UNL     1       3.275   5.951  17.866  0.00  0.00    +0.000 A 
ATOM      4  C   UNL     1       2.173   5.390  18.517  0.00  0.00    +0.000 A 
ATOM      5  C   UNL     1       1.918   4.023  18.411  0.00  0.00    +0.000 A 
ATOM      6  C   UNL     1       2.773   3.228  17.654  0.00  0.00    +0.000 A 
ATOM      7  C   UNL     1       3.876   3.777  17.008  0.00  0.00    +0.000 A 
BRANCH   6   8
ATOM      8  O   UNL     1       2.555   1.889  17.516  0.00  0.00    +0.000 OA
ATOM      9  H   UNL     1       2.439   1.687  16.573  0.00  0.00    +0.000 HD
ENDBRANCH   6   8
ENDBRANCH   1   2
BRANCH   1  10
ATOM     10  CA  UNL     1       6.483   6.131  17.351  0.00  0.00    +0.000 C 
BRANCH  10  11
ATOM     11  N   UNL     1       7.285   7.311  16.891  0.00  0.00    +0.000 NA
ATOM     12  H1  UNL     1       7.333   7.258  15.867  0.00  0.00    +0.000 HD
ATOM     13  H2  UNL     1       8.255   7.169  17.191  0.00  0.00    +0.000 HD
ENDBRANCH  10  11
BRANCH  10  14
ATOM     14  C   UNL     1       7.452   4.947  17.506  0.00  0.00    +0.000 C 
ATOM     15  O   UNL     1       7.860   4.487  18.560  0.00  0.00    +0.000 OA
BRANCH  14  16
ATOM     16  OXT UNL     1       7.833   4.470  16.289  0.00  0.00    +0.000 OA
ATOM     17  HXT UNL     1       7.327   3.627  16.160  0.00  0.00    +0.000 HD
ENDBRANCH  14  16
ENDBRANCH  10  14
ENDBRANCH   1  10
TORSDOF 6
ENDMDL
MODEL 8
REMARK VINA RESULT:      -5.8      1.234      1.412
REMARK  Name = 
REMARK  6 active torsions:
REMARK  status: ('A' for Active; 'I' for Inactive)
REMARK    1  A    between atoms: N_1  and  CA_2
REMARK    2  A    between atoms: CA_2  and  C_3
REMARK    3  A    between atoms: CA_2  and  C_11
REMARK    4  A    between atoms: C_3  and  C_4
REMARK    5  A    between atoms: C_8  and  O_9
REMARK    6  A    between atoms: C_11  and  OXT_13
REMARK                            x       y       z     vdW  Elec       q    Type
REMARK                         _______ _______ _______ _____ _____    ______ ____
ROOT
ATOM      1  C   UNL     1       5.891   4.857  18.521  0.00  0.00    +0.000 C 
ENDROOT
BRANCH   1   2
ATOM      2  C   UNL     1       4.429   4.563  18.269  0.00  0.00    +0.000 A 
ATOM      3  C   UNL     1       3.493   5.602  18.191  0.00  0.00    +0.000 A 
ATOM      4  C   UNL     1       2.143   5.328  17.962  0.00  0.00    +0.000 A 
ATOM      5  C   UNL     1       1.712   4.010  17.803  0.00  0.00    +0.000 A 
ATOM      6  C   UNL     1       2.641   2.977  17.879  0.00  0.00    +0.000 A 
ATOM      7  C   UNL     1       3.987   3.241  18.113  0.00  0.00    +0.000 A 
BRANCH   6   8
ATOM      8  O   UNL     1       2.266   1.676  17.720  0.00  0.00    +0.000 OA
ATOM      9  H   UNL     1       2.892   1.241  17.117  0.00  0.00    +0.000 HD
ENDBRANCH   6   8
ENDBRANCH   1   2
BRANCH   1  10
ATOM     10  CA  UNL     1       6.795   4.588  17.306  0.00  0.00    +0.000 C 
BRANCH  10  11
ATOM     11  N   UNL     1       8.175   4.130  17.669  0.00  0.00    +0.000 NA
ATOM     12  H1  UNL     1       8.822   4.869  17.370  0.00  0.00    +0.000 HD
ATOM     13  H2  UNL     1       8.412   3.335  17.065  0.00  0.00    +0.000 HD
ENDBRANCH  10  11
BRANCH  10  14
ATOM     14  C   UNL     1       6.939   5.863  16.457  0.00  0.00    +0.000 C 
ATOM     15  O   UNL     1       7.340   6.946  16.851  0.00  0.00    +0.000 OA
BRANCH  14  16
ATOM     16  OXT UNL     1       6.532   5.640  15.177  0.00  0.00    +0.000 OA
ATOM     17  HXT UNL     1       6.967   6.343  14.629  0.00  0.00    +0.000 HD
ENDBRANCH  14  16
ENDBRANCH  10  14
ENDBRANCH   1  10
TORSDOF 6
ENDMDL
MODEL 9
REMARK VINA RESULT:      -5.8      1.880      2.091
REMARK  Name = 
REMARK  6 active torsions:
REMARK  status: ('A' for Active; 'I' for Inactive)
REMARK    1  A    between atoms: N_1  and  CA_2
REMARK    2  A    between atoms: CA_2  and  C_3
REMARK    3  A    between atoms: CA_2  and  C_11
REMARK    4  A    between atoms: C_3  and  C_4
REMARK    5  A    between atoms: C_8  and  O_9
REMARK    6  A    between atoms: C_11  and  OXT_13
REMARK                            x       y       z     vdW  Elec       q    Type
REMARK                         _______ _______ _______ _____ _____    ______ ____
ROOT
ATOM      1  C   UNL     1       5.678   4.044  16.441  0.00  0.00    +0.000 C 
ENDROOT
BRANCH   1   2
ATOM      2  C   UNL     1       4.322   4.095  17.109  0.00  0.00    +0.000 A 
ATOM      3  C   UNL     1       3.731   5.323  17.435  0.00  0.00    +0.000 A 
ATOM      4  C   UNL     1       2.479   5.368  18.054  0.00  0.00    +0.000 A 
ATOM      5  C   UNL     1       1.802   4.185  18.351  0.00  0.00    +0.000 A 
ATOM      6  C   UNL     1       2.387   2.966  18.026  0.00  0.00    +0.000 A 
ATOM      7  C   UNL     1       3.636   2.911  17.415  0.00  0.00    +0.000 A 
BRANCH   6   8
ATOM      8  O   UNL     1       1.755   1.786  18.290  0.00  0.00    +0.000 OA
ATOM      9  H   UNL     1       1.298   1.860  19.144  0.00  0.00    +0.000 HD
ENDBRANCH   6   8
ENDBRANCH   1   2
BRANCH   1  10
ATOM     10  CA  UNL     1       6.480   5.350  16.570  0.00  0.00    +0.000 C 
BRANCH  10  11
ATOM     11  N   UNL     1       7.324   5.661  15.371  0.00  0.00    +0.000 NA
ATOM     12  H1  UNL     1       8.005   6.372  15.662  0.00  0.00    +0.000 HD
ATOM     13  H2  UNL     1       6.734   6.149  14.689  0.00  0.00    +0.000 HD
ENDBRANCH  10  11
BRANCH  10  14
ATOM     14  C   UNL     1       7.417   5.281  17.788  0.00  0.00    +0.000 C 
ATOM     15  O   UNL     1       7.633   6.184  18.579  0.00  0.00    +0.000 OA
BRANCH  14  16
ATOM     16  OXT UNL     1       8.013   4.060  17.872  0.00  0.00    +0.000 OA
ATOM     17  HXT UNL     1       7.302   3.398  17.674  0.00  0.00    +0.000 HD
ENDBRANCH  14  16
ENDBRANCH  10  14
ENDBRANCH   1  10
TORSDOF 6
ENDMDL
