MODEL 1
REMARK VINA RESULT:      -7.1      0.000      0.000
REMARK  Name = 
REMARK  5 active torsions:
REMARK  status: ('A' for Active; 'I' for Inactive)
REMARK    1  A    between atoms: C_1  and  C_2
REMARK    2  A    between atoms: C_4  and  C_5
REMARK    3  A    between atoms: N_11  and  C_12
REMARK    4  A    between atoms: C_16  and  C_18
REMARK    5  A    between atoms: C_25  and  O_26
REMARK                            x       y       z     vdW  Elec       q    Type
REMARK                         _______ _______ _______ _____ _____    ______ ____
ROOT
ATOM      1  C   UNL     1      -1.159  12.279  21.897  0.00  0.00    +0.000 C 
ATOM      2  C   UNL     1      -1.734  11.532  23.104  0.00  0.00    +0.000 C 
ATOM      3  C   UNL     1      -3.068  12.143  23.475  0.00  0.00    +0.000 C 
ATOM      4  N   UNL     1      -3.106  13.599  23.312  0.00  0.00    +0.000 N 
ATOM      5  C   UNL     1      -4.255  14.343  22.999  0.00  0.00    +0.000 C 
ATOM      6  O   UNL     1      -4.193  15.542  22.734  0.00  0.00    +0.000 OA
ATOM      7  C   UNL     1      -1.796  14.270  23.363  0.00  0.00    +0.000 C 
ATOM      8  C   UNL     1      -0.868  13.764  22.233  0.00  0.00    +0.000 C 
ENDROOT
BRANCH   1  15
ATOM      9  C   UNL     1       2.203   9.224  17.891  0.00  0.00    +0.000 C 
ATOM     10  C   UNL     1       0.908   9.723  18.454  0.00  0.00    +0.000 A 
ATOM     11  C   UNL     1      -0.261   9.653  17.725  0.00  0.00    +0.000 A 
ATOM     12  C   UNL     1      -1.387  10.219  18.289  0.00  0.00    +0.000 A 
ATOM     13  N   UNL     1      -1.317  10.829  19.485  0.00  0.00    +0.000 NA
ATOM     14  C   UNL     1      -0.149  10.859  20.135  0.00  0.00    +0.000 A 
ATOM     15  N   UNL     1      -0.039  11.557  21.310  0.00  0.00    +0.000 N 
ATOM     16  N   UNL     1       0.966  10.294  19.673  0.00  0.00    +0.000 NA
ATOM     17  H   UNL     1       0.609  11.099  21.937  0.00  0.00    +0.000 HD
BRANCH  12  18
ATOM     18  C   UNL     1      -2.806  10.270  17.627  0.00  0.00    +0.000 C 
ATOM     19  C   UNL     1      -3.751  11.445  18.005  0.00  0.00    +0.000 C 
ATOM     20  C   UNL     1      -4.297  11.388  16.566  0.00  0.00    +0.000 C 
ATOM     21  C   UNL     1      -2.950  10.769  16.155  0.00  0.00    +0.000 C 
ENDBRANCH  12  18
ENDBRANCH   1  15
BRANCH   5  22
ATOM     22  C   UNL     1      -5.585  13.664  22.879  0.00  0.00    +0.000 A 
ATOM     23  C   UNL     1      -6.488  13.536  23.940  0.00  0.00    +0.000 A 
ATOM     24  C   UNL     1      -7.617  12.723  23.818  0.00  0.00    +0.000 A 
ATOM     25  C   UNL     1      -7.909  12.119  22.599  0.00  0.00    +0.000 A 
ATOM     26  C   UNL     1      -7.079  12.337  21.501  0.00  0.00    +0.000 A 
ATOM     27  C   UNL     1      -5.917  13.100  21.640  0.00  0.00    +0.000 A 
ENDBRANCH   5  22
BRANCH   8  28
ATOM     28  O   UNL     1      -1.048  14.555  21.044  0.00  0.00    +0.000 OA
ATOM     29  H   UNL     1      -1.977  14.463  20.773  0.00  0.00    +0.000 HD
ENDBRANCH   8  28
TORSDOF 4
ENDMDL
MODEL 2
REMARK VINA RESULT:      -7.1      2.677      4.884
REMARK  Name = 
REMARK  5 active torsions:
REMARK  status: ('A' for Active; 'I' for Inactive)
REMARK    1  A    between atoms: C_1  and  C_2
REMARK    2  A    between atoms: C_4  and  C_5
REMARK    3  A    between atoms: N_11  and  C_12
REMARK    4  A    between atoms: C_16  and  C_18
REMARK    5  A    between atoms: C_25  and  O_26
REMARK                            x       y       z     vdW  Elec       q    Type
REMARK                         _______ _______ _______ _____ _____    ______ ____
ROOT
ATOM      1  C   UNL     1      -6.083  12.236  19.401  0.00  0.00    +0.000 C 
ATOM      2  C   UNL     1      -6.196  13.760  19.494  0.00  0.00    +0.000 C 
ATOM      3  C   UNL     1      -6.111  14.174  20.947  0.00  0.00    +0.000 C 
ATOM      4  N   UNL     1      -6.779  13.240  21.859  0.00  0.00    +0.000 N 
ATOM      5  C   UNL     1      -6.400  13.008  23.190  0.00  0.00    +0.000 C 
ATOM      6  O   UNL     1      -6.909  12.109  23.857  0.00  0.00    +0.000 OA
ATOM      7  C   UNL     1      -7.836  12.418  21.248  0.00  0.00    +0.000 C 
ATOM      8  C   UNL     1      -7.267  11.533  20.113  0.00  0.00    +0.000 C 
ENDROOT
BRANCH   1  15
ATOM      9  C   UNL     1      -3.319  10.006  14.494  0.00  0.00    +0.000 C 
ATOM     10  C   UNL     1      -3.342  10.635  15.853  0.00  0.00    +0.000 A 
ATOM     11  C   UNL     1      -2.201  10.708  16.625  0.00  0.00    +0.000 A 
ATOM     12  C   UNL     1      -2.337  11.224  17.899  0.00  0.00    +0.000 A 
ATOM     13  N   UNL     1      -3.542  11.606  18.354  0.00  0.00    +0.000 NA
ATOM     14  C   UNL     1      -4.605  11.507  17.549  0.00  0.00    +0.000 A 
ATOM     15  N   UNL     1      -5.856  11.804  18.029  0.00  0.00    +0.000 N 
ATOM     16  N   UNL     1      -4.541  11.062  16.294  0.00  0.00    +0.000 NA
ATOM     17  H   UNL     1      -6.427  12.215  17.302  0.00  0.00    +0.000 HD
BRANCH  12  18
ATOM     18  C   UNL     1      -1.181  11.376  18.945  0.00  0.00    +0.000 C 
ATOM     19  C   UNL     1      -1.542  11.881  20.370  0.00  0.00    +0.000 C 
ATOM     20  C   UNL     1      -0.419  10.975  20.909  0.00  0.00    +0.000 C 
ATOM     21  C   UNL     1      -0.615  10.105  19.655  0.00  0.00    +0.000 C 
ENDBRANCH  12  18
ENDBRANCH   1  15
BRANCH   5  22
ATOM     22  C   UNL     1      -5.282  13.791  23.806  0.00  0.00    +0.000 A 
ATOM     23  C   UNL     1      -5.397  15.131  24.194  0.00  0.00    +0.000 A 
ATOM     24  C   UNL     1      -4.267  15.860  24.575  0.00  0.00    +0.000 A 
ATOM     25  C   UNL     1      -3.033  15.225  24.674  0.00  0.00    +0.000 A 
ATOM     26  C   UNL     1      -2.931  13.861  24.406  0.00  0.00    +0.000 A 
ATOM     27  C   UNL     1      -4.048  13.148  23.966  0.00  0.00    +0.000 A 
ENDBRANCH   5  22
BRANCH   8  28
ATOM     28  O   UNL     1      -6.811  10.273  20.641  0.00  0.00    +0.000 OA
ATOM     29  H   UNL     1      -6.305   9.830  19.938  0.00  0.00    +0.000 HD
ENDBRANCH   8  28
TORSDOF 4
ENDMDL
MODEL 3
REMARK VINA RESULT:      -7.0      3.807      6.387
REMARK  Name = 
REMARK  5 active torsions:
REMARK  status: ('A' for Active; 'I' for Inactive)
REMARK    1  A    between atoms: C_1  and  C_2
REMARK    2  A    between atoms: C_4  and  C_5
REMARK    3  A    between atoms: N_11  and  C_12
REMARK    4  A    between atoms: C_16  and  C_18
REMARK    5  A    between atoms: C_25  and  O_26
REMARK                            x       y       z     vdW  Elec       q    Type
REMARK                         _______ _______ _______ _____ _____    ______ ____
ROOT
ATOM      1  C   UNL     1       1.380   9.350  19.563  0.00  0.00    +0.000 C 
ATOM      2  C   UNL     1       0.072   9.775  18.890  0.00  0.00    +0.000 C 
ATOM      3  C   UNL     1      -0.733  10.614  19.859  0.00  0.00    +0.000 C 
ATOM      4  N   UNL     1      -0.630  10.158  21.248  0.00  0.00    +0.000 N 
ATOM      5  C   UNL     1      -0.732  10.987  22.376  0.00  0.00    +0.000 C 
ATOM      6  O   UNL     1      -0.494  10.568  23.507  0.00  0.00    +0.000 OA
ATOM      7  C   UNL     1      -0.266   8.741  21.417  0.00  0.00    +0.000 C 
ATOM      8  C   UNL     1       1.119   8.445  20.793  0.00  0.00    +0.000 C 
ENDROOT
BRANCH   1  15
ATOM      9  C   UNL     1       4.681   5.359  16.423  0.00  0.00    +0.000 C 
ATOM     10  C   UNL     1       3.889   5.805  17.613  0.00  0.00    +0.000 A 
ATOM     11  C   UNL     1       3.465   4.903  18.567  0.00  0.00    +0.000 A 
ATOM     12  C   UNL     1       2.664   5.392  19.580  0.00  0.00    +0.000 A 
ATOM     13  N   UNL     1       2.305   6.687  19.601  0.00  0.00    +0.000 NA
ATOM     14  C   UNL     1       2.754   7.504  18.642  0.00  0.00    +0.000 A 
ATOM     15  N   UNL     1       2.322   8.804  18.595  0.00  0.00    +0.000 N 
ATOM     16  N   UNL     1       3.566   7.112  17.660  0.00  0.00    +0.000 NA
ATOM     17  H   UNL     1       3.056   9.412  18.255  0.00  0.00    +0.000 HD
BRANCH  12  18
ATOM     18  C   UNL     1       2.058   4.542  20.749  0.00  0.00    +0.000 C 
ATOM     19  C   UNL     1       0.830   3.639  20.440  0.00  0.00    +0.000 C 
ATOM     20  C   UNL     1       1.381   2.642  21.477  0.00  0.00    +0.000 C 
ATOM     21  C   UNL     1       2.775   3.229  21.196  0.00  0.00    +0.000 C 
ENDBRANCH  12  18
ENDBRANCH   1  15
BRANCH   5  22
ATOM     22  C   UNL     1      -1.037  12.445  22.217  0.00  0.00    +0.000 A 
ATOM     23  C   UNL     1      -0.062  13.419  21.975  0.00  0.00    +0.000 A 
ATOM     24  C   UNL     1      -0.384  14.777  22.036  0.00  0.00    +0.000 A 
ATOM     25  C   UNL     1      -1.704  15.169  22.232  0.00  0.00    +0.000 A 
ATOM     26  C   UNL     1      -2.703  14.205  22.355  0.00  0.00    +0.000 A 
ATOM     27  C   UNL     1      -2.372  12.848  22.355  0.00  0.00    +0.000 A 
ENDBRANCH   5  22
BRANCH   8  28
ATOM     28  O   UNL     1       2.161   8.664  21.762  0.00  0.00    +0.000 OA
ATOM     29  H   UNL     1       1.762   9.126  22.518  0.00  0.00    +0.000 HD
ENDBRANCH   8  28
TORSDOF 4
ENDMDL
MODEL 4
REMARK VINA RESULT:      -6.9      0.891      1.259
REMARK  Name = 
REMARK  5 active torsions:
REMARK  status: ('A' for Active; 'I' for Inactive)
REMARK    1  A    between atoms: C_1  and  C_2
REMARK    2  A    between atoms: C_4  and  C_5
REMARK    3  A    between atoms: N_11  and  C_12
REMARK    4  A    between atoms: C_16  and  C_18
REMARK    5  A    between atoms: C_25  and  O_26
REMARK                            x       y       z     vdW  Elec       q    Type
REMARK                         _______ _______ _______ _____ _____    ______ ____
ROOT
ATOM      1  C   UNL     1      -1.136  12.426  21.232  0.00  0.00    +0.000 C 
ATOM      2  C   UNL     1      -1.362  12.343  22.744  0.00  0.00    +0.000 C 
ATOM      3  C   UNL     1      -2.709  12.947  23.078  0.00  0.00    +0.000 C 
ATOM      4  N   UNL     1      -3.042  14.115  22.256  0.00  0.00    +0.000 N 
ATOM      5  C   UNL     1      -4.343  14.504  21.903  0.00  0.00    +0.000 C 
ATOM      6  O   UNL     1      -4.548  15.408  21.095  0.00  0.00    +0.000 OA
ATOM      7  C   UNL     1      -1.887  14.824  21.679  0.00  0.00    +0.000 C 
ATOM      8  C   UNL     1      -1.074  13.895  20.746  0.00  0.00    +0.000 C 
ENDROOT
BRANCH   1  15
ATOM      9  C   UNL     1       2.363   8.803  17.868  0.00  0.00    +0.000 C 
ATOM     10  C   UNL     1       1.055   9.410  18.270  0.00  0.00    +0.000 A 
ATOM     11  C   UNL     1      -0.062   9.298  17.468  0.00  0.00    +0.000 A 
ATOM     12  C   UNL     1      -1.198   9.966  17.876  0.00  0.00    +0.000 A 
ATOM     13  N   UNL     1      -1.187  10.709  18.997  0.00  0.00    +0.000 NA
ATOM     14  C   UNL     1      -0.068  10.773  19.725  0.00  0.00    +0.000 A 
ATOM     15  N   UNL     1      -0.010  11.599  20.818  0.00  0.00    +0.000 N 
ATOM     16  N   UNL     1       1.051  10.118  19.417  0.00  0.00    +0.000 NA
ATOM     17  H   UNL     1       0.571  11.195  21.541  0.00  0.00    +0.000 HD
BRANCH  12  18
ATOM     18  C   UNL     1      -2.564   9.990  17.108  0.00  0.00    +0.000 C 
ATOM     19  C   UNL     1      -3.735  10.811  17.716  0.00  0.00    +0.000 C 
ATOM     20  C   UNL     1      -4.182  11.125  16.276  0.00  0.00    +0.000 C 
ATOM     21  C   UNL     1      -2.721  10.901  15.849  0.00  0.00    +0.000 C 
ENDBRANCH  12  18
ENDBRANCH   1  15
BRANCH   5  22
ATOM     22  C   UNL     1      -5.527  13.752  22.430  0.00  0.00    +0.000 A 
ATOM     23  C   UNL     1      -6.114  12.668  21.767  0.00  0.00    +0.000 A 
ATOM     24  C   UNL     1      -7.329  12.140  22.208  0.00  0.00    +0.000 A 
ATOM     25  C   UNL     1      -7.912  12.620  23.376  0.00  0.00    +0.000 A 
ATOM     26  C   UNL     1      -7.274  13.619  24.110  0.00  0.00    +0.000 A 
ATOM     27  C   UNL     1      -6.090  14.189  23.635  0.00  0.00    +0.000 A 
ENDBRANCH   5  22
BRANCH   8  28
ATOM     28  O   UNL     1      -1.587  13.963  19.402  0.00  0.00    +0.000 OA
ATOM     29  H   UNL     1      -2.170  13.196  19.275  0.00  0.00    +0.000 HD
ENDBRANCH   8  28
TORSDOF 4
ENDMDL
MODEL 5
REMARK VINA RESULT:      -6.9      2.757      5.026
REMARK  Name = 
REMARK  5 active torsions:
REMARK  status: ('A' for Active; 'I' for Inactive)
REMARK    1  A    between atoms: C_1  and  C_2
REMARK    2  A    between atoms: C_4  and  C_5
REMARK    3  A    between atoms: N_11  and  C_12
REMARK    4  A    between atoms: C_16  and  C_18
REMARK    5  A    between atoms: C_25  and  O_26
REMARK                            x       y       z     vdW  Elec       q    Type
REMARK                         _______ _______ _______ _____ _____    ______ ____
ROOT
ATOM      1  C   UNL     1      -6.035  12.383  18.449  0.00  0.00    +0.000 C 
ATOM      2  C   UNL     1      -6.513  13.836  18.524  0.00  0.00    +0.000 C 
ATOM      3  C   UNL     1      -6.589  14.257  19.976  0.00  0.00    +0.000 C 
ATOM      4  N   UNL     1      -7.050  13.189  20.868  0.00  0.00    +0.000 N 
ATOM      5  C   UNL     1      -6.681  13.053  22.215  0.00  0.00    +0.000 C 
ATOM      6  O   UNL     1      -6.986  12.057  22.869  0.00  0.00    +0.000 OA
ATOM      7  C   UNL     1      -7.854  12.137  20.223  0.00  0.00    +0.000 C 
ATOM      8  C   UNL     1      -7.043  11.417  19.119  0.00  0.00    +0.000 C 
ENDROOT
BRANCH   1  15
ATOM      9  C   UNL     1      -3.019   9.873  13.834  0.00  0.00    +0.000 C 
ATOM     10  C   UNL     1      -3.150  10.368  15.241  0.00  0.00    +0.000 A 
ATOM     11  C   UNL     1      -2.213  10.047  16.202  0.00  0.00    +0.000 A 
ATOM     12  C   UNL     1      -2.464  10.472  17.491  0.00  0.00    +0.000 A 
ATOM     13  N   UNL     1      -3.592  11.144  17.779  0.00  0.00    +0.000 NA
ATOM     14  C   UNL     1      -4.457  11.419  16.797  0.00  0.00    +0.000 A 
ATOM     15  N   UNL     1      -5.655  12.020  17.090  0.00  0.00    +0.000 N 
ATOM     16  N   UNL     1      -4.258  11.081  15.524  0.00  0.00    +0.000 NA
ATOM     17  H   UNL     1      -5.937  12.636  16.339  0.00  0.00    +0.000 HD
BRANCH  12  18
ATOM     18  C   UNL     1      -1.547  10.201  18.732  0.00  0.00    +0.000 C 
ATOM     19  C   UNL     1      -0.011  10.127  18.508  0.00  0.00    +0.000 C 
ATOM     20  C   UNL     1       0.161  10.749  19.907  0.00  0.00    +0.000 C 
ATOM     21  C   UNL     1      -1.238  11.363  19.728  0.00  0.00    +0.000 C 
ENDBRANCH  12  18
ENDBRANCH   1  15
BRANCH   5  22
ATOM     22  C   UNL     1      -5.809  14.081  22.868  0.00  0.00    +0.000 A 
ATOM     23  C   UNL     1      -4.416  13.972  22.957  0.00  0.00    +0.000 A 
ATOM     24  C   UNL     1      -3.684  14.860  23.749  0.00  0.00    +0.000 A 
ATOM     25  C   UNL     1      -4.325  15.926  24.371  0.00  0.00    +0.000 A 
ATOM     26  C   UNL     1      -5.695  16.113  24.192  0.00  0.00    +0.000 A 
ATOM     27  C   UNL     1      -6.436  15.190  23.450  0.00  0.00    +0.000 A 
ENDBRANCH   5  22
BRANCH   8  28
ATOM     28  O   UNL     1      -6.321  10.302  19.675  0.00  0.00    +0.000 OA
ATOM     29  H   UNL     1      -5.583  10.105  19.074  0.00  0.00    +0.000 HD
ENDBRANCH   8  28
TORSDOF 4
ENDMDL
MODEL 6
REMARK VINA RESULT:      -6.8      2.289      6.797
REMARK  Name = 
REMARK  5 active torsions:
REMARK  status: ('A' for Active; 'I' for Inactive)
REMARK    1  A    between atoms: C_1  and  C_2
REMARK    2  A    between atoms: C_4  and  C_5
REMARK    3  A    between atoms: N_11  and  C_12
REMARK    4  A    between atoms: C_16  and  C_18
REMARK    5  A    between atoms: C_25  and  O_26
REMARK                            x       y       z     vdW  Elec       q    Type
REMARK                         _______ _______ _______ _____ _____    ______ ____
ROOT
ATOM      1  C   UNL     1       0.039  13.426  21.027  0.00  0.00    +0.000 C 
ATOM      2  C   UNL     1      -0.186  14.247  19.754  0.00  0.00    +0.000 C 
ATOM      3  C   UNL     1      -0.673  13.329  18.653  0.00  0.00    +0.000 C 
ATOM      4  N   UNL     1      -0.047  12.004  18.681  0.00  0.00    +0.000 N 
ATOM      5  C   UNL     1      -0.654  10.819  18.238  0.00  0.00    +0.000 C 
ATOM      6  O   UNL     1      -0.132   9.721  18.420  0.00  0.00    +0.000 OA
ATOM      7  C   UNL     1       1.266  11.946  19.347  0.00  0.00    +0.000 C 
ATOM      8  C   UNL     1       1.154  12.368  20.832  0.00  0.00    +0.000 C 
ENDROOT
BRANCH   1  15
ATOM      9  C   UNL     1      -0.980  16.094  26.368  0.00  0.00    +0.000 C 
ATOM     10  C   UNL     1      -1.400  15.360  25.133  0.00  0.00    +0.000 A 
ATOM     11  C   UNL     1      -2.643  14.770  25.040  0.00  0.00    +0.000 A 
ATOM     12  C   UNL     1      -2.908  14.038  23.900  0.00  0.00    +0.000 A 
ATOM     13  N   UNL     1      -1.970  13.897  22.948  0.00  0.00    +0.000 NA
ATOM     14  C   UNL     1      -0.785  14.497  23.105  0.00  0.00    +0.000 A 
ATOM     15  N   UNL     1       0.213  14.286  22.189  0.00  0.00    +0.000 N 
ATOM     16  N   UNL     1      -0.477  15.255  24.156  0.00  0.00    +0.000 NA
ATOM     17  H   UNL     1       0.779  15.119  22.081  0.00  0.00    +0.000 HD
BRANCH  12  18
ATOM     18  C   UNL     1      -4.242  13.273  23.601  0.00  0.00    +0.000 C 
ATOM     19  C   UNL     1      -4.824  12.350  24.709  0.00  0.00    +0.000 C 
ATOM     20  C   UNL     1      -6.228  12.739  24.210  0.00  0.00    +0.000 C 
ATOM     21  C   UNL     1      -5.601  14.039  23.677  0.00  0.00    +0.000 C 
ENDBRANCH  12  18
ENDBRANCH   1  15
BRANCH   5  22
ATOM     22  C   UNL     1      -2.017  10.853  17.617  0.00  0.00    +0.000 A 
ATOM     23  C   UNL     1      -2.264  10.550  16.273  0.00  0.00    +0.000 A 
ATOM     24  C   UNL     1      -3.518  10.794  15.710  0.00  0.00    +0.000 A 
ATOM     25  C   UNL     1      -4.564  11.240  16.511  0.00  0.00    +0.000 A 
ATOM     26  C   UNL     1      -4.360  11.431  17.876  0.00  0.00    +0.000 A 
ATOM     27  C   UNL     1      -3.090  11.246  18.427  0.00  0.00    +0.000 A 
ENDBRANCH   5  22
BRANCH   8  28
ATOM     28  O   UNL     1       0.862  11.225  21.657  0.00  0.00    +0.000 OA
ATOM     29  H   UNL     1       1.154  11.436  22.559  0.00  0.00    +0.000 HD
ENDBRANCH   8  28
TORSDOF 4
ENDMDL
MODEL 7
REMARK VINA RESULT:      -6.3      2.638      6.485
REMARK  Name = 
REMARK  5 active torsions:
REMARK  status: ('A' for Active; 'I' for Inactive)
REMARK    1  A    between atoms: C_1  and  C_2
REMARK    2  A    between atoms: C_4  and  C_5
REMARK    3  A    between atoms: N_11  and  C_12
REMARK    4  A    between atoms: C_16  and  C_18
REMARK    5  A    between atoms: C_25  and  O_26
REMARK                            x       y       z     vdW  Elec       q    Type
REMARK                         _______ _______ _______ _____ _____    ______ ____
ROOT
ATOM      1  C   UNL     1      -2.613  12.489  20.962  0.00  0.00    +0.000 C 
ATOM      2  C   UNL     1      -1.508  12.944  20.004  0.00  0.00    +0.000 C 
ATOM      3  C   UNL     1      -0.324  12.010  20.137  0.00  0.00    +0.000 C 
ATOM      4  N   UNL     1      -0.090  11.558  21.511  0.00  0.00    +0.000 N 
ATOM      5  C   UNL     1       0.477  10.324  21.865  0.00  0.00    +0.000 C 
ATOM      6  O   UNL     1       0.514   9.944  23.034  0.00  0.00    +0.000 OA
ATOM      7  C   UNL     1      -0.623  12.443  22.561  0.00  0.00    +0.000 C 
ATOM      8  C   UNL     1      -2.160  12.585  22.440  0.00  0.00    +0.000 C 
ENDROOT
BRANCH   1  15
ATOM      9  C   UNL     1      -7.909  13.794  18.327  0.00  0.00    +0.000 C 
ATOM     10  C   UNL     1      -6.540  13.187  18.362  0.00  0.00    +0.000 A 
ATOM     11  C   UNL     1      -6.137  12.279  17.405  0.00  0.00    +0.000 A 
ATOM     12  C   UNL     1      -4.892  11.704  17.570  0.00  0.00    +0.000 A 
ATOM     13  N   UNL     1      -4.136  12.011  18.638  0.00  0.00    +0.000 NA
ATOM     14  C   UNL     1      -4.592  12.900  19.527  0.00  0.00    +0.000 A 
ATOM     15  N   UNL     1      -3.875  13.154  20.668  0.00  0.00    +0.000 N 
ATOM     16  N   UNL     1      -5.761  13.528  19.408  0.00  0.00    +0.000 NA
ATOM     17  H   UNL     1      -3.975  14.123  20.944  0.00  0.00    +0.000 HD
BRANCH  12  18
ATOM     18  C   UNL     1      -4.250  10.639  16.617  0.00  0.00    +0.000 C 
ATOM     19  C   UNL     1      -3.258  11.132  15.527  0.00  0.00    +0.000 C 
ATOM     20  C   UNL     1      -2.492   9.808  15.713  0.00  0.00    +0.000 C 
ATOM     21  C   UNL     1      -3.073   9.754  17.137  0.00  0.00    +0.000 C 
ENDBRANCH  12  18
ENDBRANCH   1  15
BRANCH   5  22
ATOM     22  C   UNL     1       0.964   9.384  20.807  0.00  0.00    +0.000 A 
ATOM     23  C   UNL     1       1.406   8.082  21.070  0.00  0.00    +0.000 A 
ATOM     24  C   UNL     1       2.032   7.330  20.073  0.00  0.00    +0.000 A 
ATOM     25  C   UNL     1       2.125   7.831  18.779  0.00  0.00    +0.000 A 
ATOM     26  C   UNL     1       1.581   9.079  18.479  0.00  0.00    +0.000 A 
ATOM     27  C   UNL     1       1.010   9.856  19.489  0.00  0.00    +0.000 A 
ENDBRANCH   5  22
BRANCH   8  28
ATOM     28  O   UNL     1      -2.819  11.553  23.198  0.00  0.00    +0.000 OA
ATOM     29  H   UNL     1      -3.685  11.901  23.470  0.00  0.00    +0.000 HD
ENDBRANCH   8  28
TORSDOF 4
ENDMDL
MODEL 8
REMARK VINA RESULT:      -6.3      2.268      4.317
REMARK  Name = 
REMARK  5 active torsions:
REMARK  status: ('A' for Active; 'I' for Inactive)
REMARK    1  A    between atoms: C_1  and  C_2
REMARK    2  A    between atoms: C_4  and  C_5
REMARK    3  A    between atoms: N_11  and  C_12
REMARK    4  A    between atoms: C_16  and  C_18
REMARK    5  A    between atoms: C_25  and  O_26
REMARK                            x       y       z     vdW  Elec       q    Type
REMARK                         _______ _______ _______ _____ _____    ______ ____
ROOT
ATOM      1  C   UNL     1      -0.628  11.830  19.140  0.00  0.00    +0.000 C 
ATOM      2  C   UNL     1      -0.627  10.823  20.293  0.00  0.00    +0.000 C 
ATOM      3  C   UNL     1      -0.668  11.573  21.606  0.00  0.00    +0.000 C 
ATOM      4  N   UNL     1       0.114  12.813  21.593  0.00  0.00    +0.000 N 
ATOM      5  C   UNL     1      -0.177  13.955  22.355  0.00  0.00    +0.000 C 
ATOM      6  O   UNL     1       0.432  15.011  22.191  0.00  0.00    +0.000 OA
ATOM      7  C   UNL     1       1.199  12.859  20.597  0.00  0.00    +0.000 C 
ATOM      8  C   UNL     1       0.640  12.721  19.160  0.00  0.00    +0.000 C 
ENDROOT
BRANCH   1  15
ATOM      9  C   UNL     1      -3.524  10.015  14.139  0.00  0.00    +0.000 C 
ATOM     10  C   UNL     1      -3.465  10.521  15.547  0.00  0.00    +0.000 A 
ATOM     11  C   UNL     1      -4.585  11.031  16.171  0.00  0.00    +0.000 A 
ATOM     12  C   UNL     1      -4.415  11.557  17.436  0.00  0.00    +0.000 A 
ATOM     13  N   UNL     1      -3.197  11.585  18.004  0.00  0.00    +0.000 NA
ATOM     14  C   UNL     1      -2.155  11.072  17.340  0.00  0.00    +0.000 A 
ATOM     15  N   UNL     1      -0.893  11.177  17.865  0.00  0.00    +0.000 N 
ATOM     16  N   UNL     1      -2.254  10.508  16.137  0.00  0.00    +0.000 NA
ATOM     17  H   UNL     1      -0.339  10.365  17.626  0.00  0.00    +0.000 HD
BRANCH  12  18
ATOM     18  C   UNL     1      -5.543  12.203  18.310  0.00  0.00    +0.000 C 
ATOM     19  C   UNL     1      -6.753  11.318  18.720  0.00  0.00    +0.000 C 
ATOM     20  C   UNL     1      -6.805  12.107  20.041  0.00  0.00    +0.000 C 
ATOM     21  C   UNL     1      -5.308  12.402  19.841  0.00  0.00    +0.000 C 
ENDBRANCH  12  18
ENDBRANCH   1  15
BRANCH   5  22
ATOM     22  C   UNL     1      -1.318  13.946  23.325  0.00  0.00    +0.000 A 
ATOM     23  C   UNL     1      -2.407  13.071  23.232  0.00  0.00    +0.000 A 
ATOM     24  C   UNL     1      -3.529  13.246  24.046  0.00  0.00    +0.000 A 
ATOM     25  C   UNL     1      -3.526  14.228  25.031  0.00  0.00    +0.000 A 
ATOM     26  C   UNL     1      -2.398  15.027  25.211  0.00  0.00    +0.000 A 
ATOM     27  C   UNL     1      -1.301  14.893  24.357  0.00  0.00    +0.000 A 
ENDBRANCH   5  22
BRANCH   8  28
ATOM     28  O   UNL     1       0.309  14.016  18.625  0.00  0.00    +0.000 OA
ATOM     29  H   UNL     1       0.914  14.660  19.029  0.00  0.00    +0.000 HD
ENDBRANCH   8  28
TORSDOF 4
ENDMDL
MODEL 9
REMARK VINA RESULT:      -6.2      2.405      6.701
REMARK  Name = 
REMARK  5 active torsions:
REMARK  status: ('A' for Active; 'I' for Inactive)
REMARK    1  A    between atoms: C_1  and  C_2
REMARK    2  A    between atoms: C_4  and  C_5
REMARK    3  A    between atoms: N_11  and  C_12
REMARK    4  A    between atoms: C_16  and  C_18
REMARK    5  A    between atoms: C_25  and  O_26
REMARK                            x       y       z     vdW  Elec       q    Type
REMARK                         _______ _______ _______ _____ _____    ______ ____
ROOT
ATOM      1  C   UNL     1       0.304  13.875  20.716  0.00  0.00    +0.000 C 
ATOM      2  C   UNL     1       0.400  14.320  19.254  0.00  0.00    +0.000 C 
ATOM      3  C   UNL     1      -0.300  13.301  18.380  0.00  0.00    +0.000 C 
ATOM      4  N   UNL     1      -0.117  11.920  18.836  0.00  0.00    +0.000 N 
ATOM      5  C   UNL     1      -1.043  10.882  18.646  0.00  0.00    +0.000 C 
ATOM      6  O   UNL     1      -0.896   9.783  19.177  0.00  0.00    +0.000 OA
ATOM      7  C   UNL     1       1.082  11.685  19.658  0.00  0.00    +0.000 C 
ATOM      8  C   UNL     1       1.043  12.533  20.952  0.00  0.00    +0.000 C 
ENDROOT
BRANCH   1  15
ATOM      9  C   UNL     1       0.490  17.415  25.627  0.00  0.00    +0.000 C 
ATOM     10  C   UNL     1      -0.163  16.433  24.704  0.00  0.00    +0.000 A 
ATOM     11  C   UNL     1      -1.300  15.747  25.078  0.00  0.00    +0.000 A 
ATOM     12  C   UNL     1      -1.778  14.797  24.198  0.00  0.00    +0.000 A 
ATOM     13  N   UNL     1      -1.133  14.549  23.045  0.00  0.00    +0.000 NA
ATOM     14  C   UNL     1      -0.035  15.253  22.748  0.00  0.00    +0.000 A 
ATOM     15  N   UNL     1       0.687  14.948  21.623  0.00  0.00    +0.000 N 
ATOM     16  N   UNL     1       0.457  16.215  23.527  0.00  0.00    +0.000 NA
ATOM     17  H   UNL     1       1.091  15.785  21.222  0.00  0.00    +0.000 HD
BRANCH  12  18
ATOM     18  C   UNL     1      -3.037  13.894  24.433  0.00  0.00    +0.000 C 
ATOM     19  C   UNL     1      -4.417  14.417  23.946  0.00  0.00    +0.000 C 
ATOM     20  C   UNL     1      -4.795  12.955  23.642  0.00  0.00    +0.000 C 
ATOM     21  C   UNL     1      -3.290  12.671  23.495  0.00  0.00    +0.000 C 
ENDBRANCH  12  18
ENDBRANCH   1  15
BRANCH   5  22
ATOM     22  C   UNL     1      -2.299  11.123  17.867  0.00  0.00    +0.000 A 
ATOM     23  C   UNL     1      -3.475  11.634  18.430  0.00  0.00    +0.000 A 
ATOM     24  C   UNL     1      -4.665  11.647  17.699  0.00  0.00    +0.000 A 
ATOM     25  C   UNL     1      -4.665  11.250  16.366  0.00  0.00    +0.000 A 
ATOM     26  C   UNL     1      -3.475  10.852  15.760  0.00  0.00    +0.000 A 
ATOM     27  C   UNL     1      -2.297  10.780  16.509  0.00  0.00    +0.000 A 
ENDBRANCH   5  22
BRANCH   8  28
ATOM     28  O   UNL     1       0.374  11.812  22.004  0.00  0.00    +0.000 OA
ATOM     29  H   UNL     1      -0.573  12.022  21.943  0.00  0.00    +0.000 HD
ENDBRANCH   8  28
TORSDOF 4
ENDMDL
