MODEL 1
REMARK VINA RESULT:      -7.2      0.000      0.000
REMARK  Name = 
REMARK  7 active torsions:
REMARK  status: ('A' for Active; 'I' for Inactive)
REMARK    1  A    between atoms: C_1  and  O_2
REMARK    2  A    between atoms: O_2  and  C_3
REMARK    3  A    between atoms: C_6  and  C_7
REMARK    4  A    between atoms: N_15  and  C_16
REMARK    5  A    between atoms: N_19  and  C_20
REMARK    6  A    between atoms: C_22  and  O_23
REMARK    7  A    between atoms: O_23  and  C_24
REMARK                            x       y       z     vdW  Elec       q    Type
REMARK                         _______ _______ _______ _____ _____    ______ ____
ROOT
ATOM      1  C   UNL     1       3.505   5.807  18.837  0.00  0.00    +0.000 A 
ATOM      2  C   UNL     1       3.336   4.745  19.747  0.00  0.00    +0.000 A 
ATOM      3  C   UNL     1       2.413   4.852  20.768  0.00  0.00    +0.000 A 
ATOM      4  N   UNL     1       1.684   5.959  20.984  0.00  0.00    +0.000 NA
ATOM      5  C   UNL     1       1.838   7.003  20.128  0.00  0.00    +0.000 A 
ATOM      6  C   UNL     1       2.689   6.952  19.031  0.00  0.00    +0.000 A 
ATOM      7  C   UNL     1       2.618   8.104  18.101  0.00  0.00    +0.000 A 
ATOM      8  O   UNL     1       2.952   8.004  16.931  0.00  0.00    +0.000 OA
ATOM      9  N   UNL     1       2.105   9.289  18.608  0.00  0.00    +0.000 N 
ATOM     10  C   UNL     1       2.189  10.475  17.774  0.00  0.00    +0.000 C 
ATOM     11  C   UNL     1       1.230   9.335  19.677  0.00  0.00    +0.000 A 
ATOM     12  O   UNL     1       0.597  10.354  19.945  0.00  0.00    +0.000 OA
ATOM     13  N   UNL     1       1.090   8.165  20.401  0.00  0.00    +0.000 N 
ATOM     14  C   UNL     1       0.191   8.129  21.544  0.00  0.00    +0.000 C 
ENDROOT
BRANCH   1  18
ATOM     15  C   UNL     1       6.505   5.315  15.748  0.00  0.00    +0.000 A 
ATOM     16  C   UNL     1       5.312   4.587  15.725  0.00  0.00    +0.000 A 
ATOM     17  C   UNL     1       4.300   4.839  16.645  0.00  0.00    +0.000 A 
ATOM     18  C   UNL     1       4.516   5.651  17.758  0.00  0.00    +0.000 A 
ATOM     19  C   UNL     1       5.753   6.319  17.813  0.00  0.00    +0.000 A 
ATOM     20  C   UNL     1       6.738   6.186  16.818  0.00  0.00    +0.000 A 
BRANCH  15  22
ATOM     21  C   UNL     1       6.896   4.548  13.556  0.00  0.00    +0.000 C 
ATOM     22  O   UNL     1       7.414   5.177  14.734  0.00  0.00    +0.000 OA
ENDBRANCH  15  22
BRANCH  20  23
ATOM     23  O   UNL     1       7.811   6.993  17.075  0.00  0.00    +0.000 OA
ATOM     24  C   UNL     1       7.591   8.285  17.607  0.00  0.00    +0.000 C 
ENDBRANCH  20  23
ENDBRANCH   1  18
TORSDOF 3
ENDMDL
MODEL 2
REMARK VINA RESULT:      -7.1      2.030      2.977
REMARK  Name = 
REMARK  7 active torsions:
REMARK  status: ('A' for Active; 'I' for Inactive)
REMARK    1  A    between atoms: C_1  and  O_2
REMARK    2  A    between atoms: O_2  and  C_3
REMARK    3  A    between atoms: C_6  and  C_7
REMARK    4  A    between atoms: N_15  and  C_16
REMARK    5  A    between atoms: N_19  and  C_20
REMARK    6  A    between atoms: C_22  and  O_23
REMARK    7  A    between atoms: O_23  and  C_24
REMARK                            x       y       z     vdW  Elec       q    Type
REMARK                         _______ _______ _______ _____ _____    ______ ____
ROOT
ATOM      1  C   UNL     1       4.283   3.368  17.518  0.00  0.00    +0.000 A 
ATOM      2  C   UNL     1       4.289   1.967  17.667  0.00  0.00    +0.000 A 
ATOM      3  C   UNL     1       3.458   1.368  18.592  0.00  0.00    +0.000 A 
ATOM      4  N   UNL     1       2.661   2.063  19.420  0.00  0.00    +0.000 NA
ATOM      5  C   UNL     1       2.646   3.417  19.306  0.00  0.00    +0.000 A 
ATOM      6  C   UNL     1       3.394   4.096  18.352  0.00  0.00    +0.000 A 
ATOM      7  C   UNL     1       3.140   5.552  18.244  0.00  0.00    +0.000 A 
ATOM      8  O   UNL     1       3.372   6.169  17.217  0.00  0.00    +0.000 OA
ATOM      9  N   UNL     1       2.577   6.174  19.350  0.00  0.00    +0.000 N 
ATOM     10  C   UNL     1       2.483   7.623  19.336  0.00  0.00    +0.000 C 
ATOM     11  C   UNL     1       1.804   5.504  20.279  0.00  0.00    +0.000 A 
ATOM     12  O   UNL     1       1.114   6.110  21.096  0.00  0.00    +0.000 OA
ATOM     13  N   UNL     1       1.831   4.123  20.212  0.00  0.00    +0.000 N 
ATOM     14  C   UNL     1       1.048   3.341  21.156  0.00  0.00    +0.000 C 
ENDROOT
BRANCH   1  18
ATOM     15  C   UNL     1       7.022   5.086  14.632  0.00  0.00    +0.000 A 
ATOM     16  C   UNL     1       6.114   4.088  14.267  0.00  0.00    +0.000 A 
ATOM     17  C   UNL     1       5.153   3.630  15.163  0.00  0.00    +0.000 A 
ATOM     18  C   UNL     1       5.200   3.970  16.514  0.00  0.00    +0.000 A 
ATOM     19  C   UNL     1       6.170   4.918  16.887  0.00  0.00    +0.000 A 
ATOM     20  C   UNL     1       7.063   5.500  15.968  0.00  0.00    +0.000 A 
BRANCH  15  22
ATOM     21  C   UNL     1       7.705   5.088  12.379  0.00  0.00    +0.000 C 
ATOM     22  O   UNL     1       7.842   5.647  13.691  0.00  0.00    +0.000 OA
ENDBRANCH  15  22
BRANCH  20  23
ATOM     23  O   UNL     1       7.852   6.438  16.574  0.00  0.00    +0.000 OA
ATOM     24  C   UNL     1       7.482   6.934  17.846  0.00  0.00    +0.000 C 
ENDBRANCH  20  23
ENDBRANCH   1  18
TORSDOF 3
ENDMDL
MODEL 3
REMARK VINA RESULT:      -6.3      3.229      7.263
REMARK  Name = 
REMARK  7 active torsions:
REMARK  status: ('A' for Active; 'I' for Inactive)
REMARK    1  A    between atoms: C_1  and  O_2
REMARK    2  A    between atoms: O_2  and  C_3
REMARK    3  A    between atoms: C_6  and  C_7
REMARK    4  A    between atoms: N_15  and  C_16
REMARK    5  A    between atoms: N_19  and  C_20
REMARK    6  A    between atoms: C_22  and  O_23
REMARK    7  A    between atoms: O_23  and  C_24
REMARK                            x       y       z     vdW  Elec       q    Type
REMARK                         _______ _______ _______ _____ _____    ______ ____
ROOT
ATOM      1  C   UNL     1       2.572   7.401  18.853  0.00  0.00    +0.000 A 
ATOM      2  C   UNL     1       3.262   7.944  17.752  0.00  0.00    +0.000 A 
ATOM      3  C   UNL     1       4.114   7.151  17.011  0.00  0.00    +0.000 A 
ATOM      4  N   UNL     1       4.373   5.869  17.317  0.00  0.00    +0.000 NA
ATOM      5  C   UNL     1       3.731   5.323  18.383  0.00  0.00    +0.000 A 
ATOM      6  C   UNL     1       2.800   6.028  19.137  0.00  0.00    +0.000 A 
ATOM      7  C   UNL     1       2.064   5.245  20.156  0.00  0.00    +0.000 A 
ATOM      8  O   UNL     1       0.967   5.594  20.563  0.00  0.00    +0.000 OA
ATOM      9  N   UNL     1       2.655   4.067  20.590  0.00  0.00    +0.000 N 
ATOM     10  C   UNL     1       2.043   3.375  21.711  0.00  0.00    +0.000 C 
ATOM     11  C   UNL     1       3.553   3.348  19.824  0.00  0.00    +0.000 A 
ATOM     12  O   UNL     1       3.865   2.195  20.114  0.00  0.00    +0.000 OA
ATOM     13  N   UNL     1       4.050   3.990  18.705  0.00  0.00    +0.000 N 
ATOM     14  C   UNL     1       5.003   3.305  17.845  0.00  0.00    +0.000 C 
ENDROOT
BRANCH   1  18
ATOM     15  C   UNL     1      -0.126   9.968  21.069  0.00  0.00    +0.000 A 
ATOM     16  C   UNL     1       0.655   9.005  21.715  0.00  0.00    +0.000 A 
ATOM     17  C   UNL     1       1.610   8.271  21.018  0.00  0.00    +0.000 A 
ATOM     18  C   UNL     1       1.670   8.295  19.626  0.00  0.00    +0.000 A 
ATOM     19  C   UNL     1       0.822   9.212  18.979  0.00  0.00    +0.000 A 
ATOM     20  C   UNL     1      -0.054  10.065  19.676  0.00  0.00    +0.000 A 
BRANCH  15  22
ATOM     21  C   UNL     1      -0.993  10.490  23.195  0.00  0.00    +0.000 C 
ATOM     22  O   UNL     1      -0.933  10.799  21.798  0.00  0.00    +0.000 OA
ENDBRANCH  15  22
BRANCH  20  23
ATOM     23  O   UNL     1      -0.710  10.905  18.819  0.00  0.00    +0.000 OA
ATOM     24  C   UNL     1      -1.692  10.374  17.949  0.00  0.00    +0.000 C 
ENDBRANCH  20  23
ENDBRANCH   1  18
TORSDOF 3
ENDMDL
MODEL 4
REMARK VINA RESULT:      -6.2      3.097      7.068
REMARK  Name = 
REMARK  7 active torsions:
REMARK  status: ('A' for Active; 'I' for Inactive)
REMARK    1  A    between atoms: C_1  and  O_2
REMARK    2  A    between atoms: O_2  and  C_3
REMARK    3  A    between atoms: C_6  and  C_7
REMARK    4  A    between atoms: N_15  and  C_16
REMARK    5  A    between atoms: N_19  and  C_20
REMARK    6  A    between atoms: C_22  and  O_23
REMARK    7  A    between atoms: O_23  and  C_24
REMARK                            x       y       z     vdW  Elec       q    Type
REMARK                         _______ _______ _______ _____ _____    ______ ____
ROOT
ATOM      1  C   UNL     1       3.168   6.910  18.126  0.00  0.00    +0.000 A 
ATOM      2  C   UNL     1       4.060   7.615  17.295  0.00  0.00    +0.000 A 
ATOM      3  C   UNL     1       4.916   6.926  16.460  0.00  0.00    +0.000 A 
ATOM      4  N   UNL     1       4.989   5.586  16.430  0.00  0.00    +0.000 NA
ATOM      5  C   UNL     1       4.148   4.881  17.232  0.00  0.00    +0.000 A 
ATOM      6  C   UNL     1       3.204   5.493  18.048  0.00  0.00    +0.000 A 
ATOM      7  C   UNL     1       2.252   4.587  18.731  0.00  0.00    +0.000 A 
ATOM      8  O   UNL     1       1.154   4.972  19.100  0.00  0.00    +0.000 OA
ATOM      9  N   UNL     1       2.645   3.265  18.887  0.00  0.00    +0.000 N 
ATOM     10  C   UNL     1       1.811   2.403  19.705  0.00  0.00    +0.000 C 
ATOM     11  C   UNL     1       3.557   2.648  18.052  0.00  0.00    +0.000 A 
ATOM     12  O   UNL     1       3.699   1.427  18.048  0.00  0.00    +0.000 OA
ATOM     13  N   UNL     1       4.273   3.478  17.210  0.00  0.00    +0.000 N 
ATOM     14  C   UNL     1       5.256   2.909  16.301  0.00  0.00    +0.000 C 
ENDROOT
BRANCH   1  18
ATOM     15  C   UNL     1       0.481   9.169  20.668  0.00  0.00    +0.000 A 
ATOM     16  C   UNL     1       1.164   8.049  21.148  0.00  0.00    +0.000 A 
ATOM     17  C   UNL     1       2.120   7.403  20.369  0.00  0.00    +0.000 A 
ATOM     18  C   UNL     1       2.269   7.694  19.014  0.00  0.00    +0.000 A 
ATOM     19  C   UNL     1       1.516   8.775  18.520  0.00  0.00    +0.000 A 
ATOM     20  C   UNL     1       0.647   9.532  19.327  0.00  0.00    +0.000 A 
BRANCH  15  22
ATOM     21  C   UNL     1      -0.197   9.552  22.890  0.00  0.00    +0.000 C 
ATOM     22  O   UNL     1      -0.324   9.894  21.505  0.00  0.00    +0.000 OA
ENDBRANCH  15  22
BRANCH  20  23
ATOM     23  O   UNL     1       0.094  10.565  18.622  0.00  0.00    +0.000 OA
ATOM     24  C   UNL     1      -1.188  10.400  18.047  0.00  0.00    +0.000 C 
ENDBRANCH  20  23
ENDBRANCH   1  18
TORSDOF 3
ENDMDL
MODEL 5
REMARK VINA RESULT:      -6.2      2.337      6.329
REMARK  Name = 
REMARK  7 active torsions:
REMARK  status: ('A' for Active; 'I' for Inactive)
REMARK    1  A    between atoms: C_1  and  O_2
REMARK    2  A    between atoms: O_2  and  C_3
REMARK    3  A    between atoms: C_6  and  C_7
REMARK    4  A    between atoms: N_15  and  C_16
REMARK    5  A    between atoms: N_19  and  C_20
REMARK    6  A    between atoms: C_22  and  O_23
REMARK    7  A    between atoms: O_23  and  C_24
REMARK                            x       y       z     vdW  Elec       q    Type
REMARK                         _______ _______ _______ _____ _____    ______ ____
ROOT
ATOM      1  C   UNL     1       2.109   6.279  19.661  0.00  0.00    +0.000 A 
ATOM      2  C   UNL     1       1.467   5.502  20.645  0.00  0.00    +0.000 A 
ATOM      3  C   UNL     1       1.759   4.158  20.763  0.00  0.00    +0.000 A 
ATOM      4  N   UNL     1       2.603   3.517  19.939  0.00  0.00    +0.000 NA
ATOM      5  C   UNL     1       3.226   4.240  18.971  0.00  0.00    +0.000 A 
ATOM      6  C   UNL     1       3.047   5.611  18.830  0.00  0.00    +0.000 A 
ATOM      7  C   UNL     1       3.923   6.281  17.841  0.00  0.00    +0.000 A 
ATOM      8  O   UNL     1       4.185   7.471  17.919  0.00  0.00    +0.000 OA
ATOM      9  N   UNL     1       4.476   5.482  16.850  0.00  0.00    +0.000 N 
ATOM     10  C   UNL     1       5.191   6.141  15.771  0.00  0.00    +0.000 C 
ATOM     11  C   UNL     1       4.686   4.125  17.006  0.00  0.00    +0.000 A 
ATOM     12  O   UNL     1       5.398   3.493  16.229  0.00  0.00    +0.000 OA
ATOM     13  N   UNL     1       4.075   3.535  18.097  0.00  0.00    +0.000 N 
ATOM     14  C   UNL     1       4.243   2.109  18.332  0.00  0.00    +0.000 C 
ENDROOT
BRANCH   1  18
ATOM     15  C   UNL     1       1.158  10.500  19.428  0.00  0.00    +0.000 A 
ATOM     16  C   UNL     1       1.488   9.766  18.285  0.00  0.00    +0.000 A 
ATOM     17  C   UNL     1       1.668   8.388  18.346  0.00  0.00    +0.000 A 
ATOM     18  C   UNL     1       1.758   7.720  19.566  0.00  0.00    +0.000 A 
ATOM     19  C   UNL     1       1.502   8.487  20.718  0.00  0.00    +0.000 A 
ATOM     20  C   UNL     1       1.179   9.855  20.669  0.00  0.00    +0.000 A 
BRANCH  15  22
ATOM     21  C   UNL     1       1.899  12.688  18.970  0.00  0.00    +0.000 C 
ATOM     22  O   UNL     1       0.814  11.821  19.320  0.00  0.00    +0.000 OA
ENDBRANCH  15  22
BRANCH  20  23
ATOM     23  O   UNL     1       0.908  10.343  21.917  0.00  0.00    +0.000 OA
ATOM     24  C   UNL     1       0.186   9.540  22.831  0.00  0.00    +0.000 C 
ENDBRANCH  20  23
ENDBRANCH   1  18
TORSDOF 3
ENDMDL
MODEL 6
REMARK VINA RESULT:      -6.0      6.924      9.131
REMARK  Name = 
REMARK  7 active torsions:
REMARK  status: ('A' for Active; 'I' for Inactive)
REMARK    1  A    between atoms: C_1  and  O_2
REMARK    2  A    between atoms: O_2  and  C_3
REMARK    3  A    between atoms: C_6  and  C_7
REMARK    4  A    between atoms: N_15  and  C_16
REMARK    5  A    between atoms: N_19  and  C_20
REMARK    6  A    between atoms: C_22  and  O_23
REMARK    7  A    between atoms: O_23  and  C_24
REMARK                            x       y       z     vdW  Elec       q    Type
REMARK                         _______ _______ _______ _____ _____    ______ ____
ROOT
ATOM      1  C   UNL     1      -2.249  11.918  18.650  0.00  0.00    +0.000 A 
ATOM      2  C   UNL     1      -2.218  11.393  17.343  0.00  0.00    +0.000 A 
ATOM      3  C   UNL     1      -3.397  11.076  16.699  0.00  0.00    +0.000 A 
ATOM      4  N   UNL     1      -4.603  11.192  17.279  0.00  0.00    +0.000 NA
ATOM      5  C   UNL     1      -4.660  11.684  18.544  0.00  0.00    +0.000 A 
ATOM      6  C   UNL     1      -3.529  12.098  19.238  0.00  0.00    +0.000 A 
ATOM      7  C   UNL     1      -3.773  12.766  20.537  0.00  0.00    +0.000 A 
ATOM      8  O   UNL     1      -2.962  13.539  21.022  0.00  0.00    +0.000 OA
ATOM      9  N   UNL     1      -4.990  12.513  21.154  0.00  0.00    +0.000 N 
ATOM     10  C   UNL     1      -5.181  13.012  22.504  0.00  0.00    +0.000 C 
ATOM     11  C   UNL     1      -6.123  12.137  20.458  0.00  0.00    +0.000 A 
ATOM     12  O   UNL     1      -7.235  12.166  20.980  0.00  0.00    +0.000 OA
ATOM     13  N   UNL     1      -5.933  11.758  19.142  0.00  0.00    +0.000 N 
ATOM     14  C   UNL     1      -7.073  11.344  18.339  0.00  0.00    +0.000 C 
ENDROOT
BRANCH   1  18
ATOM     15  C   UNL     1       1.561  12.781  20.527  0.00  0.00    +0.000 A 
ATOM     16  C   UNL     1       1.030  13.619  19.543  0.00  0.00    +0.000 A 
ATOM     17  C   UNL     1      -0.248  13.409  19.034  0.00  0.00    +0.000 A 
ATOM     18  C   UNL     1      -0.954  12.238  19.307  0.00  0.00    +0.000 A 
ATOM     19  C   UNL     1      -0.373  11.361  20.241  0.00  0.00    +0.000 A 
ATOM     20  C   UNL     1       0.856  11.624  20.874  0.00  0.00    +0.000 A 
BRANCH  15  22
ATOM     21  C   UNL     1       3.148  14.465  20.962  0.00  0.00    +0.000 C 
ATOM     22  O   UNL     1       2.742  13.102  21.140  0.00  0.00    +0.000 OA
ENDBRANCH  15  22
BRANCH  20  23
ATOM     23  O   UNL     1       1.158  10.651  21.786  0.00  0.00    +0.000 OA
ATOM     24  C   UNL     1       0.596   9.362  21.633  0.00  0.00    +0.000 C 
ENDBRANCH  20  23
ENDBRANCH   1  18
TORSDOF 3
ENDMDL
MODEL 7
REMARK VINA RESULT:      -5.9      1.030      1.076
REMARK  Name = 
REMARK  7 active torsions:
REMARK  status: ('A' for Active; 'I' for Inactive)
REMARK    1  A    between atoms: C_1  and  O_2
REMARK    2  A    between atoms: O_2  and  C_3
REMARK    3  A    between atoms: C_6  and  C_7
REMARK    4  A    between atoms: N_15  and  C_16
REMARK    5  A    between atoms: N_19  and  C_20
REMARK    6  A    between atoms: C_22  and  O_23
REMARK    7  A    between atoms: O_23  and  C_24
REMARK                            x       y       z     vdW  Elec       q    Type
REMARK                         _______ _______ _______ _____ _____    ______ ____
ROOT
ATOM      1  C   UNL     1       3.232   6.107  19.148  0.00  0.00    +0.000 A 
ATOM      2  C   UNL     1       2.959   5.042  20.029  0.00  0.00    +0.000 A 
ATOM      3  C   UNL     1       1.949   5.159  20.962  0.00  0.00    +0.000 A 
ATOM      4  N   UNL     1       1.226   6.280  21.123  0.00  0.00    +0.000 NA
ATOM      5  C   UNL     1       1.478   7.328  20.295  0.00  0.00    +0.000 A 
ATOM      6  C   UNL     1       2.424   7.268  19.279  0.00  0.00    +0.000 A 
ATOM      7  C   UNL     1       2.461   8.428  18.358  0.00  0.00    +0.000 A 
ATOM      8  O   UNL     1       2.899   8.331  17.223  0.00  0.00    +0.000 OA
ATOM      9  N   UNL     1       1.929   9.620  18.829  0.00  0.00    +0.000 N 
ATOM     10  C   UNL     1       2.112  10.810  18.017  0.00  0.00    +0.000 C 
ATOM     11  C   UNL     1       0.961   9.675  19.815  0.00  0.00    +0.000 A 
ATOM     12  O   UNL     1       0.328  10.705  20.034  0.00  0.00    +0.000 OA
ATOM     13  N   UNL     1       0.732   8.503  20.511  0.00  0.00    +0.000 N 
ATOM     14  C   UNL     1      -0.267   8.476  21.567  0.00  0.00    +0.000 C 
ENDROOT
BRANCH   1  18
ATOM     15  C   UNL     1       6.444   5.531  16.297  0.00  0.00    +0.000 A 
ATOM     16  C   UNL     1       5.152   5.862  15.879  0.00  0.00    +0.000 A 
ATOM     17  C   UNL     1       4.156   6.170  16.800  0.00  0.00    +0.000 A 
ATOM     18  C   UNL     1       4.333   5.939  18.164  0.00  0.00    +0.000 A 
ATOM     19  C   UNL     1       5.617   5.528  18.567  0.00  0.00    +0.000 A 
ATOM     20  C   UNL     1       6.679   5.346  17.663  0.00  0.00    +0.000 A 
BRANCH  15  22
ATOM     21  C   UNL     1       7.058   4.778  14.152  0.00  0.00    +0.000 C 
ATOM     22  O   UNL     1       7.452   5.403  15.380  0.00  0.00    +0.000 OA
ENDBRANCH  15  22
BRANCH  20  23
ATOM     23  O   UNL     1       7.833   5.015  18.319  0.00  0.00    +0.000 OA
ATOM     24  C   UNL     1       8.119   5.626  19.563  0.00  0.00    +0.000 C 
ENDBRANCH  20  23
ENDBRANCH   1  18
TORSDOF 3
ENDMDL
MODEL 8
REMARK VINA RESULT:      -5.9      2.188      3.667
REMARK  Name = 
REMARK  7 active torsions:
REMARK  status: ('A' for Active; 'I' for Inactive)
REMARK    1  A    between atoms: C_1  and  O_2
REMARK    2  A    between atoms: O_2  and  C_3
REMARK    3  A    between atoms: C_6  and  C_7
REMARK    4  A    between atoms: N_15  and  C_16
REMARK    5  A    between atoms: N_19  and  C_20
REMARK    6  A    between atoms: C_22  and  O_23
REMARK    7  A    between atoms: O_23  and  C_24
REMARK                            x       y       z     vdW  Elec       q    Type
REMARK                         _______ _______ _______ _____ _____    ______ ____
ROOT
ATOM      1  C   UNL     1       4.404   3.346  17.485  0.00  0.00    +0.000 A 
ATOM      2  C   UNL     1       4.358   1.943  17.610  0.00  0.00    +0.000 A 
ATOM      3  C   UNL     1       3.451   1.355  18.468  0.00  0.00    +0.000 A 
ATOM      4  N   UNL     1       2.622   2.062  19.254  0.00  0.00    +0.000 NA
ATOM      5  C   UNL     1       2.655   3.418  19.163  0.00  0.00    +0.000 A 
ATOM      6  C   UNL     1       3.484   4.088  18.272  0.00  0.00    +0.000 A 
ATOM      7  C   UNL     1       3.281   5.552  18.173  0.00  0.00    +0.000 A 
ATOM      8  O   UNL     1       3.599   6.178  17.175  0.00  0.00    +0.000 OA
ATOM      9  N   UNL     1       2.666   6.174  19.251  0.00  0.00    +0.000 N 
ATOM     10  C   UNL     1       2.616   7.626  19.256  0.00  0.00    +0.000 C 
ATOM     11  C   UNL     1       1.813   5.514  20.115  0.00  0.00    +0.000 A 
ATOM     12  O   UNL     1       1.089   6.128  20.896  0.00  0.00    +0.000 OA
ATOM     13  N   UNL     1       1.803   4.135  20.026  0.00  0.00    +0.000 N 
ATOM     14  C   UNL     1       0.936   3.362  20.903  0.00  0.00    +0.000 C 
ENDROOT
BRANCH   1  18
ATOM     15  C   UNL     1       7.249   5.100  14.727  0.00  0.00    +0.000 A 
ATOM     16  C   UNL     1       7.184   5.510  16.061  0.00  0.00    +0.000 A 
ATOM     17  C   UNL     1       6.359   4.858  16.973  0.00  0.00    +0.000 A 
ATOM     18  C   UNL     1       5.402   3.935  16.554  0.00  0.00    +0.000 A 
ATOM     19  C   UNL     1       5.423   3.587  15.191  0.00  0.00    +0.000 A 
ATOM     20  C   UNL     1       6.344   4.132  14.278  0.00  0.00    +0.000 A 
BRANCH  15  22
ATOM     21  C   UNL     1       7.878   5.513  12.496  0.00  0.00    +0.000 C 
ATOM     22  O   UNL     1       8.190   5.635  13.889  0.00  0.00    +0.000 OA
ENDBRANCH  15  22
BRANCH  20  23
ATOM     23  O   UNL     1       6.197   3.575  13.038  0.00  0.00    +0.000 OA
ATOM     24  C   UNL     1       4.905   3.488  12.469  0.00  0.00    +0.000 C 
ENDBRANCH  20  23
ENDBRANCH   1  18
TORSDOF 3
ENDMDL
MODEL 9
REMARK VINA RESULT:      -5.8      2.886      5.033
REMARK  Name = 
REMARK  7 active torsions:
REMARK  status: ('A' for Active; 'I' for Inactive)
REMARK    1  A    between atoms: C_1  and  O_2
REMARK    2  A    between atoms: O_2  and  C_3
REMARK    3  A    between atoms: C_6  and  C_7
REMARK    4  A    between atoms: N_15  and  C_16
REMARK    5  A    between atoms: N_19  and  C_20
REMARK    6  A    between atoms: C_22  and  O_23
REMARK    7  A    between atoms: O_23  and  C_24
REMARK                            x       y       z     vdW  Elec       q    Type
REMARK                         _______ _______ _______ _____ _____    ______ ____
ROOT
ATOM      1  C   UNL     1       0.772   9.166  21.125  0.00  0.00    +0.000 A 
ATOM      2  C   UNL     1       1.008   8.892  22.487  0.00  0.00    +0.000 A 
ATOM      3  C   UNL     1       0.317   9.585  23.460  0.00  0.00    +0.000 A 
ATOM      4  N   UNL     1      -0.553  10.569  23.181  0.00  0.00    +0.000 NA
ATOM      5  C   UNL     1      -0.789  10.863  21.875  0.00  0.00    +0.000 A 
ATOM      6  C   UNL     1      -0.194  10.164  20.831  0.00  0.00    +0.000 A 
ATOM      7  C   UNL     1      -0.682  10.490  19.471  0.00  0.00    +0.000 A 
ATOM      8  O   UNL     1      -0.588   9.696  18.549  0.00  0.00    +0.000 OA
ATOM      9  N   UNL     1      -1.300  11.722  19.304  0.00  0.00    +0.000 N 
ATOM     10  C   UNL     1      -1.627  12.137  17.952  0.00  0.00    +0.000 C 
ATOM     11  C   UNL     1      -1.923  12.398  20.336  0.00  0.00    +0.000 A 
ATOM     12  O   UNL     1      -2.672  13.347  20.120  0.00  0.00    +0.000 OA
ATOM     13  N   UNL     1      -1.676  11.925  21.612  0.00  0.00    +0.000 N 
ATOM     14  C   UNL     1      -2.290  12.582  22.755  0.00  0.00    +0.000 C 
ENDROOT
BRANCH   1  18
ATOM     15  C   UNL     1       2.954   6.884  18.157  0.00  0.00    +0.000 A 
ATOM     16  C   UNL     1       2.616   8.222  17.940  0.00  0.00    +0.000 A 
ATOM     17  C   UNL     1       2.029   8.986  18.943  0.00  0.00    +0.000 A 
ATOM     18  C   UNL     1       1.544   8.400  20.112  0.00  0.00    +0.000 A 
ATOM     19  C   UNL     1       1.820   7.031  20.286  0.00  0.00    +0.000 A 
ATOM     20  C   UNL     1       2.537   6.271  19.343  0.00  0.00    +0.000 A 
BRANCH  15  22
ATOM     21  C   UNL     1       5.100   6.410  17.312  0.00  0.00    +0.000 C 
ATOM     22  O   UNL     1       3.686   6.199  17.224  0.00  0.00    +0.000 OA
ENDBRANCH  15  22
BRANCH  20  23
ATOM     23  O   UNL     1       2.728   4.991  19.785  0.00  0.00    +0.000 OA
ATOM     24  C   UNL     1       1.605   4.207  20.137  0.00  0.00    +0.000 C 
ENDBRANCH  20  23
ENDBRANCH   1  18
TORSDOF 3
ENDMDL
