MODEL 1
REMARK VINA RESULT:      -9.3      0.000      0.000
REMARK  Name = 
REMARK  7 active torsions:
REMARK  status: ('A' for Active; 'I' for Inactive)
REMARK    1  A    between atoms: C_1  and  C_2
REMARK    2  A    between atoms: C_5  and  C_6
REMARK    3  A    between atoms: C_7  and  N_8
REMARK    4  A    between atoms: N_11  and  C_12
REMARK    5  A    between atoms: C_12  and  C_13
REMARK    6  A    between atoms: C_13  and  N_14
REMARK    7  A    between atoms: N_20  and  C_21
REMARK                            x       y       z     vdW  Elec       q    Type
REMARK                         _______ _______ _______ _____ _____    ______ ____
ROOT
ATOM      1  N   UNL     1       3.550   7.957  17.337  0.00  0.00    +0.000 N 
ATOM      2  C   UNL     1       4.129   6.709  17.079  0.00  0.00    +0.000 A 
ATOM      3  C   UNL     1       5.208   6.633  16.227  0.00  0.00    +0.000 A 
ATOM      4  C   UNL     1       5.673   5.369  15.937  0.00  0.00    +0.000 A 
ATOM      5  N   UNL     1       5.130   4.242  16.433  0.00  0.00    +0.000 NA
ATOM      6  C   UNL     1       4.100   4.403  17.270  0.00  0.00    +0.000 A 
ATOM      7  N   UNL     1       3.522   3.252  17.801  0.00  0.00    +0.000 N 
ATOM      8  N   UNL     1       3.591   5.599  17.603  0.00  0.00    +0.000 NA
ATOM      9  H   UNL     1       4.247   8.648  17.593  0.00  0.00    +0.000 HD
ATOM     10  H   UNL     1       3.916   2.418  17.396  0.00  0.00    +0.000 HD
ENDROOT
BRANCH   7  11
ATOM     11  C   UNL     1       2.815   3.119  19.004  0.00  0.00    +0.000 A 
ATOM     12  C   UNL     1       3.503   2.826  20.188  0.00  0.00    +0.000 A 
ATOM     13  C   UNL     1       2.802   2.590  21.378  0.00  0.00    +0.000 A 
ATOM     14  C   UNL     1       1.415   2.658  21.384  0.00  0.00    +0.000 A 
ATOM     15  F   UNL     1       0.746   2.415  22.518  0.00  0.00    +0.000 F 
ATOM     16  C   UNL     1       0.711   2.964  20.231  0.00  0.00    +0.000 A 
ATOM     17  C   UNL     1       1.412   3.189  19.049  0.00  0.00    +0.000 A 
ENDBRANCH   7  11
BRANCH   1  18
ATOM     18  C   UNL     1       2.371   7.984  18.216  0.00  0.00    +0.000 C 
BRANCH  18  19
ATOM     19  C   UNL     1       1.991   9.407  18.655  0.00  0.00    +0.000 C 
BRANCH  19  23
ATOM     20  N   UNL     1      -1.097  10.846  17.323  0.00  0.00    +0.000 N 
ATOM     21  C   UNL     1      -0.309  10.216  18.267  0.00  0.00    +0.000 C 
ATOM     22  O   UNL     1      -0.657   9.908  19.401  0.00  0.00    +0.000 OA
ATOM     23  N   UNL     1       0.972  10.010  17.806  0.00  0.00    +0.000 N 
ATOM     24  H   UNL     1      -0.581  11.460  16.711  0.00  0.00    +0.000 HD
ATOM     25  H   UNL     1       1.142  10.060  16.812  0.00  0.00    +0.000 HD
BRANCH  20  32
ATOM     26  C   UNL     1      -4.508  12.703  20.409  0.00  0.00    +0.000 C 
ATOM     27  C   UNL     1      -4.139  12.116  19.078  0.00  0.00    +0.000 A 
ATOM     28  C   UNL     1      -5.114  11.879  18.107  0.00  0.00    +0.000 A 
ATOM     29  C   UNL     1      -4.765  11.298  16.887  0.00  0.00    +0.000 A 
ATOM     30  C   UNL     1      -3.436  10.934  16.612  0.00  0.00    +0.000 A 
ATOM     31  C   UNL     1      -3.106  10.359  15.265  0.00  0.00    +0.000 C 
ATOM     32  C   UNL     1      -2.446  11.197  17.577  0.00  0.00    +0.000 A 
ATOM     33  C   UNL     1      -2.806  11.786  18.798  0.00  0.00    +0.000 A 
ENDBRANCH  20  32
ENDBRANCH  19  23
ENDBRANCH  18  19
ENDBRANCH   1  18
TORSDOF 5
ENDMDL
MODEL 2
REMARK VINA RESULT:      -9.2      0.502      1.023
REMARK  Name = 
REMARK  7 active torsions:
REMARK  status: ('A' for Active; 'I' for Inactive)
REMARK    1  A    between atoms: C_1  and  C_2
REMARK    2  A    between atoms: C_5  and  C_6
REMARK    3  A    between atoms: C_7  and  N_8
REMARK    4  A    between atoms: N_11  and  C_12
REMARK    5  A    between atoms: C_12  and  C_13
REMARK    6  A    between atoms: C_13  and  N_14
REMARK    7  A    between atoms: N_20  and  C_21
REMARK                            x       y       z     vdW  Elec       q    Type
REMARK                         _______ _______ _______ _____ _____    ______ ____
ROOT
ATOM      1  N   UNL     1       3.912   7.626  17.291  0.00  0.00    +0.000 N 
ATOM      2  C   UNL     1       4.544   6.401  17.048  0.00  0.00    +0.000 A 
ATOM      3  C   UNL     1       5.692   6.378  16.287  0.00  0.00    +0.000 A 
ATOM      4  C   UNL     1       6.214   5.136  16.004  0.00  0.00    +0.000 A 
ATOM      5  N   UNL     1       5.663   3.981  16.421  0.00  0.00    +0.000 NA
ATOM      6  C   UNL     1       4.563   4.092  17.172  0.00  0.00    +0.000 A 
ATOM      7  N   UNL     1       3.974   2.910  17.621  0.00  0.00    +0.000 N 
ATOM      8  N   UNL     1       3.995   5.264  17.494  0.00  0.00    +0.000 NA
ATOM      9  H   UNL     1       4.565   8.327  17.623  0.00  0.00    +0.000 HD
ATOM     10  H   UNL     1       4.424   2.099  17.228  0.00  0.00    +0.000 HD
ENDROOT
BRANCH   7  11
ATOM     11  C   UNL     1       3.173   2.724  18.756  0.00  0.00    +0.000 A 
ATOM     12  C   UNL     1       1.778   2.769  18.639  0.00  0.00    +0.000 A 
ATOM     13  C   UNL     1       0.966   2.686  19.777  0.00  0.00    +0.000 A 
ATOM     14  C   UNL     1       1.551   2.547  21.030  0.00  0.00    +0.000 A 
ATOM     15  F   UNL     1       0.774   2.485  22.118  0.00  0.00    +0.000 F 
ATOM     16  C   UNL     1       2.927   2.480  21.171  0.00  0.00    +0.000 A 
ATOM     17  C   UNL     1       3.730   2.571  20.037  0.00  0.00    +0.000 A 
ENDBRANCH   7  11
BRANCH   1  18
ATOM     18  C   UNL     1       2.663   7.597  18.068  0.00  0.00    +0.000 C 
BRANCH  18  19
ATOM     19  C   UNL     1       2.174   9.002  18.457  0.00  0.00    +0.000 C 
BRANCH  19  23
ATOM     20  N   UNL     1      -1.022  10.336  17.280  0.00  0.00    +0.000 N 
ATOM     21  C   UNL     1      -0.114   9.900  18.226  0.00  0.00    +0.000 C 
ATOM     22  O   UNL     1      -0.272   9.933  19.441  0.00  0.00    +0.000 OA
ATOM     23  N   UNL     1       1.053   9.459  17.645  0.00  0.00    +0.000 N 
ATOM     24  H   UNL     1      -0.591  10.716  16.452  0.00  0.00    +0.000 HD
ATOM     25  H   UNL     1       1.048   9.231  16.662  0.00  0.00    +0.000 HD
BRANCH  20  32
ATOM     26  C   UNL     1      -3.828  12.866  20.495  0.00  0.00    +0.000 C 
ATOM     27  C   UNL     1      -3.683  12.120  19.201  0.00  0.00    +0.000 A 
ATOM     28  C   UNL     1      -4.783  11.915  18.367  0.00  0.00    +0.000 A 
ATOM     29  C   UNL     1      -4.643  11.188  17.183  0.00  0.00    +0.000 A 
ATOM     30  C   UNL     1      -3.403  10.642  16.811  0.00  0.00    +0.000 A 
ATOM     31  C   UNL     1      -3.297   9.911  15.504  0.00  0.00    +0.000 C 
ATOM     32  C   UNL     1      -2.286  10.869  17.636  0.00  0.00    +0.000 A 
ATOM     33  C   UNL     1      -2.435  11.606  18.820  0.00  0.00    +0.000 A 
ENDBRANCH  20  32
ENDBRANCH  19  23
ENDBRANCH  18  19
ENDBRANCH   1  18
TORSDOF 5
ENDMDL
MODEL 3
REMARK VINA RESULT:      -9.1      2.402      3.113
REMARK  Name = 
REMARK  7 active torsions:
REMARK  status: ('A' for Active; 'I' for Inactive)
REMARK    1  A    between atoms: C_1  and  C_2
REMARK    2  A    between atoms: C_5  and  C_6
REMARK    3  A    between atoms: C_7  and  N_8
REMARK    4  A    between atoms: N_11  and  C_12
REMARK    5  A    between atoms: C_12  and  C_13
REMARK    6  A    between atoms: C_13  and  N_14
REMARK    7  A    between atoms: N_20  and  C_21
REMARK                            x       y       z     vdW  Elec       q    Type
REMARK                         _______ _______ _______ _____ _____    ______ ____
ROOT
ATOM      1  N   UNL     1       3.816   7.634  17.283  0.00  0.00    +0.000 N 
ATOM      2  C   UNL     1       4.468   6.416  17.059  0.00  0.00    +0.000 A 
ATOM      3  C   UNL     1       5.609   6.398  16.287  0.00  0.00    +0.000 A 
ATOM      4  C   UNL     1       6.151   5.160  16.024  0.00  0.00    +0.000 A 
ATOM      5  N   UNL     1       5.626   4.004  16.470  0.00  0.00    +0.000 NA
ATOM      6  C   UNL     1       4.532   4.110  17.230  0.00  0.00    +0.000 A 
ATOM      7  N   UNL     1       3.969   2.928  17.709  0.00  0.00    +0.000 N 
ATOM      8  N   UNL     1       3.945   5.278  17.534  0.00  0.00    +0.000 NA
ATOM      9  H   UNL     1       4.459   8.353  17.594  0.00  0.00    +0.000 HD
ATOM     10  H   UNL     1       4.430   2.117  17.328  0.00  0.00    +0.000 HD
ENDROOT
BRANCH   7  11
ATOM     11  C   UNL     1       3.183   2.750  18.856  0.00  0.00    +0.000 A 
ATOM     12  C   UNL     1       1.787   2.774  18.753  0.00  0.00    +0.000 A 
ATOM     13  C   UNL     1       0.987   2.699  19.902  0.00  0.00    +0.000 A 
ATOM     14  C   UNL     1       1.587   2.590  21.150  0.00  0.00    +0.000 A 
ATOM     15  F   UNL     1       0.823   2.537  22.248  0.00  0.00    +0.000 F 
ATOM     16  C   UNL     1       2.966   2.546  21.278  0.00  0.00    +0.000 A 
ATOM     17  C   UNL     1       3.755   2.628  20.133  0.00  0.00    +0.000 A 
ENDBRANCH   7  11
BRANCH   1  18
ATOM     18  C   UNL     1       2.576   7.598  18.073  0.00  0.00    +0.000 C 
BRANCH  18  19
ATOM     19  C   UNL     1       1.699   8.842  17.857  0.00  0.00    +0.000 C 
BRANCH  19  23
ATOM     20  N   UNL     1       0.645  10.951  20.653  0.00  0.00    +0.000 N 
ATOM     21  C   UNL     1       0.461  10.186  19.517  0.00  0.00    +0.000 C 
ATOM     22  O   UNL     1      -0.618   9.898  19.014  0.00  0.00    +0.000 OA
ATOM     23  N   UNL     1       1.657   9.716  19.022  0.00  0.00    +0.000 N 
ATOM     24  H   UNL     1       1.447  10.678  21.200  0.00  0.00    +0.000 HD
ATOM     25  H   UNL     1       2.512  10.163  19.319  0.00  0.00    +0.000 HD
BRANCH  20  32
ATOM     26  C   UNL     1      -2.794  14.503  21.064  0.00  0.00    +0.000 C 
ATOM     27  C   UNL     1      -2.147  13.252  21.582  0.00  0.00    +0.000 A 
ATOM     28  C   UNL     1      -2.576  12.666  22.774  0.00  0.00    +0.000 A 
ATOM     29  C   UNL     1      -1.943  11.524  23.266  0.00  0.00    +0.000 A 
ATOM     30  C   UNL     1      -0.860  10.946  22.582  0.00  0.00    +0.000 A 
ATOM     31  C   UNL     1      -0.245   9.689  23.129  0.00  0.00    +0.000 C 
ATOM     32  C   UNL     1      -0.441  11.518  21.367  0.00  0.00    +0.000 A 
ATOM     33  C   UNL     1      -1.088  12.662  20.878  0.00  0.00    +0.000 A 
ENDBRANCH  20  32
ENDBRANCH  19  23
ENDBRANCH  18  19
ENDBRANCH   1  18
TORSDOF 5
ENDMDL
MODEL 4
REMARK VINA RESULT:      -9.0      2.567      4.254
REMARK  Name = 
REMARK  7 active torsions:
REMARK  status: ('A' for Active; 'I' for Inactive)
REMARK    1  A    between atoms: C_1  and  C_2
REMARK    2  A    between atoms: C_5  and  C_6
REMARK    3  A    between atoms: C_7  and  N_8
REMARK    4  A    between atoms: N_11  and  C_12
REMARK    5  A    between atoms: C_12  and  C_13
REMARK    6  A    between atoms: C_13  and  N_14
REMARK    7  A    between atoms: N_20  and  C_21
REMARK                            x       y       z     vdW  Elec       q    Type
REMARK                         _______ _______ _______ _____ _____    ______ ____
ROOT
ATOM      1  N   UNL     1       1.936   6.880  19.125  0.00  0.00    +0.000 N 
ATOM      2  C   UNL     1       2.519   5.633  19.376  0.00  0.00    +0.000 A 
ATOM      3  C   UNL     1       1.959   4.809  20.327  0.00  0.00    +0.000 A 
ATOM      4  C   UNL     1       2.631   3.638  20.596  0.00  0.00    +0.000 A 
ATOM      5  N   UNL     1       3.779   3.280  19.991  0.00  0.00    +0.000 NA
ATOM      6  C   UNL     1       4.244   4.123  19.065  0.00  0.00    +0.000 A 
ATOM      7  N   UNL     1       5.430   3.774  18.421  0.00  0.00    +0.000 N 
ATOM      8  N   UNL     1       3.648   5.282  18.745  0.00  0.00    +0.000 NA
ATOM      9  H   UNL     1       0.935   6.805  18.976  0.00  0.00    +0.000 HD
ATOM     10  H   UNL     1       5.839   2.945  18.820  0.00  0.00    +0.000 HD
ENDROOT
BRANCH   7  11
ATOM     11  C   UNL     1       5.867   4.167  17.149  0.00  0.00    +0.000 A 
ATOM     12  C   UNL     1       5.079   3.889  16.025  0.00  0.00    +0.000 A 
ATOM     13  C   UNL     1       5.546   4.183  14.737  0.00  0.00    +0.000 A 
ATOM     14  C   UNL     1       6.797   4.765  14.577  0.00  0.00    +0.000 A 
ATOM     15  F   UNL     1       7.250   5.030  13.345  0.00  0.00    +0.000 F 
ATOM     16  C   UNL     1       7.589   5.067  15.672  0.00  0.00    +0.000 A 
ATOM     17  C   UNL     1       7.123   4.765  16.949  0.00  0.00    +0.000 A 
ENDBRANCH   7  11
BRANCH   1  18
ATOM     18  C   UNL     1       2.596   7.746  18.136  0.00  0.00    +0.000 C 
BRANCH  18  19
ATOM     19  C   UNL     1       2.420   9.241  18.446  0.00  0.00    +0.000 C 
BRANCH  19  23
ATOM     20  N   UNL     1      -0.792  10.696  17.474  0.00  0.00    +0.000 N 
ATOM     21  C   UNL     1       0.097  10.066  18.324  0.00  0.00    +0.000 C 
ATOM     22  O   UNL     1      -0.117   9.772  19.494  0.00  0.00    +0.000 OA
ATOM     23  N   UNL     1       1.312   9.846  17.717  0.00  0.00    +0.000 N 
ATOM     24  H   UNL     1      -0.348  11.299  16.799  0.00  0.00    +0.000 HD
ATOM     25  H   UNL     1       1.364   9.885  16.709  0.00  0.00    +0.000 HD
BRANCH  20  32
ATOM     26  C   UNL     1      -3.750  13.101  20.649  0.00  0.00    +0.000 C 
ATOM     27  C   UNL     1      -3.572  12.245  19.428  0.00  0.00    +0.000 A 
ATOM     28  C   UNL     1      -4.678  11.776  18.718  0.00  0.00    +0.000 A 
ATOM     29  C   UNL     1      -4.503  10.950  17.606  0.00  0.00    +0.000 A 
ATOM     30  C   UNL     1      -3.218  10.568  17.185  0.00  0.00    +0.000 A 
ATOM     31  C   UNL     1      -3.083   9.718  15.953  0.00  0.00    +0.000 C 
ATOM     32  C   UNL     1      -2.100  11.060  17.882  0.00  0.00    +0.000 A 
ATOM     33  C   UNL     1      -2.286  11.894  18.994  0.00  0.00    +0.000 A 
ENDBRANCH  20  32
ENDBRANCH  19  23
ENDBRANCH  18  19
ENDBRANCH   1  18
TORSDOF 5
ENDMDL
MODEL 5
REMARK VINA RESULT:      -8.9      3.093      9.801
REMARK  Name = 
REMARK  7 active torsions:
REMARK  status: ('A' for Active; 'I' for Inactive)
REMARK    1  A    between atoms: C_1  and  C_2
REMARK    2  A    between atoms: C_5  and  C_6
REMARK    3  A    between atoms: C_7  and  N_8
REMARK    4  A    between atoms: N_11  and  C_12
REMARK    5  A    between atoms: C_12  and  C_13
REMARK    6  A    between atoms: C_13  and  N_14
REMARK    7  A    between atoms: N_20  and  C_21
REMARK                            x       y       z     vdW  Elec       q    Type
REMARK                         _______ _______ _______ _____ _____    ______ ____
ROOT
ATOM      1  N   UNL     1      -0.874   9.831  17.497  0.00  0.00    +0.000 N 
ATOM      2  C   UNL     1      -2.123  10.310  17.084  0.00  0.00    +0.000 A 
ATOM      3  C   UNL     1      -2.579   9.996  15.823  0.00  0.00    +0.000 A 
ATOM      4  C   UNL     1      -3.769  10.573  15.440  0.00  0.00    +0.000 A 
ATOM      5  N   UNL     1      -4.479  11.409  16.221  0.00  0.00    +0.000 NA
ATOM      6  C   UNL     1      -3.979  11.644  17.437  0.00  0.00    +0.000 A 
ATOM      7  N   UNL     1      -4.697  12.504  18.267  0.00  0.00    +0.000 N 
ATOM      8  N   UNL     1      -2.828  11.120  17.885  0.00  0.00    +0.000 NA
ATOM      9  H   UNL     1      -0.779   8.836  17.328  0.00  0.00    +0.000 HD
ATOM     10  H   UNL     1      -5.479  12.918  17.786  0.00  0.00    +0.000 HD
ENDROOT
BRANCH   7  11
ATOM     11  C   UNL     1      -4.700  12.546  19.668  0.00  0.00    +0.000 A 
ATOM     12  C   UNL     1      -5.887  12.302  20.370  0.00  0.00    +0.000 A 
ATOM     13  C   UNL     1      -5.932  12.439  21.763  0.00  0.00    +0.000 A 
ATOM     14  C   UNL     1      -4.784  12.810  22.454  0.00  0.00    +0.000 A 
ATOM     15  F   UNL     1      -4.832  12.958  23.784  0.00  0.00    +0.000 F 
ATOM     16  C   UNL     1      -3.593  13.040  21.786  0.00  0.00    +0.000 A 
ATOM     17  C   UNL     1      -3.557  12.909  20.400  0.00  0.00    +0.000 A 
ENDBRANCH   7  11
BRANCH   1  18
ATOM     18  C   UNL     1      -0.407  10.232  18.832  0.00  0.00    +0.000 C 
BRANCH  18  19
ATOM     19  C   UNL     1       1.123  10.175  18.967  0.00  0.00    +0.000 C 
BRANCH  19  23
ATOM     20  N   UNL     1       2.731   6.891  18.869  0.00  0.00    +0.000 N 
ATOM     21  C   UNL     1       2.310   8.100  18.349  0.00  0.00    +0.000 C 
ATOM     22  O   UNL     1       2.547   8.518  17.222  0.00  0.00    +0.000 OA
ATOM     23  N   UNL     1       1.617   8.840  19.280  0.00  0.00    +0.000 N 
ATOM     24  H   UNL     1       2.915   6.919  19.859  0.00  0.00    +0.000 HD
ATOM     25  H   UNL     1       1.248   8.370  20.095  0.00  0.00    +0.000 HD
BRANCH  20  32
ATOM     26  C   UNL     1       6.975   5.748  16.567  0.00  0.00    +0.000 C 
ATOM     27  C   UNL     1       5.579   5.383  16.980  0.00  0.00    +0.000 A 
ATOM     28  C   UNL     1       5.015   4.165  16.595  0.00  0.00    +0.000 A 
ATOM     29  C   UNL     1       3.703   3.852  16.954  0.00  0.00    +0.000 A 
ATOM     30  C   UNL     1       2.922   4.752  17.698  0.00  0.00    +0.000 A 
ATOM     31  C   UNL     1       1.533   4.344  18.100  0.00  0.00    +0.000 C 
ATOM     32  C   UNL     1       3.495   5.968  18.111  0.00  0.00    +0.000 A 
ATOM     33  C   UNL     1       4.816   6.272  17.751  0.00  0.00    +0.000 A 
ENDBRANCH  20  32
ENDBRANCH  19  23
ENDBRANCH  18  19
ENDBRANCH   1  18
TORSDOF 5
ENDMDL
MODEL 6
REMARK VINA RESULT:      -8.8      2.239      2.932
REMARK  Name = 
REMARK  7 active torsions:
REMARK  status: ('A' for Active; 'I' for Inactive)
REMARK    1  A    between atoms: C_1  and  C_2
REMARK    2  A    between atoms: C_5  and  C_6
REMARK    3  A    between atoms: C_7  and  N_8
REMARK    4  A    between atoms: N_11  and  C_12
REMARK    5  A    between atoms: C_12  and  C_13
REMARK    6  A    between atoms: C_13  and  N_14
REMARK    7  A    between atoms: N_20  and  C_21
REMARK                            x       y       z     vdW  Elec       q    Type
REMARK                         _______ _______ _______ _____ _____    ______ ____
ROOT
ATOM      1  N   UNL     1       3.953   7.733  17.116  0.00  0.00    +0.000 N 
ATOM      2  C   UNL     1       4.424   6.439  16.867  0.00  0.00    +0.000 A 
ATOM      3  C   UNL     1       5.481   6.264  16.001  0.00  0.00    +0.000 A 
ATOM      4  C   UNL     1       5.836   4.963  15.723  0.00  0.00    +0.000 A 
ATOM      5  N   UNL     1       5.210   3.891  16.241  0.00  0.00    +0.000 NA
ATOM      6  C   UNL     1       4.209   4.146  17.089  0.00  0.00    +0.000 A 
ATOM      7  N   UNL     1       3.546   3.053  17.643  0.00  0.00    +0.000 N 
ATOM      8  N   UNL     1       3.804   5.384  17.413  0.00  0.00    +0.000 NA
ATOM      9  H   UNL     1       4.708   8.368  17.353  0.00  0.00    +0.000 HD
ATOM     10  H   UNL     1       3.865   2.184  17.245  0.00  0.00    +0.000 HD
ENDROOT
BRANCH   7  11
ATOM     11  C   UNL     1       2.848   2.993  18.857  0.00  0.00    +0.000 A 
ATOM     12  C   UNL     1       3.539   2.735  20.047  0.00  0.00    +0.000 A 
ATOM     13  C   UNL     1       2.845   2.572  21.253  0.00  0.00    +0.000 A 
ATOM     14  C   UNL     1       1.460   2.678  21.268  0.00  0.00    +0.000 A 
ATOM     15  F   UNL     1       0.796   2.504  22.418  0.00  0.00    +0.000 F 
ATOM     16  C   UNL     1       0.753   2.951  20.109  0.00  0.00    +0.000 A 
ATOM     17  C   UNL     1       1.448   3.104  18.911  0.00  0.00    +0.000 A 
ENDBRANCH   7  11
BRANCH   1  18
ATOM     18  C   UNL     1       2.793   7.868  18.009  0.00  0.00    +0.000 C 
BRANCH  18  19
ATOM     19  C   UNL     1       2.100   9.234  17.881  0.00  0.00    +0.000 C 
BRANCH  19  23
ATOM     20  N   UNL     1      -0.599  10.304  20.105  0.00  0.00    +0.000 N 
ATOM     21  C   UNL     1       0.643  10.388  19.505  0.00  0.00    +0.000 C 
ATOM     22  O   UNL     1       1.444  11.304  19.643  0.00  0.00    +0.000 OA
ATOM     23  N   UNL     1       0.873   9.325  18.662  0.00  0.00    +0.000 N 
ATOM     24  H   UNL     1      -1.290   9.834  19.541  0.00  0.00    +0.000 HD
ATOM     25  H   UNL     1       0.304   8.497  18.761  0.00  0.00    +0.000 HD
BRANCH  20  32
ATOM     26  C   UNL     1      -2.718  14.738  20.782  0.00  0.00    +0.000 C 
ATOM     27  C   UNL     1      -2.130  13.477  21.345  0.00  0.00    +0.000 A 
ATOM     28  C   UNL     1      -2.018  13.294  22.725  0.00  0.00    +0.000 A 
ATOM     29  C   UNL     1      -1.436  12.134  23.236  0.00  0.00    +0.000 A 
ATOM     30  C   UNL     1      -0.945  11.133  22.381  0.00  0.00    +0.000 A 
ATOM     31  C   UNL     1      -0.373   9.882  22.984  0.00  0.00    +0.000 C 
ATOM     32  C   UNL     1      -1.080  11.301  20.991  0.00  0.00    +0.000 A 
ATOM     33  C   UNL     1      -1.672  12.468  20.486  0.00  0.00    +0.000 A 
ENDBRANCH  20  32
ENDBRANCH  19  23
ENDBRANCH  18  19
ENDBRANCH   1  18
TORSDOF 5
ENDMDL
MODEL 7
REMARK VINA RESULT:      -8.8      5.818      8.866
REMARK  Name = 
REMARK  7 active torsions:
REMARK  status: ('A' for Active; 'I' for Inactive)
REMARK    1  A    between atoms: C_1  and  C_2
REMARK    2  A    between atoms: C_5  and  C_6
REMARK    3  A    between atoms: C_7  and  N_8
REMARK    4  A    between atoms: N_11  and  C_12
REMARK    5  A    between atoms: C_12  and  C_13
REMARK    6  A    between atoms: C_13  and  N_14
REMARK    7  A    between atoms: N_20  and  C_21
REMARK                            x       y       z     vdW  Elec       q    Type
REMARK                         _______ _______ _______ _____ _____    ______ ____
ROOT
ATOM      1  N   UNL     1       7.798   6.381  16.461  0.00  0.00    +0.000 N 
ATOM      2  C   UNL     1       6.917   5.434  15.926  0.00  0.00    +0.000 A 
ATOM      3  C   UNL     1       7.224   4.833  14.726  0.00  0.00    +0.000 A 
ATOM      4  C   UNL     1       6.275   3.982  14.205  0.00  0.00    +0.000 A 
ATOM      5  N   UNL     1       5.095   3.726  14.800  0.00  0.00    +0.000 NA
ATOM      6  C   UNL     1       4.884   4.331  15.973  0.00  0.00    +0.000 A 
ATOM      7  N   UNL     1       3.671   4.079  16.612  0.00  0.00    +0.000 N 
ATOM      8  N   UNL     1       5.758   5.172  16.546  0.00  0.00    +0.000 NA
ATOM      9  H   UNL     1       8.753   6.040  16.474  0.00  0.00    +0.000 HD
ATOM     10  H   UNL     1       3.057   3.525  16.038  0.00  0.00    +0.000 HD
ENDROOT
BRANCH   7  11
ATOM     11  C   UNL     1       3.387   4.155  17.982  0.00  0.00    +0.000 A 
ATOM     12  C   UNL     1       3.807   3.130  18.839  0.00  0.00    +0.000 A 
ATOM     13  C   UNL     1       3.445   3.139  20.192  0.00  0.00    +0.000 A 
ATOM     14  C   UNL     1       2.672   4.181  20.689  0.00  0.00    +0.000 A 
ATOM     15  F   UNL     1       2.313   4.180  21.979  0.00  0.00    +0.000 F 
ATOM     16  C   UNL     1       2.260   5.218  19.868  0.00  0.00    +0.000 A 
ATOM     17  C   UNL     1       2.616   5.198  18.522  0.00  0.00    +0.000 A 
ENDBRANCH   7  11
BRANCH   1  18
ATOM     18  C   UNL     1       7.406   7.031  17.720  0.00  0.00    +0.000 C 
BRANCH  18  19
ATOM     19  C   UNL     1       7.574   8.558  17.677  0.00  0.00    +0.000 C 
BRANCH  19  23
ATOM     20  N   UNL     1       9.823  10.634  19.680  0.00  0.00    +0.000 N 
ATOM     21  C   UNL     1       8.895  10.383  18.689  0.00  0.00    +0.000 C 
ATOM     22  O   UNL     1       8.362  11.225  17.976  0.00  0.00    +0.000 OA
ATOM     23  N   UNL     1       8.575   9.046  18.618  0.00  0.00    +0.000 N 
ATOM     24  H   UNL     1       9.767   9.996  20.459  0.00  0.00    +0.000 HD
ATOM     25  H   UNL     1       9.197   8.376  19.047  0.00  0.00    +0.000 HD
BRANCH  20  32
ATOM     26  C   UNL     1       9.483  14.766  22.405  0.00  0.00    +0.000 C 
ATOM     27  C   UNL     1      10.139  13.982  21.306  0.00  0.00    +0.000 A 
ATOM     28  C   UNL     1      11.168  14.540  20.546  0.00  0.00    +0.000 A 
ATOM     29  C   UNL     1      11.746  13.815  19.502  0.00  0.00    +0.000 A 
ATOM     30  C   UNL     1      11.303  12.519  19.189  0.00  0.00    +0.000 A 
ATOM     31  C   UNL     1      11.993  11.764  18.089  0.00  0.00    +0.000 C 
ATOM     32  C   UNL     1      10.285  11.942  19.970  0.00  0.00    +0.000 A 
ATOM     33  C   UNL     1       9.714  12.677  21.020  0.00  0.00    +0.000 A 
ENDBRANCH  20  32
ENDBRANCH  19  23
ENDBRANCH  18  19
ENDBRANCH   1  18
TORSDOF 5
ENDMDL
MODEL 8
REMARK VINA RESULT:      -8.8      3.592      5.416
REMARK  Name = 
REMARK  7 active torsions:
REMARK  status: ('A' for Active; 'I' for Inactive)
REMARK    1  A    between atoms: C_1  and  C_2
REMARK    2  A    between atoms: C_5  and  C_6
REMARK    3  A    between atoms: C_7  and  N_8
REMARK    4  A    between atoms: N_11  and  C_12
REMARK    5  A    between atoms: C_12  and  C_13
REMARK    6  A    between atoms: C_13  and  N_14
REMARK    7  A    between atoms: N_20  and  C_21
REMARK                            x       y       z     vdW  Elec       q    Type
REMARK                         _______ _______ _______ _____ _____    ______ ____
ROOT
ATOM      1  N   UNL     1       1.269   5.818  20.622  0.00  0.00    +0.000 N 
ATOM      2  C   UNL     1       1.983   4.698  20.180  0.00  0.00    +0.000 A 
ATOM      3  C   UNL     1       1.355   3.474  20.142  0.00  0.00    +0.000 A 
ATOM      4  C   UNL     1       2.134   2.395  19.789  0.00  0.00    +0.000 A 
ATOM      5  N   UNL     1       3.445   2.485  19.495  0.00  0.00    +0.000 NA
ATOM      6  C   UNL     1       3.973   3.712  19.533  0.00  0.00    +0.000 A 
ATOM      7  N   UNL     1       5.328   3.834  19.229  0.00  0.00    +0.000 N 
ATOM      8  N   UNL     1       3.281   4.812  19.866  0.00  0.00    +0.000 NA
ATOM      9  H   UNL     1       0.372   5.900  20.157  0.00  0.00    +0.000 HD
ATOM     10  H   UNL     1       5.763   2.934  19.104  0.00  0.00    +0.000 HD
ENDROOT
BRANCH   7  11
ATOM     11  C   UNL     1       6.000   4.956  18.726  0.00  0.00    +0.000 A 
ATOM     12  C   UNL     1       5.561   5.558  17.540  0.00  0.00    +0.000 A 
ATOM     13  C   UNL     1       6.281   6.617  16.970  0.00  0.00    +0.000 A 
ATOM     14  C   UNL     1       7.434   7.078  17.594  0.00  0.00    +0.000 A 
ATOM     15  F   UNL     1       8.130   8.078  17.040  0.00  0.00    +0.000 F 
ATOM     16  C   UNL     1       7.879   6.513  18.778  0.00  0.00    +0.000 A 
ATOM     17  C   UNL     1       7.164   5.456  19.335  0.00  0.00    +0.000 A 
ENDBRANCH   7  11
BRANCH   1  18
ATOM     18  C   UNL     1       1.995   7.095  20.691  0.00  0.00    +0.000 C 
BRANCH  18  19
ATOM     19  C   UNL     1       1.103   8.260  21.153  0.00  0.00    +0.000 C 
BRANCH  19  23
ATOM     20  N   UNL     1       0.589  11.242  19.099  0.00  0.00    +0.000 N 
ATOM     21  C   UNL     1       0.888  10.550  20.257  0.00  0.00    +0.000 C 
ATOM     22  O   UNL     1       1.254  11.048  21.315  0.00  0.00    +0.000 OA
ATOM     23  N   UNL     1       0.782   9.189  20.077  0.00  0.00    +0.000 N 
ATOM     24  H   UNL     1       0.812  10.736  18.256  0.00  0.00    +0.000 HD
ATOM     25  H   UNL     1       0.260   8.845  19.284  0.00  0.00    +0.000 HD
BRANCH  20  32
ATOM     26  C   UNL     1       3.256  15.331  18.216  0.00  0.00    +0.000 C 
ATOM     27  C   UNL     1       1.954  14.681  18.584  0.00  0.00    +0.000 A 
ATOM     28  C   UNL     1       0.831  15.451  18.888  0.00  0.00    +0.000 A 
ATOM     29  C   UNL     1      -0.364  14.836  19.265  0.00  0.00    +0.000 A 
ATOM     30  C   UNL     1      -0.461  13.437  19.355  0.00  0.00    +0.000 A 
ATOM     31  C   UNL     1      -1.783  12.824  19.717  0.00  0.00    +0.000 C 
ATOM     32  C   UNL     1       0.661  12.656  19.023  0.00  0.00    +0.000 A 
ATOM     33  C   UNL     1       1.856  13.283  18.640  0.00  0.00    +0.000 A 
ENDBRANCH  20  32
ENDBRANCH  19  23
ENDBRANCH  18  19
ENDBRANCH   1  18
TORSDOF 5
ENDMDL
MODEL 9
REMARK VINA RESULT:      -8.7      6.236      9.102
REMARK  Name = 
REMARK  7 active torsions:
REMARK  status: ('A' for Active; 'I' for Inactive)
REMARK    1  A    between atoms: C_1  and  C_2
REMARK    2  A    between atoms: C_5  and  C_6
REMARK    3  A    between atoms: C_7  and  N_8
REMARK    4  A    between atoms: N_11  and  C_12
REMARK    5  A    between atoms: C_12  and  C_13
REMARK    6  A    between atoms: C_13  and  N_14
REMARK    7  A    between atoms: N_20  and  C_21
REMARK                            x       y       z     vdW  Elec       q    Type
REMARK                         _______ _______ _______ _____ _____    ______ ____
ROOT
ATOM      1  N   UNL     1       7.630   6.769  16.728  0.00  0.00    +0.000 N 
ATOM      2  C   UNL     1       6.702   5.734  16.565  0.00  0.00    +0.000 A 
ATOM      3  C   UNL     1       7.068   4.609  15.859  0.00  0.00    +0.000 A 
ATOM      4  C   UNL     1       6.084   3.669  15.651  0.00  0.00    +0.000 A 
ATOM      5  N   UNL     1       4.818   3.802  16.090  0.00  0.00    +0.000 NA
ATOM      6  C   UNL     1       4.551   4.912  16.785  0.00  0.00    +0.000 A 
ATOM      7  N   UNL     1       3.248   5.073  17.254  0.00  0.00    +0.000 N 
ATOM      8  N   UNL     1       5.453   5.873  17.031  0.00  0.00    +0.000 NA
ATOM      9  H   UNL     1       8.523   6.423  17.061  0.00  0.00    +0.000 HD
ATOM     10  H   UNL     1       2.639   4.346  16.915  0.00  0.00    +0.000 HD
ENDROOT
BRANCH   7  11
ATOM     11  C   UNL     1       2.816   5.821  18.358  0.00  0.00    +0.000 A 
ATOM     12  C   UNL     1       2.494   5.172  19.556  0.00  0.00    +0.000 A 
ATOM     13  C   UNL     1       1.965   5.892  20.636  0.00  0.00    +0.000 A 
ATOM     14  C   UNL     1       1.769   7.262  20.518  0.00  0.00    +0.000 A 
ATOM     15  F   UNL     1       1.248   7.946  21.544  0.00  0.00    +0.000 F 
ATOM     16  C   UNL     1       2.097   7.932  19.350  0.00  0.00    +0.000 A 
ATOM     17  C   UNL     1       2.615   7.209  18.278  0.00  0.00    +0.000 A 
ENDBRANCH   7  11
BRANCH   1  18
ATOM     18  C   UNL     1       7.179   7.970  17.447  0.00  0.00    +0.000 C 
BRANCH  18  19
ATOM     19  C   UNL     1       8.312   8.652  18.232  0.00  0.00    +0.000 C 
BRANCH  19  23
ATOM     20  N   UNL     1       9.188  12.203  18.292  0.00  0.00    +0.000 N 
ATOM     21  C   UNL     1       9.232  10.890  18.721  0.00  0.00    +0.000 C 
ATOM     22  O   UNL     1       9.956  10.449  19.606  0.00  0.00    +0.000 OA
ATOM     23  N   UNL     1       8.388  10.086  17.988  0.00  0.00    +0.000 N 
ATOM     24  H   UNL     1       8.980  12.300  17.311  0.00  0.00    +0.000 HD
ATOM     25  H   UNL     1       7.655  10.521  17.446  0.00  0.00    +0.000 HD
BRANCH  20  32
ATOM     26  C   UNL     1      10.165  15.206  22.118  0.00  0.00    +0.000 C 
ATOM     27  C   UNL     1      10.498  14.695  20.746  0.00  0.00    +0.000 A 
ATOM     28  C   UNL     1      11.565  15.231  20.023  0.00  0.00    +0.000 A 
ATOM     29  C   UNL     1      11.842  14.773  18.734  0.00  0.00    +0.000 A 
ATOM     30  C   UNL     1      11.054  13.776  18.135  0.00  0.00    +0.000 A 
ATOM     31  C   UNL     1      11.426  13.285  16.765  0.00  0.00    +0.000 C 
ATOM     32  C   UNL     1       9.994  13.215  18.870  0.00  0.00    +0.000 A 
ATOM     33  C   UNL     1       9.727  13.677  20.167  0.00  0.00    +0.000 A 
ENDBRANCH  20  32
ENDBRANCH  19  23
ENDBRANCH  18  19
ENDBRANCH   1  18
TORSDOF 5
ENDMDL
