MODEL 1
REMARK VINA RESULT:      -8.3      0.000      0.000
REMARK  Name = 
REMARK  9 active torsions:
REMARK  status: ('A' for Active; 'I' for Inactive)
REMARK    1  A    between atoms: C_1  and  C_2
REMARK    2  A    between atoms: C_5  and  S_6
REMARK    3  A    between atoms: S_6  and  N_9
REMARK    4  A    between atoms: C_12  and  C_13
REMARK    5  A    between atoms: N_15  and  C_16
REMARK    6  A    between atoms: C_16  and  C_17
REMARK    7  A    between atoms: C_22  and  C_23
REMARK    8  A    between atoms: C_23  and  N_24
REMARK    9  A    between atoms: C_32  and  C_33
REMARK                            x       y       z     vdW  Elec       q    Type
REMARK                         _______ _______ _______ _____ _____    ______ ____
ROOT
ATOM      1  N   UNL     1      -0.387  10.958  20.645  0.00  0.00    +0.000 NA
ATOM      2  C   UNL     1      -0.978   9.623  20.399  0.00  0.00    +0.000 C 
ATOM      3  C   UNL     1      -0.564   8.615  21.467  0.00  0.00    +0.000 C 
ATOM      4  C   UNL     1       0.955   8.536  21.596  0.00  0.00    +0.000 C 
ATOM      5  C   UNL     1       1.460   9.924  21.999  0.00  0.00    +0.000 C 
ATOM      6  C   UNL     1       1.061  10.998  20.987  0.00  0.00    +0.000 C 
ENDROOT
BRANCH   4   7
ATOM      7  C   UNL     1       1.634   8.063  20.312  0.00  0.00    +0.000 C 
ATOM      8  O   UNL     1       1.781   8.798  19.339  0.00  0.00    +0.000 OA
ATOM      9  N   UNL     1       2.088   6.763  20.336  0.00  0.00    +0.000 N 
ATOM     10  H   UNL     1       2.306   6.357  21.236  0.00  0.00    +0.000 HD
BRANCH   9  11
ATOM     11  C   UNL     1       2.840   6.265  19.202  0.00  0.00    +0.000 C 
BRANCH  11  12
ATOM     12  C   UNL     1       2.654   4.803  18.868  0.00  0.00    +0.000 A 
ATOM     13  C   UNL     1       1.407   4.170  18.998  0.00  0.00    +0.000 A 
ATOM     14  C   UNL     1       1.230   2.852  18.578  0.00  0.00    +0.000 A 
ATOM     15  C   UNL     1       2.294   2.149  18.022  0.00  0.00    +0.000 A 
ATOM     16  C   UNL     1       3.560   2.733  17.948  0.00  0.00    +0.000 A 
ATOM     17  C   UNL     1       3.769   4.046  18.400  0.00  0.00    +0.000 A 
BRANCH  17  18
ATOM     18  C   UNL     1       5.192   4.615  18.417  0.00  0.00    +0.000 C 
BRANCH  18  19
ATOM     19  N   UNL     1       5.659   4.738  17.057  0.00  0.00    +0.000 NA
ATOM     20  C   UNL     1       5.183   5.834  16.240  0.00  0.00    +0.000 C 
ATOM     21  C   UNL     1       5.691   5.350  14.889  0.00  0.00    +0.000 C 
ATOM     22  C   UNL     1       6.978   4.576  15.210  0.00  0.00    +0.000 C 
ATOM     23  C   UNL     1       7.057   4.544  16.738  0.00  0.00    +0.000 C 
ENDBRANCH  18  19
ENDBRANCH  17  18
ENDBRANCH  11  12
ENDBRANCH   9  11
ENDBRANCH   4   7
BRANCH   1  24
ATOM     24  S   UNL     1      -0.884  12.191  19.545  0.00  0.00    +0.000 S 
ATOM     25  O   UNL     1      -0.631  11.699  18.204  0.00  0.00    +0.000 OA
ATOM     26  O   UNL     1      -0.325  13.452  19.988  0.00  0.00    +0.000 OA
BRANCH  24  31
ATOM     27  C   UNL     1      -6.924  12.395  20.401  0.00  0.00    +0.000 C 
ATOM     28  C   UNL     1      -5.441  12.354  20.143  0.00  0.00    +0.000 A 
ATOM     29  C   UNL     1      -4.563  12.766  21.155  0.00  0.00    +0.000 A 
ATOM     30  C   UNL     1      -3.179  12.735  20.964  0.00  0.00    +0.000 A 
ATOM     31  C   UNL     1      -2.657  12.297  19.739  0.00  0.00    +0.000 A 
ATOM     32  C   UNL     1      -3.517  11.859  18.731  0.00  0.00    +0.000 A 
ATOM     33  C   UNL     1      -4.908  11.881  18.926  0.00  0.00    +0.000 A 
ATOM     34  C   UNL     1      -5.823  11.393  17.823  0.00  0.00    +0.000 C 
ENDBRANCH  24  31
ENDBRANCH   1  24
TORSDOF 7
ENDMDL
MODEL 2
REMARK VINA RESULT:      -8.2      3.458     10.344
REMARK  Name = 
REMARK  9 active torsions:
REMARK  status: ('A' for Active; 'I' for Inactive)
REMARK    1  A    between atoms: C_1  and  C_2
REMARK    2  A    between atoms: C_5  and  S_6
REMARK    3  A    between atoms: S_6  and  N_9
REMARK    4  A    between atoms: C_12  and  C_13
REMARK    5  A    between atoms: N_15  and  C_16
REMARK    6  A    between atoms: C_16  and  C_17
REMARK    7  A    between atoms: C_22  and  C_23
REMARK    8  A    between atoms: C_23  and  N_24
REMARK    9  A    between atoms: C_32  and  C_33
REMARK                            x       y       z     vdW  Elec       q    Type
REMARK                         _______ _______ _______ _____ _____    ______ ____
ROOT
ATOM      1  N   UNL     1       5.078   4.911  18.221  0.00  0.00    +0.000 NA
ATOM      2  C   UNL     1       4.828   5.374  19.605  0.00  0.00    +0.000 C 
ATOM      3  C   UNL     1       3.448   4.952  20.103  0.00  0.00    +0.000 C 
ATOM      4  C   UNL     1       2.349   5.419  19.153  0.00  0.00    +0.000 C 
ATOM      5  C   UNL     1       2.607   4.770  17.790  0.00  0.00    +0.000 C 
ATOM      6  C   UNL     1       3.985   5.126  17.233  0.00  0.00    +0.000 C 
ENDROOT
BRANCH   4   7
ATOM      7  C   UNL     1       2.283   6.940  19.025  0.00  0.00    +0.000 C 
ATOM      8  O   UNL     1       2.707   7.534  18.038  0.00  0.00    +0.000 OA
ATOM      9  N   UNL     1       1.693   7.589  20.087  0.00  0.00    +0.000 N 
ATOM     10  H   UNL     1       1.029   7.071  20.646  0.00  0.00    +0.000 HD
BRANCH   9  11
ATOM     11  C   UNL     1       1.490   9.021  20.003  0.00  0.00    +0.000 C 
BRANCH  11  12
ATOM     12  C   UNL     1       0.544   9.622  21.018  0.00  0.00    +0.000 A 
ATOM     13  C   UNL     1       0.421   9.094  22.313  0.00  0.00    +0.000 A 
ATOM     14  C   UNL     1      -0.371   9.729  23.269  0.00  0.00    +0.000 A 
ATOM     15  C   UNL     1      -1.050  10.900  22.945  0.00  0.00    +0.000 A 
ATOM     16  C   UNL     1      -0.998  11.405  21.644  0.00  0.00    +0.000 A 
ATOM     17  C   UNL     1      -0.237  10.760  20.657  0.00  0.00    +0.000 A 
BRANCH  17  18
ATOM     18  C   UNL     1      -0.298  11.268  19.212  0.00  0.00    +0.000 C 
BRANCH  18  19
ATOM     19  N   UNL     1       0.463  12.492  19.118  0.00  0.00    +0.000 NA
ATOM     20  C   UNL     1       1.821  12.446  18.621  0.00  0.00    +0.000 C 
ATOM     21  C   UNL     1       2.253  13.854  19.005  0.00  0.00    +0.000 C 
ATOM     22  C   UNL     1       0.973  14.698  18.899  0.00  0.00    +0.000 C 
ATOM     23  C   UNL     1      -0.143  13.697  18.595  0.00  0.00    +0.000 C 
ENDBRANCH  18  19
ENDBRANCH  17  18
ENDBRANCH  11  12
ENDBRANCH   9  11
ENDBRANCH   4   7
BRANCH   1  24
ATOM     24  S   UNL     1       6.655   5.252  17.610  0.00  0.00    +0.000 S 
ATOM     25  O   UNL     1       7.577   4.346  18.269  0.00  0.00    +0.000 OA
ATOM     26  O   UNL     1       6.865   6.685  17.659  0.00  0.00    +0.000 OA
BRANCH  24  31
ATOM     27  C   UNL     1       6.544   3.420  11.789  0.00  0.00    +0.000 C 
ATOM     28  C   UNL     1       6.578   3.916  13.210  0.00  0.00    +0.000 A 
ATOM     29  C   UNL     1       5.809   3.258  14.180  0.00  0.00    +0.000 A 
ATOM     30  C   UNL     1       5.818   3.678  15.513  0.00  0.00    +0.000 A 
ATOM     31  C   UNL     1       6.597   4.781  15.888  0.00  0.00    +0.000 A 
ATOM     32  C   UNL     1       7.389   5.432  14.939  0.00  0.00    +0.000 A 
ATOM     33  C   UNL     1       7.387   5.004  13.602  0.00  0.00    +0.000 A 
ATOM     34  C   UNL     1       8.259   5.717  12.590  0.00  0.00    +0.000 C 
ENDBRANCH  24  31
ENDBRANCH   1  24
TORSDOF 7
ENDMDL
MODEL 3
REMARK VINA RESULT:      -8.1      3.291      4.353
REMARK  Name = 
REMARK  9 active torsions:
REMARK  status: ('A' for Active; 'I' for Inactive)
REMARK    1  A    between atoms: C_1  and  C_2
REMARK    2  A    between atoms: C_5  and  S_6
REMARK    3  A    between atoms: S_6  and  N_9
REMARK    4  A    between atoms: C_12  and  C_13
REMARK    5  A    between atoms: N_15  and  C_16
REMARK    6  A    between atoms: C_16  and  C_17
REMARK    7  A    between atoms: C_22  and  C_23
REMARK    8  A    between atoms: C_23  and  N_24
REMARK    9  A    between atoms: C_32  and  C_33
REMARK                            x       y       z     vdW  Elec       q    Type
REMARK                         _______ _______ _______ _____ _____    ______ ____
ROOT
ATOM      1  N   UNL     1       0.355  12.732  20.757  0.00  0.00    +0.000 NA
ATOM      2  C   UNL     1       0.768  12.064  19.501  0.00  0.00    +0.000 C 
ATOM      3  C   UNL     1      -0.248  11.017  19.056  0.00  0.00    +0.000 C 
ATOM      4  C   UNL     1      -0.520  10.002  20.162  0.00  0.00    +0.000 C 
ATOM      5  C   UNL     1      -1.085  10.765  21.363  0.00  0.00    +0.000 C 
ATOM      6  C   UNL     1      -0.131  11.853  21.855  0.00  0.00    +0.000 C 
ENDROOT
BRANCH   4   7
ATOM      7  C   UNL     1       0.725   9.211  20.559  0.00  0.00    +0.000 C 
ATOM      8  O   UNL     1       1.116   9.142  21.720  0.00  0.00    +0.000 OA
ATOM      9  N   UNL     1       1.361   8.564  19.522  0.00  0.00    +0.000 N 
ATOM     10  H   UNL     1       0.809   8.320  18.710  0.00  0.00    +0.000 HD
BRANCH   9  11
ATOM     11  C   UNL     1       2.487   7.703  19.822  0.00  0.00    +0.000 C 
BRANCH  11  12
ATOM     12  C   UNL     1       2.288   6.228  19.555  0.00  0.00    +0.000 A 
ATOM     13  C   UNL     1       1.574   5.407  20.442  0.00  0.00    +0.000 A 
ATOM     14  C   UNL     1       1.306   4.077  20.124  0.00  0.00    +0.000 A 
ATOM     15  C   UNL     1       1.746   3.548  18.914  0.00  0.00    +0.000 A 
ATOM     16  C   UNL     1       2.519   4.323  18.048  0.00  0.00    +0.000 A 
ATOM     17  C   UNL     1       2.832   5.654  18.367  0.00  0.00    +0.000 A 
BRANCH  17  18
ATOM     18  C   UNL     1       3.780   6.441  17.455  0.00  0.00    +0.000 C 
BRANCH  18  19
ATOM     19  N   UNL     1       4.961   5.644  17.216  0.00  0.00    +0.000 NA
ATOM     20  C   UNL     1       5.461   5.505  15.865  0.00  0.00    +0.000 C 
ATOM     21  C   UNL     1       6.458   4.380  16.105  0.00  0.00    +0.000 C 
ATOM     22  C   UNL     1       6.954   4.598  17.542  0.00  0.00    +0.000 C 
ATOM     23  C   UNL     1       6.111   5.752  18.088  0.00  0.00    +0.000 C 
ENDBRANCH  18  19
ENDBRANCH  17  18
ENDBRANCH  11  12
ENDBRANCH   9  11
ENDBRANCH   4   7
BRANCH   1  24
ATOM     24  S   UNL     1       1.393  14.006  21.282  0.00  0.00    +0.000 S 
ATOM     25  O   UNL     1       2.756  13.522  21.178  0.00  0.00    +0.000 OA
ATOM     26  O   UNL     1       0.885  14.522  22.538  0.00  0.00    +0.000 OA
BRANCH  24  31
ATOM     27  C   UNL     1       0.541  18.280  17.008  0.00  0.00    +0.000 C 
ATOM     28  C   UNL     1       0.797  17.238  18.064  0.00  0.00    +0.000 A 
ATOM     29  C   UNL     1      -0.224  16.923  18.972  0.00  0.00    +0.000 A 
ATOM     30  C   UNL     1      -0.034  15.955  19.962  0.00  0.00    +0.000 A 
ATOM     31  C   UNL     1       1.199  15.295  20.060  0.00  0.00    +0.000 A 
ATOM     32  C   UNL     1       2.217  15.578  19.147  0.00  0.00    +0.000 A 
ATOM     33  C   UNL     1       2.023  16.544  18.146  0.00  0.00    +0.000 A 
ATOM     34  C   UNL     1       3.136  16.829  17.160  0.00  0.00    +0.000 C 
ENDBRANCH  24  31
ENDBRANCH   1  24
TORSDOF 7
ENDMDL
MODEL 4
REMARK VINA RESULT:      -8.1      5.493      9.194
REMARK  Name = 
REMARK  9 active torsions:
REMARK  status: ('A' for Active; 'I' for Inactive)
REMARK    1  A    between atoms: C_1  and  C_2
REMARK    2  A    between atoms: C_5  and  S_6
REMARK    3  A    between atoms: S_6  and  N_9
REMARK    4  A    between atoms: C_12  and  C_13
REMARK    5  A    between atoms: N_15  and  C_16
REMARK    6  A    between atoms: C_16  and  C_17
REMARK    7  A    between atoms: C_22  and  C_23
REMARK    8  A    between atoms: C_23  and  N_24
REMARK    9  A    between atoms: C_32  and  C_33
REMARK                            x       y       z     vdW  Elec       q    Type
REMARK                         _______ _______ _______ _____ _____    ______ ____
ROOT
ATOM      1  N   UNL     1       5.250   4.597  18.212  0.00  0.00    +0.000 NA
ATOM      2  C   UNL     1       5.943   4.836  16.925  0.00  0.00    +0.000 C 
ATOM      3  C   UNL     1       7.458   4.893  17.101  0.00  0.00    +0.000 C 
ATOM      4  C   UNL     1       7.856   5.929  18.148  0.00  0.00    +0.000 C 
ATOM      5  C   UNL     1       7.217   5.516  19.476  0.00  0.00    +0.000 C 
ATOM      6  C   UNL     1       5.695   5.413  19.375  0.00  0.00    +0.000 C 
ENDROOT
BRANCH   4   7
ATOM      7  C   UNL     1       7.442   7.349  17.764  0.00  0.00    +0.000 C 
ATOM      8  O   UNL     1       6.384   7.590  17.191  0.00  0.00    +0.000 OA
ATOM      9  N   UNL     1       8.332   8.335  18.129  0.00  0.00    +0.000 N 
ATOM     10  H   UNL     1       8.944   8.151  18.912  0.00  0.00    +0.000 HD
BRANCH   9  11
ATOM     11  C   UNL     1       7.970   9.719  17.902  0.00  0.00    +0.000 C 
BRANCH  11  12
ATOM     12  C   UNL     1       8.874  10.757  18.529  0.00  0.00    +0.000 A 
ATOM     13  C   UNL     1       9.833  10.412  19.495  0.00  0.00    +0.000 A 
ATOM     14  C   UNL     1      10.731  11.363  19.978  0.00  0.00    +0.000 A 
ATOM     15  C   UNL     1      10.685  12.670  19.503  0.00  0.00    +0.000 A 
ATOM     16  C   UNL     1       9.695  13.053  18.596  0.00  0.00    +0.000 A 
ATOM     17  C   UNL     1       8.758  12.120  18.125  0.00  0.00    +0.000 A 
BRANCH  17  18
ATOM     18  C   UNL     1       7.612  12.597  17.226  0.00  0.00    +0.000 C 
BRANCH  18  19
ATOM     19  N   UNL     1       7.088  13.833  17.757  0.00  0.00    +0.000 NA
ATOM     20  C   UNL     1       7.694  15.087  17.366  0.00  0.00    +0.000 C 
ATOM     21  C   UNL     1       7.025  15.994  18.389  0.00  0.00    +0.000 C 
ATOM     22  C   UNL     1       5.646  15.361  18.630  0.00  0.00    +0.000 C 
ATOM     23  C   UNL     1       5.660  14.055  17.835  0.00  0.00    +0.000 C 
ENDBRANCH  18  19
ENDBRANCH  17  18
ENDBRANCH  11  12
ENDBRANCH   9  11
ENDBRANCH   4   7
BRANCH   1  24
ATOM     24  S   UNL     1       3.538   4.413  18.096  0.00  0.00    +0.000 S 
ATOM     25  O   UNL     1       3.164   3.310  18.960  0.00  0.00    +0.000 OA
ATOM     26  O   UNL     1       3.172   4.412  16.694  0.00  0.00    +0.000 OA
BRANCH  24  31
ATOM     27  C   UNL     1       1.009   9.375  20.595  0.00  0.00    +0.000 C 
ATOM     28  C   UNL     1       1.663   8.179  19.954  0.00  0.00    +0.000 A 
ATOM     29  C   UNL     1       1.736   6.977  20.672  0.00  0.00    +0.000 A 
ATOM     30  C   UNL     1       2.325   5.839  20.113  0.00  0.00    +0.000 A 
ATOM     31  C   UNL     1       2.862   5.900  18.820  0.00  0.00    +0.000 A 
ATOM     32  C   UNL     1       2.774   7.082  18.082  0.00  0.00    +0.000 A 
ATOM     33  C   UNL     1       2.174   8.223  18.640  0.00  0.00    +0.000 A 
ATOM     34  C   UNL     1       2.081   9.492  17.820  0.00  0.00    +0.000 C 
ENDBRANCH  24  31
ENDBRANCH   1  24
TORSDOF 7
ENDMDL
MODEL 5
REMARK VINA RESULT:      -8.1      2.148      3.920
REMARK  Name = 
REMARK  9 active torsions:
REMARK  status: ('A' for Active; 'I' for Inactive)
REMARK    1  A    between atoms: C_1  and  C_2
REMARK    2  A    between atoms: C_5  and  S_6
REMARK    3  A    between atoms: S_6  and  N_9
REMARK    4  A    between atoms: C_12  and  C_13
REMARK    5  A    between atoms: N_15  and  C_16
REMARK    6  A    between atoms: C_16  and  C_17
REMARK    7  A    between atoms: C_22  and  C_23
REMARK    8  A    between atoms: C_23  and  N_24
REMARK    9  A    between atoms: C_32  and  C_33
REMARK                            x       y       z     vdW  Elec       q    Type
REMARK                         _______ _______ _______ _____ _____    ______ ____
ROOT
ATOM      1  N   UNL     1       0.048  11.608  20.225  0.00  0.00    +0.000 NA
ATOM      2  C   UNL     1       1.464  11.610  19.790  0.00  0.00    +0.000 C 
ATOM      3  C   UNL     1       1.599  11.313  18.299  0.00  0.00    +0.000 C 
ATOM      4  C   UNL     1       0.905  10.005  17.929  0.00  0.00    +0.000 C 
ATOM      5  C   UNL     1      -0.579  10.152  18.275  0.00  0.00    +0.000 C 
ATOM      6  C   UNL     1      -0.797  10.477  19.753  0.00  0.00    +0.000 C 
ENDROOT
BRANCH   4   7
ATOM      7  C   UNL     1       1.509   8.793  18.637  0.00  0.00    +0.000 C 
ATOM      8  O   UNL     1       1.524   8.689  19.860  0.00  0.00    +0.000 OA
ATOM      9  N   UNL     1       2.012   7.820  17.802  0.00  0.00    +0.000 N 
ATOM     10  H   UNL     1       1.629   7.757  16.868  0.00  0.00    +0.000 HD
BRANCH   9  11
ATOM     11  C   UNL     1       2.506   6.588  18.383  0.00  0.00    +0.000 C 
BRANCH  11  12
ATOM     12  C   UNL     1       3.985   6.322  18.226  0.00  0.00    +0.000 A 
ATOM     13  C   UNL     1       4.747   6.958  17.232  0.00  0.00    +0.000 A 
ATOM     14  C   UNL     1       6.129   6.785  17.175  0.00  0.00    +0.000 A 
ATOM     15  C   UNL     1       6.770   5.977  18.109  0.00  0.00    +0.000 A 
ATOM     16  C   UNL     1       6.026   5.279  19.061  0.00  0.00    +0.000 A 
ATOM     17  C   UNL     1       4.629   5.409  19.113  0.00  0.00    +0.000 A 
BRANCH  17  18
ATOM     18  C   UNL     1       3.830   4.539  20.090  0.00  0.00    +0.000 C 
BRANCH  18  19
ATOM     19  N   UNL     1       2.973   3.658  19.332  0.00  0.00    +0.000 NA
ATOM     20  C   UNL     1       3.560   2.575  18.573  0.00  0.00    +0.000 C 
ATOM     21  C   UNL     1       2.339   2.180  17.756  0.00  0.00    +0.000 C 
ATOM     22  C   UNL     1       1.143   2.480  18.671  0.00  0.00    +0.000 C 
ATOM     23  C   UNL     1       1.741   3.159  19.904  0.00  0.00    +0.000 C 
ENDBRANCH  18  19
ENDBRANCH  17  18
ENDBRANCH  11  12
ENDBRANCH   9  11
ENDBRANCH   4   7
BRANCH   1  24
ATOM     24  S   UNL     1      -0.209  12.038  21.876  0.00  0.00    +0.000 S 
ATOM     25  O   UNL     1       0.452  13.309  22.098  0.00  0.00    +0.000 OA
ATOM     26  O   UNL     1       0.102  10.888  22.702  0.00  0.00    +0.000 OA
BRANCH  24  31
ATOM     27  C   UNL     1      -6.174  13.270  22.269  0.00  0.00    +0.000 C 
ATOM     28  C   UNL     1      -4.708  12.932  22.205  0.00  0.00    +0.000 A 
ATOM     29  C   UNL     1      -4.026  13.087  20.990  0.00  0.00    +0.000 A 
ATOM     30  C   UNL     1      -2.663  12.796  20.887  0.00  0.00    +0.000 A 
ATOM     31  C   UNL     1      -1.967  12.329  22.010  0.00  0.00    +0.000 A 
ATOM     32  C   UNL     1      -2.625  12.194  23.234  0.00  0.00    +0.000 A 
ATOM     33  C   UNL     1      -3.993  12.497  23.340  0.00  0.00    +0.000 A 
ATOM     34  C   UNL     1      -4.686  12.352  24.678  0.00  0.00    +0.000 C 
ENDBRANCH  24  31
ENDBRANCH   1  24
TORSDOF 7
ENDMDL
MODEL 6
REMARK VINA RESULT:      -8.1      2.702     10.205
REMARK  Name = 
REMARK  9 active torsions:
REMARK  status: ('A' for Active; 'I' for Inactive)
REMARK    1  A    between atoms: C_1  and  C_2
REMARK    2  A    between atoms: C_5  and  S_6
REMARK    3  A    between atoms: S_6  and  N_9
REMARK    4  A    between atoms: C_12  and  C_13
REMARK    5  A    between atoms: N_15  and  C_16
REMARK    6  A    between atoms: C_16  and  C_17
REMARK    7  A    between atoms: C_22  and  C_23
REMARK    8  A    between atoms: C_23  and  N_24
REMARK    9  A    between atoms: C_32  and  C_33
REMARK                            x       y       z     vdW  Elec       q    Type
REMARK                         _______ _______ _______ _____ _____    ______ ____
ROOT
ATOM      1  N   UNL     1       0.710  10.198  20.496  0.00  0.00    +0.000 NA
ATOM      2  C   UNL     1       0.184   9.957  19.133  0.00  0.00    +0.000 C 
ATOM      3  C   UNL     1       0.271  11.207  18.263  0.00  0.00    +0.000 C 
ATOM      4  C   UNL     1      -0.423  12.394  18.926  0.00  0.00    +0.000 C 
ATOM      5  C   UNL     1       0.286  12.663  20.256  0.00  0.00    +0.000 C 
ATOM      6  C   UNL     1       0.263  11.443  21.178  0.00  0.00    +0.000 C 
ENDROOT
BRANCH   4   7
ATOM      7  C   UNL     1      -1.916  12.160  19.145  0.00  0.00    +0.000 C 
ATOM      8  O   UNL     1      -2.505  11.193  18.670  0.00  0.00    +0.000 OA
ATOM      9  N   UNL     1      -2.545  13.101  19.931  0.00  0.00    +0.000 N 
ATOM     10  H   UNL     1      -1.981  13.611  20.597  0.00  0.00    +0.000 HD
BRANCH   9  11
ATOM     11  C   UNL     1      -3.937  12.901  20.280  0.00  0.00    +0.000 C 
BRANCH  11  12
ATOM     12  C   UNL     1      -4.237  12.728  21.751  0.00  0.00    +0.000 A 
ATOM     13  C   UNL     1      -3.223  12.466  22.685  0.00  0.00    +0.000 A 
ATOM     14  C   UNL     1      -3.504  12.422  24.050  0.00  0.00    +0.000 A 
ATOM     15  C   UNL     1      -4.803  12.641  24.501  0.00  0.00    +0.000 A 
ATOM     16  C   UNL     1      -5.840  12.834  23.587  0.00  0.00    +0.000 A 
ATOM     17  C   UNL     1      -5.584  12.844  22.207  0.00  0.00    +0.000 A 
BRANCH  17  18
ATOM     18  C   UNL     1      -6.759  12.936  21.227  0.00  0.00    +0.000 C 
BRANCH  18  19
ATOM     19  N   UNL     1      -6.977  11.636  20.639  0.00  0.00    +0.000 NA
ATOM     20  C   UNL     1      -7.915  10.725  21.258  0.00  0.00    +0.000 C 
ATOM     21  C   UNL     1      -7.552   9.464  20.486  0.00  0.00    +0.000 C 
ATOM     22  C   UNL     1      -7.117   9.965  19.101  0.00  0.00    +0.000 C 
ATOM     23  C   UNL     1      -7.123  11.491  19.206  0.00  0.00    +0.000 C 
ENDBRANCH  18  19
ENDBRANCH  17  18
ENDBRANCH  11  12
ENDBRANCH   9  11
ENDBRANCH   4   7
BRANCH   1  24
ATOM     24  S   UNL     1       0.748   8.810  21.521  0.00  0.00    +0.000 S 
ATOM     25  O   UNL     1      -0.626   8.411  21.757  0.00  0.00    +0.000 OA
ATOM     26  O   UNL     1       1.639   9.085  22.630  0.00  0.00    +0.000 OA
BRANCH  24  31
ATOM     27  C   UNL     1       3.478   4.367  18.349  0.00  0.00    +0.000 C 
ATOM     28  C   UNL     1       2.797   5.486  19.090  0.00  0.00    +0.000 A 
ATOM     29  C   UNL     1       2.069   5.190  20.251  0.00  0.00    +0.000 A 
ATOM     30  C   UNL     1       1.430   6.199  20.977  0.00  0.00    +0.000 A 
ATOM     31  C   UNL     1       1.505   7.527  20.535  0.00  0.00    +0.000 A 
ATOM     32  C   UNL     1       2.249   7.842  19.395  0.00  0.00    +0.000 A 
ATOM     33  C   UNL     1       2.899   6.830  18.671  0.00  0.00    +0.000 A 
ATOM     34  C   UNL     1       3.707   7.193  17.444  0.00  0.00    +0.000 C 
ENDBRANCH  24  31
ENDBRANCH   1  24
TORSDOF 7
ENDMDL
MODEL 7
REMARK VINA RESULT:      -8.1      3.338      9.681
REMARK  Name = 
REMARK  9 active torsions:
REMARK  status: ('A' for Active; 'I' for Inactive)
REMARK    1  A    between atoms: C_1  and  C_2
REMARK    2  A    between atoms: C_5  and  S_6
REMARK    3  A    between atoms: S_6  and  N_9
REMARK    4  A    between atoms: C_12  and  C_13
REMARK    5  A    between atoms: N_15  and  C_16
REMARK    6  A    between atoms: C_16  and  C_17
REMARK    7  A    between atoms: C_22  and  C_23
REMARK    8  A    between atoms: C_23  and  N_24
REMARK    9  A    between atoms: C_32  and  C_33
REMARK                            x       y       z     vdW  Elec       q    Type
REMARK                         _______ _______ _______ _____ _____    ______ ____
ROOT
ATOM      1  N   UNL     1       2.681   3.195  18.829  0.00  0.00    +0.000 NA
ATOM      2  C   UNL     1       3.407   3.565  20.066  0.00  0.00    +0.000 C 
ATOM      3  C   UNL     1       2.469   3.658  21.266  0.00  0.00    +0.000 C 
ATOM      4  C   UNL     1       1.311   4.614  20.993  0.00  0.00    +0.000 C 
ATOM      5  C   UNL     1       0.532   4.068  19.794  0.00  0.00    +0.000 C 
ATOM      6  C   UNL     1       1.412   3.922  18.553  0.00  0.00    +0.000 C 
ENDROOT
BRANCH   4   7
ATOM      7  C   UNL     1       1.774   6.046  20.733  0.00  0.00    +0.000 C 
ATOM      8  O   UNL     1       2.869   6.302  20.241  0.00  0.00    +0.000 OA
ATOM      9  N   UNL     1       0.864   7.024  21.069  0.00  0.00    +0.000 N 
ATOM     10  H   UNL     1      -0.115   6.772  21.077  0.00  0.00    +0.000 HD
BRANCH   9  11
ATOM     11  C   UNL     1       1.175   8.404  20.756  0.00  0.00    +0.000 C 
BRANCH  11  12
ATOM     12  C   UNL     1       0.296   9.449  21.404  0.00  0.00    +0.000 A 
ATOM     13  C   UNL     1      -0.155   9.316  22.727  0.00  0.00    +0.000 A 
ATOM     14  C   UNL     1      -0.870  10.343  23.342  0.00  0.00    +0.000 A 
ATOM     15  C   UNL     1      -1.144  11.516  22.646  0.00  0.00    +0.000 A 
ATOM     16  C   UNL     1      -0.768  11.643  21.308  0.00  0.00    +0.000 A 
ATOM     17  C   UNL     1      -0.080  10.605  20.658  0.00  0.00    +0.000 A 
BRANCH  17  18
ATOM     18  C   UNL     1       0.212  10.724  19.158  0.00  0.00    +0.000 C 
BRANCH  18  19
ATOM     19  N   UNL     1      -1.039  10.689  18.437  0.00  0.00    +0.000 NA
ATOM     20  C   UNL     1      -1.624  11.928  17.970  0.00  0.00    +0.000 C 
ATOM     21  C   UNL     1      -2.999  11.401  17.587  0.00  0.00    +0.000 C 
ATOM     22  C   UNL     1      -2.752   9.955  17.132  0.00  0.00    +0.000 C 
ATOM     23  C   UNL     1      -1.271   9.694  17.412  0.00  0.00    +0.000 C 
ENDBRANCH  18  19
ENDBRANCH  17  18
ENDBRANCH  11  12
ENDBRANCH   9  11
ENDBRANCH   4   7
BRANCH   1  24
ATOM     24  S   UNL     1       3.677   2.963  17.439  0.00  0.00    +0.000 S 
ATOM     25  O   UNL     1       2.826   3.095  16.273  0.00  0.00    +0.000 OA
ATOM     26  O   UNL     1       4.475   1.770  17.642  0.00  0.00    +0.000 OA
BRANCH  24  31
ATOM     27  C   UNL     1       7.581   7.649  17.197  0.00  0.00    +0.000 C 
ATOM     28  C   UNL     1       6.621   6.494  17.305  0.00  0.00    +0.000 A 
ATOM     29  C   UNL     1       5.612   6.356  16.341  0.00  0.00    +0.000 A 
ATOM     30  C   UNL     1       4.706   5.293  16.395  0.00  0.00    +0.000 A 
ATOM     31  C   UNL     1       4.795   4.356  17.434  0.00  0.00    +0.000 A 
ATOM     32  C   UNL     1       5.810   4.466  18.387  0.00  0.00    +0.000 A 
ATOM     33  C   UNL     1       6.727   5.528  18.327  0.00  0.00    +0.000 A 
ATOM     34  C   UNL     1       7.826   5.623  19.364  0.00  0.00    +0.000 C 
ENDBRANCH  24  31
ENDBRANCH   1  24
TORSDOF 7
ENDMDL
MODEL 8
REMARK VINA RESULT:      -8.1      5.479      9.220
REMARK  Name = 
REMARK  9 active torsions:
REMARK  status: ('A' for Active; 'I' for Inactive)
REMARK    1  A    between atoms: C_1  and  C_2
REMARK    2  A    between atoms: C_5  and  S_6
REMARK    3  A    between atoms: S_6  and  N_9
REMARK    4  A    between atoms: C_12  and  C_13
REMARK    5  A    between atoms: N_15  and  C_16
REMARK    6  A    between atoms: C_16  and  C_17
REMARK    7  A    between atoms: C_22  and  C_23
REMARK    8  A    between atoms: C_23  and  N_24
REMARK    9  A    between atoms: C_32  and  C_33
REMARK                            x       y       z     vdW  Elec       q    Type
REMARK                         _______ _______ _______ _____ _____    ______ ____
ROOT
ATOM      1  N   UNL     1       5.181   4.692  18.264  0.00  0.00    +0.000 NA
ATOM      2  C   UNL     1       5.702   4.962  16.904  0.00  0.00    +0.000 C 
ATOM      3  C   UNL     1       7.227   4.987  16.877  0.00  0.00    +0.000 C 
ATOM      4  C   UNL     1       7.784   5.979  17.893  0.00  0.00    +0.000 C 
ATOM      5  C   UNL     1       7.318   5.533  19.282  0.00  0.00    +0.000 C 
ATOM      6  C   UNL     1       5.795   5.459  19.382  0.00  0.00    +0.000 C 
ENDROOT
BRANCH   4   7
ATOM      7  C   UNL     1       7.354   7.418  17.613  0.00  0.00    +0.000 C 
ATOM      8  O   UNL     1       6.296   7.688  17.053  0.00  0.00    +0.000 OA
ATOM      9  N   UNL     1       8.229   8.386  18.056  0.00  0.00    +0.000 N 
ATOM     10  H   UNL     1       8.839   8.151  18.828  0.00  0.00    +0.000 HD
BRANCH   9  11
ATOM     11  C   UNL     1       7.851   9.779  17.930  0.00  0.00    +0.000 C 
BRANCH  11  12
ATOM     12  C   UNL     1       8.845  10.790  18.454  0.00  0.00    +0.000 A 
ATOM     13  C   UNL     1       9.850  10.431  19.366  0.00  0.00    +0.000 A 
ATOM     14  C   UNL     1      10.825  11.351  19.750  0.00  0.00    +0.000 A 
ATOM     15  C   UNL     1      10.809  12.642  19.229  0.00  0.00    +0.000 A 
ATOM     16  C   UNL     1       9.779  13.042  18.376  0.00  0.00    +0.000 A 
ATOM     17  C   UNL     1       8.767  12.142  18.006  0.00  0.00    +0.000 A 
BRANCH  17  18
ATOM     18  C   UNL     1       7.587  12.645  17.168  0.00  0.00    +0.000 C 
BRANCH  18  19
ATOM     19  N   UNL     1       7.100  13.876  17.743  0.00  0.00    +0.000 NA
ATOM     20  C   UNL     1       7.752  15.123  17.406  0.00  0.00    +0.000 C 
ATOM     21  C   UNL     1       7.104  16.012  18.458  0.00  0.00    +0.000 C 
ATOM     22  C   UNL     1       5.702  15.418  18.662  0.00  0.00    +0.000 C 
ATOM     23  C   UNL     1       5.679  14.144  17.817  0.00  0.00    +0.000 C 
ENDBRANCH  18  19
ENDBRANCH  17  18
ENDBRANCH  11  12
ENDBRANCH   9  11
ENDBRANCH   4   7
BRANCH   1  24
ATOM     24  S   UNL     1       3.465   4.542  18.372  0.00  0.00    +0.000 S 
ATOM     25  O   UNL     1       3.170   3.861  19.618  0.00  0.00    +0.000 OA
ATOM     26  O   UNL     1       2.971   4.025  17.111  0.00  0.00    +0.000 OA
BRANCH  24  31
ATOM     27  C   UNL     1       1.641  10.344  18.891  0.00  0.00    +0.000 C 
ATOM     28  C   UNL     1       2.055   8.900  18.791  0.00  0.00    +0.000 A 
ATOM     29  C   UNL     1       2.671   8.448  17.615  0.00  0.00    +0.000 A 
ATOM     30  C   UNL     1       3.081   7.118  17.482  0.00  0.00    +0.000 A 
ATOM     31  C   UNL     1       2.863   6.216  18.533  0.00  0.00    +0.000 A 
ATOM     32  C   UNL     1       2.274   6.657  19.720  0.00  0.00    +0.000 A 
ATOM     33  C   UNL     1       1.872   7.995  19.858  0.00  0.00    +0.000 A 
ATOM     34  C   UNL     1       1.244   8.454  21.156  0.00  0.00    +0.000 C 
ENDBRANCH  24  31
ENDBRANCH   1  24
TORSDOF 7
ENDMDL
MODEL 9
REMARK VINA RESULT:      -8.0      1.854      2.742
REMARK  Name = 
REMARK  9 active torsions:
REMARK  status: ('A' for Active; 'I' for Inactive)
REMARK    1  A    between atoms: C_1  and  C_2
REMARK    2  A    between atoms: C_5  and  S_6
REMARK    3  A    between atoms: S_6  and  N_9
REMARK    4  A    between atoms: C_12  and  C_13
REMARK    5  A    between atoms: N_15  and  C_16
REMARK    6  A    between atoms: C_16  and  C_17
REMARK    7  A    between atoms: C_22  and  C_23
REMARK    8  A    between atoms: C_23  and  N_24
REMARK    9  A    between atoms: C_32  and  C_33
REMARK                            x       y       z     vdW  Elec       q    Type
REMARK                         _______ _______ _______ _____ _____    ______ ____
ROOT
ATOM      1  N   UNL     1       0.172  11.204  20.026  0.00  0.00    +0.000 NA
ATOM      2  C   UNL     1       1.486  11.452  19.391  0.00  0.00    +0.000 C 
ATOM      3  C   UNL     1       1.498  11.023  17.927  0.00  0.00    +0.000 C 
ATOM      4  C   UNL     1       1.072   9.566  17.772  0.00  0.00    +0.000 C 
ATOM      5  C   UNL     1      -0.354   9.439  18.317  0.00  0.00    +0.000 C 
ATOM      6  C   UNL     1      -0.453   9.875  19.779  0.00  0.00    +0.000 C 
ENDROOT
BRANCH   4   7
ATOM      7  C   UNL     1       2.013   8.595  18.483  0.00  0.00    +0.000 C 
ATOM      8  O   UNL     1       3.201   8.502  18.192  0.00  0.00    +0.000 OA
ATOM      9  N   UNL     1       1.433   7.851  19.488  0.00  0.00    +0.000 N 
ATOM     10  H   UNL     1       0.615   8.231  19.943  0.00  0.00    +0.000 HD
BRANCH   9  11
ATOM     11  C   UNL     1       2.274   6.983  20.287  0.00  0.00    +0.000 C 
BRANCH  11  12
ATOM     12  C   UNL     1       2.181   5.504  19.989  0.00  0.00    +0.000 A 
ATOM     13  C   UNL     1       1.048   4.751  20.338  0.00  0.00    +0.000 A 
ATOM     14  C   UNL     1       0.934   3.416  19.955  0.00  0.00    +0.000 A 
ATOM     15  C   UNL     1       1.949   2.813  19.216  0.00  0.00    +0.000 A 
ATOM     16  C   UNL     1       3.115   3.521  18.918  0.00  0.00    +0.000 A 
ATOM     17  C   UNL     1       3.266   4.855  19.327  0.00  0.00    +0.000 A 
BRANCH  17  18
ATOM     18  C   UNL     1       4.604   5.565  19.091  0.00  0.00    +0.000 C 
BRANCH  18  19
ATOM     19  N   UNL     1       5.123   5.160  17.806  0.00  0.00    +0.000 NA
ATOM     20  C   UNL     1       4.865   5.984  16.645  0.00  0.00    +0.000 C 
ATOM     21  C   UNL     1       5.321   5.010  15.568  0.00  0.00    +0.000 C 
ATOM     22  C   UNL     1       6.447   4.198  16.225  0.00  0.00    +0.000 C 
ATOM     23  C   UNL     1       6.476   4.660  17.683  0.00  0.00    +0.000 C 
ENDBRANCH  18  19
ENDBRANCH  17  18
ENDBRANCH  11  12
ENDBRANCH   9  11
ENDBRANCH   4   7
BRANCH   1  24
ATOM     24  S   UNL     1       0.032  11.754  21.656  0.00  0.00    +0.000 S 
ATOM     25  O   UNL     1       0.776  12.995  21.756  0.00  0.00    +0.000 OA
ATOM     26  O   UNL     1       0.324  10.643  22.540  0.00  0.00    +0.000 OA
BRANCH  24  31
ATOM     27  C   UNL     1      -5.820  13.369  22.284  0.00  0.00    +0.000 C 
ATOM     28  C   UNL     1      -4.383  12.938  22.163  0.00  0.00    +0.000 A 
ATOM     29  C   UNL     1      -3.752  13.014  20.913  0.00  0.00    +0.000 A 
ATOM     30  C   UNL     1      -2.416  12.634  20.757  0.00  0.00    +0.000 A 
ATOM     31  C   UNL     1      -1.696  12.158  21.861  0.00  0.00    +0.000 A 
ATOM     32  C   UNL     1      -2.302  12.101  23.118  0.00  0.00    +0.000 A 
ATOM     33  C   UNL     1      -3.641  12.492  23.278  0.00  0.00    +0.000 A 
ATOM     34  C   UNL     1      -4.277  12.431  24.650  0.00  0.00    +0.000 C 
ENDBRANCH  24  31
ENDBRANCH   1  24
TORSDOF 7
ENDMDL
