MODEL 1
REMARK VINA RESULT:      -7.9      0.000      0.000
REMARK  Name = 
REMARK  10 active torsions:
REMARK  status: ('A' for Active; 'I' for Inactive)
REMARK    1  A    between atoms: O_1  and  C_2
REMARK    2  A    between atoms: C_2  and  C_3
REMARK    3  A    between atoms: C_3  and  C_4
REMARK    4  A    between atoms: C_4  and  C_5
REMARK    5  A    between atoms: C_5  and  C_6
REMARK    6  A    between atoms: C_6  and  C_7
REMARK    7  A    between atoms: C_7  and  N_8
REMARK    8  A    between atoms: N_8  and  C_9
REMARK    9  A    between atoms: C_14  and  C_15
REMARK   10  A    between atoms: C_22  and  C_23
REMARK                            x       y       z     vdW  Elec       q    Type
REMARK                         _______ _______ _______ _____ _____    ______ ____
ROOT
ATOM      1  C   UNL     1       5.167   4.836  16.297  0.00  0.00    +0.000 A 
ATOM      2  C   UNL     1       5.492   6.170  15.808  0.00  0.00    +0.000 A 
ATOM      3  C   UNL     1       4.901   7.275  16.298  0.00  0.00    +0.000 A 
ATOM      4  C   UNL     1       3.931   7.170  17.326  0.00  0.00    +0.000 A 
ATOM      5  N   UNL     1       3.243   8.098  17.957  0.00  0.00    +0.000 NA
ATOM      6  C   UNL     1       2.464   7.425  18.864  0.00  0.00    +0.000 A 
ATOM      7  C   UNL     1       2.689   6.045  18.825  0.00  0.00    +0.000 A 
ATOM      8  N   UNL     1       3.641   5.897  17.808  0.00  0.00    +0.000 N 
ATOM      9  C   UNL     1       4.271   4.753  17.292  0.00  0.00    +0.000 A 
ENDROOT
BRANCH   6  10
ATOM     10  C   UNL     1       1.557   8.165  19.746  0.00  0.00    +0.000 A 
ATOM     11  C   UNL     1       1.428   7.855  21.109  0.00  0.00    +0.000 A 
ATOM     12  C   UNL     1       0.655   8.643  21.961  0.00  0.00    +0.000 A 
ATOM     13  C   UNL     1      -0.064   9.701  21.432  0.00  0.00    +0.000 A 
ATOM     14  F   UNL     1      -0.834  10.441  22.241  0.00  0.00    +0.000 F 
ATOM     15  C   UNL     1      -0.008  10.001  20.073  0.00  0.00    +0.000 A 
ATOM     16  C   UNL     1       0.809   9.233  19.234  0.00  0.00    +0.000 A 
ENDBRANCH   6  10
BRANCH   7  17
ATOM     17  C   UNL     1       2.144   4.933  19.633  0.00  0.00    +0.000 A 
ATOM     18  C   UNL     1       2.592   4.674  20.927  0.00  0.00    +0.000 A 
ATOM     19  C   UNL     1       2.054   3.606  21.630  0.00  0.00    +0.000 A 
ATOM     20  N   UNL     1       1.174   2.736  21.108  0.00  0.00    +0.000 NA
ATOM     21  C   UNL     1       0.773   2.970  19.846  0.00  0.00    +0.000 A 
ATOM     22  C   UNL     1       1.185   4.062  19.101  0.00  0.00    +0.000 A 
ENDBRANCH   7  17
BRANCH   1  23
ATOM     23  N   UNL     1       5.808   3.737  15.738  0.00  0.00    +0.000 N 
ATOM     24  H   UNL     1       6.337   3.220  16.437  0.00  0.00    +0.000 HD
BRANCH  23  25
ATOM     25  C   UNL     1       6.553   3.847  14.481  0.00  0.00    +0.000 C 
BRANCH  25  26
ATOM     26  C   UNL     1       5.597   3.725  13.293  0.00  0.00    +0.000 C 
BRANCH  26  27
ATOM     27  C   UNL     1       6.152   2.767  12.235  0.00  0.00    +0.000 C 
BRANCH  27  28
ATOM     28  C   UNL     1       5.162   2.558  11.088  0.00  0.00    +0.000 C 
BRANCH  28  29
ATOM     29  C   UNL     1       3.925   3.441  11.252  0.00  0.00    +0.000 C 
BRANCH  29  30
ATOM     30  C   UNL     1       2.902   3.176  10.157  0.00  0.00    +0.000 C 
BRANCH  30  31
ATOM     31  O   UNL     1       3.179   4.026   9.054  0.00  0.00    +0.000 OA
ATOM     32  H   UNL     1       2.825   4.906   9.274  0.00  0.00    +0.000 HD
ENDBRANCH  30  31
ENDBRANCH  29  30
ENDBRANCH  28  29
ENDBRANCH  27  28
ENDBRANCH  26  27
ENDBRANCH  25  26
ENDBRANCH  23  25
ENDBRANCH   1  23
TORSDOF 10
ENDMDL
MODEL 2
REMARK VINA RESULT:      -7.8      1.365      1.846
REMARK  Name = 
REMARK  10 active torsions:
REMARK  status: ('A' for Active; 'I' for Inactive)
REMARK    1  A    between atoms: O_1  and  C_2
REMARK    2  A    between atoms: C_2  and  C_3
REMARK    3  A    between atoms: C_3  and  C_4
REMARK    4  A    between atoms: C_4  and  C_5
REMARK    5  A    between atoms: C_5  and  C_6
REMARK    6  A    between atoms: C_6  and  C_7
REMARK    7  A    between atoms: C_7  and  N_8
REMARK    8  A    between atoms: N_8  and  C_9
REMARK    9  A    between atoms: C_14  and  C_15
REMARK   10  A    between atoms: C_22  and  C_23
REMARK                            x       y       z     vdW  Elec       q    Type
REMARK                         _______ _______ _______ _____ _____    ______ ____
ROOT
ATOM      1  C   UNL     1       5.261   4.642  16.122  0.00  0.00    +0.000 A 
ATOM      2  C   UNL     1       5.598   5.968  15.617  0.00  0.00    +0.000 A 
ATOM      3  C   UNL     1       5.033   7.085  16.107  0.00  0.00    +0.000 A 
ATOM      4  C   UNL     1       4.077   7.003  17.151  0.00  0.00    +0.000 A 
ATOM      5  N   UNL     1       3.414   7.947  17.785  0.00  0.00    +0.000 NA
ATOM      6  C   UNL     1       2.639   7.293  18.709  0.00  0.00    +0.000 A 
ATOM      7  C   UNL     1       2.842   5.910  18.678  0.00  0.00    +0.000 A 
ATOM      8  N   UNL     1       3.776   5.739  17.648  0.00  0.00    +0.000 N 
ATOM      9  C   UNL     1       4.379   4.581  17.132  0.00  0.00    +0.000 A 
ENDROOT
BRANCH   6  10
ATOM     10  C   UNL     1       1.758   8.054  19.600  0.00  0.00    +0.000 A 
ATOM     11  C   UNL     1       1.588   7.710  20.950  0.00  0.00    +0.000 A 
ATOM     12  C   UNL     1       0.843   8.513  21.813  0.00  0.00    +0.000 A 
ATOM     13  C   UNL     1       0.192   9.624  21.307  0.00  0.00    +0.000 A 
ATOM     14  F   UNL     1      -0.551  10.380  22.126  0.00  0.00    +0.000 F 
ATOM     15  C   UNL     1       0.288   9.962  19.959  0.00  0.00    +0.000 A 
ATOM     16  C   UNL     1       1.078   9.177  19.109  0.00  0.00    +0.000 A 
ENDBRANCH   6  10
BRANCH   7  17
ATOM     17  C   UNL     1       2.293   4.813  19.504  0.00  0.00    +0.000 A 
ATOM     18  C   UNL     1       1.278   3.979  19.040  0.00  0.00    +0.000 A 
ATOM     19  C   UNL     1       0.791   2.977  19.866  0.00  0.00    +0.000 A 
ATOM     20  N   UNL     1       1.180   2.806  21.141  0.00  0.00    +0.000 NA
ATOM     21  C   UNL     1       2.134   3.639  21.595  0.00  0.00    +0.000 A 
ATOM     22  C   UNL     1       2.743   4.606  20.813  0.00  0.00    +0.000 A 
ENDBRANCH   7  17
BRANCH   1  23
ATOM     23  N   UNL     1       5.876   3.530  15.562  0.00  0.00    +0.000 N 
ATOM     24  H   UNL     1       6.568   3.131  16.192  0.00  0.00    +0.000 HD
BRANCH  23  25
ATOM     25  C   UNL     1       6.361   3.542  14.179  0.00  0.00    +0.000 C 
BRANCH  25  26
ATOM     26  C   UNL     1       5.180   3.487  13.209  0.00  0.00    +0.000 C 
BRANCH  26  27
ATOM     27  C   UNL     1       5.661   3.383  11.759  0.00  0.00    +0.000 C 
BRANCH  27  28
ATOM     28  C   UNL     1       6.720   2.291  11.593  0.00  0.00    +0.000 C 
BRANCH  28  29
ATOM     29  C   UNL     1       6.162   1.082  10.845  0.00  0.00    +0.000 C 
BRANCH  29  30
ATOM     30  C   UNL     1       6.415  -0.211  11.607  0.00  0.00    +0.000 C 
BRANCH  30  31
ATOM     31  O   UNL     1       5.749  -1.275  10.942  0.00  0.00    +0.000 OA
ATOM     32  H   UNL     1       4.800  -1.058  10.937  0.00  0.00    +0.000 HD
ENDBRANCH  30  31
ENDBRANCH  29  30
ENDBRANCH  28  29
ENDBRANCH  27  28
ENDBRANCH  26  27
ENDBRANCH  25  26
ENDBRANCH  23  25
ENDBRANCH   1  23
TORSDOF 10
ENDMDL
MODEL 3
REMARK VINA RESULT:      -7.4      1.405      1.567
REMARK  Name = 
REMARK  10 active torsions:
REMARK  status: ('A' for Active; 'I' for Inactive)
REMARK    1  A    between atoms: O_1  and  C_2
REMARK    2  A    between atoms: C_2  and  C_3
REMARK    3  A    between atoms: C_3  and  C_4
REMARK    4  A    between atoms: C_4  and  C_5
REMARK    5  A    between atoms: C_5  and  C_6
REMARK    6  A    between atoms: C_6  and  C_7
REMARK    7  A    between atoms: C_7  and  N_8
REMARK    8  A    between atoms: N_8  and  C_9
REMARK    9  A    between atoms: C_14  and  C_15
REMARK   10  A    between atoms: C_22  and  C_23
REMARK                            x       y       z     vdW  Elec       q    Type
REMARK                         _______ _______ _______ _____ _____    ______ ____
ROOT
ATOM      1  C   UNL     1       5.351   4.809  16.561  0.00  0.00    +0.000 A 
ATOM      2  C   UNL     1       5.677   6.134  16.046  0.00  0.00    +0.000 A 
ATOM      3  C   UNL     1       5.044   7.242  16.473  0.00  0.00    +0.000 A 
ATOM      4  C   UNL     1       4.027   7.150  17.455  0.00  0.00    +0.000 A 
ATOM      5  N   UNL     1       3.293   8.084  18.022  0.00  0.00    +0.000 NA
ATOM      6  C   UNL     1       2.482   7.424  18.911  0.00  0.00    +0.000 A 
ATOM      7  C   UNL     1       2.732   6.048  18.926  0.00  0.00    +0.000 A 
ATOM      8  N   UNL     1       3.736   5.887  17.962  0.00  0.00    +0.000 N 
ATOM      9  C   UNL     1       4.409   4.740  17.513  0.00  0.00    +0.000 A 
ENDROOT
BRANCH   6  10
ATOM     10  C   UNL     1       1.521   8.174  19.724  0.00  0.00    +0.000 A 
ATOM     11  C   UNL     1       1.315   7.889  21.084  0.00  0.00    +0.000 A 
ATOM     12  C   UNL     1       0.488   8.688  21.873  0.00  0.00    +0.000 A 
ATOM     13  C   UNL     1      -0.206   9.729  21.283  0.00  0.00    +0.000 A 
ATOM     14  F   UNL     1      -1.027  10.478  22.032  0.00  0.00    +0.000 F 
ATOM     15  C   UNL     1      -0.074  10.003  19.924  0.00  0.00    +0.000 A 
ATOM     16  C   UNL     1       0.796   9.226  19.149  0.00  0.00    +0.000 A 
ENDBRANCH   6  10
BRANCH   7  17
ATOM     17  C   UNL     1       2.167   4.952  19.741  0.00  0.00    +0.000 A 
ATOM     18  C   UNL     1       2.628   4.677  21.027  0.00  0.00    +0.000 A 
ATOM     19  C   UNL     1       2.070   3.624  21.737  0.00  0.00    +0.000 A 
ATOM     20  N   UNL     1       1.156   2.781  21.229  0.00  0.00    +0.000 NA
ATOM     21  C   UNL     1       0.743   3.030  19.973  0.00  0.00    +0.000 A 
ATOM     22  C   UNL     1       1.175   4.111  19.224  0.00  0.00    +0.000 A 
ENDBRANCH   7  17
BRANCH   1  23
ATOM     23  N   UNL     1       6.038   3.706  16.068  0.00  0.00    +0.000 N 
ATOM     24  H   UNL     1       7.045   3.831  16.145  0.00  0.00    +0.000 HD
BRANCH  23  25
ATOM     25  C   UNL     1       5.674   3.090  14.790  0.00  0.00    +0.000 C 
BRANCH  25  26
ATOM     26  C   UNL     1       6.357   3.829  13.638  0.00  0.00    +0.000 C 
BRANCH  26  27
ATOM     27  C   UNL     1       5.808   3.369  12.284  0.00  0.00    +0.000 C 
BRANCH  27  28
ATOM     28  C   UNL     1       6.932   3.075  11.290  0.00  0.00    +0.000 C 
BRANCH  28  29
ATOM     29  C   UNL     1       7.239   1.579  11.223  0.00  0.00    +0.000 C 
BRANCH  29  30
ATOM     30  C   UNL     1       5.969   0.757  11.057  0.00  0.00    +0.000 C 
BRANCH  30  31
ATOM     31  O   UNL     1       6.247  -0.593  11.401  0.00  0.00    +0.000 OA
ATOM     32  H   UNL     1       7.184  -0.634  11.662  0.00  0.00    +0.000 HD
ENDBRANCH  30  31
ENDBRANCH  29  30
ENDBRANCH  28  29
ENDBRANCH  27  28
ENDBRANCH  26  27
ENDBRANCH  25  26
ENDBRANCH  23  25
ENDBRANCH   1  23
TORSDOF 10
ENDMDL
MODEL 4
REMARK VINA RESULT:      -7.3      4.062      6.161
REMARK  Name = 
REMARK  10 active torsions:
REMARK  status: ('A' for Active; 'I' for Inactive)
REMARK    1  A    between atoms: O_1  and  C_2
REMARK    2  A    between atoms: C_2  and  C_3
REMARK    3  A    between atoms: C_3  and  C_4
REMARK    4  A    between atoms: C_4  and  C_5
REMARK    5  A    between atoms: C_5  and  C_6
REMARK    6  A    between atoms: C_6  and  C_7
REMARK    7  A    between atoms: C_7  and  N_8
REMARK    8  A    between atoms: N_8  and  C_9
REMARK    9  A    between atoms: C_14  and  C_15
REMARK   10  A    between atoms: C_22  and  C_23
REMARK                            x       y       z     vdW  Elec       q    Type
REMARK                         _______ _______ _______ _____ _____    ______ ____
ROOT
ATOM      1  C   UNL     1       2.582   6.300  19.287  0.00  0.00    +0.000 A 
ATOM      2  C   UNL     1       3.151   6.583  17.975  0.00  0.00    +0.000 A 
ATOM      3  C   UNL     1       3.047   7.793  17.397  0.00  0.00    +0.000 A 
ATOM      4  C   UNL     1       2.373   8.847  18.061  0.00  0.00    +0.000 A 
ATOM      5  N   UNL     1       2.162  10.095  17.701  0.00  0.00    +0.000 NA
ATOM      6  C   UNL     1       1.468  10.665  18.738  0.00  0.00    +0.000 A 
ATOM      7  C   UNL     1       1.265   9.764  19.789  0.00  0.00    +0.000 A 
ATOM      8  N   UNL     1       1.853   8.580  19.324  0.00  0.00    +0.000 N 
ATOM      9  C   UNL     1       1.974   7.315  19.920  0.00  0.00    +0.000 A 
ENDROOT
BRANCH   6  10
ATOM     10  C   UNL     1       1.063  12.071  18.667  0.00  0.00    +0.000 A 
ATOM     11  C   UNL     1      -0.271  12.450  18.447  0.00  0.00    +0.000 A 
ATOM     12  C   UNL     1      -0.662  13.788  18.501  0.00  0.00    +0.000 A 
ATOM     13  C   UNL     1       0.300  14.764  18.694  0.00  0.00    +0.000 A 
ATOM     14  F   UNL     1      -0.067  16.052  18.714  0.00  0.00    +0.000 F 
ATOM     15  C   UNL     1       1.642  14.428  18.855  0.00  0.00    +0.000 A 
ATOM     16  C   UNL     1       2.019  13.079  18.847  0.00  0.00    +0.000 A 
ENDBRANCH   6  10
BRANCH   7  17
ATOM     17  C   UNL     1       0.636   9.924  21.118  0.00  0.00    +0.000 A 
ATOM     18  C   UNL     1       1.053   9.186  22.224  0.00  0.00    +0.000 A 
ATOM     19  C   UNL     1       0.413   9.368  23.441  0.00  0.00    +0.000 A 
ATOM     20  N   UNL     1      -0.658  10.160  23.611  0.00  0.00    +0.000 NA
ATOM     21  C   UNL     1      -1.078  10.842  22.530  0.00  0.00    +0.000 A 
ATOM     22  C   UNL     1      -0.445  10.795  21.300  0.00  0.00    +0.000 A 
ENDBRANCH   7  17
BRANCH   1  23
ATOM     23  N   UNL     1       2.718   5.024  19.820  0.00  0.00    +0.000 N 
ATOM     24  H   UNL     1       2.515   4.308  19.128  0.00  0.00    +0.000 HD
BRANCH  23  25
ATOM     25  C   UNL     1       2.150   4.679  21.126  0.00  0.00    +0.000 C 
BRANCH  25  26
ATOM     26  C   UNL     1       1.405   3.345  21.037  0.00  0.00    +0.000 C 
BRANCH  26  27
ATOM     27  C   UNL     1       0.779   3.154  19.653  0.00  0.00    +0.000 C 
BRANCH  27  28
ATOM     28  C   UNL     1       1.333   1.915  18.949  0.00  0.00    +0.000 C 
BRANCH  28  29
ATOM     29  C   UNL     1       2.310   2.296  17.838  0.00  0.00    +0.000 C 
BRANCH  29  30
ATOM     30  C   UNL     1       3.687   1.690  18.074  0.00  0.00    +0.000 C 
BRANCH  30  31
ATOM     31  O   UNL     1       4.398   2.508  18.991  0.00  0.00    +0.000 OA
ATOM     32  H   UNL     1       4.912   3.146  18.466  0.00  0.00    +0.000 HD
ENDBRANCH  30  31
ENDBRANCH  29  30
ENDBRANCH  28  29
ENDBRANCH  27  28
ENDBRANCH  26  27
ENDBRANCH  25  26
ENDBRANCH  23  25
ENDBRANCH   1  23
TORSDOF 10
ENDMDL
MODEL 5
REMARK VINA RESULT:      -7.3      0.486      1.003
REMARK  Name = 
REMARK  10 active torsions:
REMARK  status: ('A' for Active; 'I' for Inactive)
REMARK    1  A    between atoms: O_1  and  C_2
REMARK    2  A    between atoms: C_2  and  C_3
REMARK    3  A    between atoms: C_3  and  C_4
REMARK    4  A    between atoms: C_4  and  C_5
REMARK    5  A    between atoms: C_5  and  C_6
REMARK    6  A    between atoms: C_6  and  C_7
REMARK    7  A    between atoms: C_7  and  N_8
REMARK    8  A    between atoms: N_8  and  C_9
REMARK    9  A    between atoms: C_14  and  C_15
REMARK   10  A    between atoms: C_22  and  C_23
REMARK                            x       y       z     vdW  Elec       q    Type
REMARK                         _______ _______ _______ _____ _____    ______ ____
ROOT
ATOM      1  C   UNL     1       5.496   4.804  16.414  0.00  0.00    +0.000 A 
ATOM      2  C   UNL     1       5.811   6.135  15.909  0.00  0.00    +0.000 A 
ATOM      3  C   UNL     1       5.164   7.234  16.337  0.00  0.00    +0.000 A 
ATOM      4  C   UNL     1       4.141   7.126  17.313  0.00  0.00    +0.000 A 
ATOM      5  N   UNL     1       3.393   8.049  17.880  0.00  0.00    +0.000 NA
ATOM      6  C   UNL     1       2.583   7.376  18.760  0.00  0.00    +0.000 A 
ATOM      7  C   UNL     1       2.849   6.002  18.769  0.00  0.00    +0.000 A 
ATOM      8  N   UNL     1       3.860   5.857  17.810  0.00  0.00    +0.000 N 
ATOM      9  C   UNL     1       4.548   4.720  17.360  0.00  0.00    +0.000 A 
ENDROOT
BRANCH   6  10
ATOM     10  C   UNL     1       1.609   8.110  19.571  0.00  0.00    +0.000 A 
ATOM     11  C   UNL     1       1.422   7.839  20.936  0.00  0.00    +0.000 A 
ATOM     12  C   UNL     1       0.580   8.626  21.721  0.00  0.00    +0.000 A 
ATOM     13  C   UNL     1      -0.147   9.640  21.123  0.00  0.00    +0.000 A 
ATOM     14  F   UNL     1      -0.981  10.377  21.868  0.00  0.00    +0.000 F 
ATOM     15  C   UNL     1      -0.033   9.899  19.759  0.00  0.00    +0.000 A 
ATOM     16  C   UNL     1       0.852   9.134  18.987  0.00  0.00    +0.000 A 
ENDBRANCH   6  10
BRANCH   7  17
ATOM     17  C   UNL     1       2.290   4.895  19.574  0.00  0.00    +0.000 A 
ATOM     18  C   UNL     1       1.272   4.074  19.093  0.00  0.00    +0.000 A 
ATOM     19  C   UNL     1       0.777   3.062  19.901  0.00  0.00    +0.000 A 
ATOM     20  N   UNL     1       1.160   2.868  21.174  0.00  0.00    +0.000 NA
ATOM     21  C   UNL     1       2.117   3.688  21.645  0.00  0.00    +0.000 A 
ATOM     22  C   UNL     1       2.734   4.664  20.882  0.00  0.00    +0.000 A 
ENDBRANCH   7  17
BRANCH   1  23
ATOM     23  N   UNL     1       6.198   3.712  15.920  0.00  0.00    +0.000 N 
ATOM     24  H   UNL     1       7.200   3.888  15.908  0.00  0.00    +0.000 HD
BRANCH  23  25
ATOM     25  C   UNL     1       5.767   3.014  14.706  0.00  0.00    +0.000 C 
BRANCH  25  26
ATOM     26  C   UNL     1       5.940   3.923  13.489  0.00  0.00    +0.000 C 
BRANCH  26  27
ATOM     27  C   UNL     1       5.625   3.173  12.191  0.00  0.00    +0.000 C 
BRANCH  27  28
ATOM     28  C   UNL     1       4.205   3.466  11.702  0.00  0.00    +0.000 C 
BRANCH  28  29
ATOM     29  C   UNL     1       4.166   3.661  10.187  0.00  0.00    +0.000 C 
BRANCH  29  30
ATOM     30  C   UNL     1       2.737   3.770   9.675  0.00  0.00    +0.000 C 
BRANCH  30  31
ATOM     31  O   UNL     1       2.691   4.746   8.645  0.00  0.00    +0.000 OA
ATOM     32  H   UNL     1       2.028   4.447   7.997  0.00  0.00    +0.000 HD
ENDBRANCH  30  31
ENDBRANCH  29  30
ENDBRANCH  28  29
ENDBRANCH  27  28
ENDBRANCH  26  27
ENDBRANCH  25  26
ENDBRANCH  23  25
ENDBRANCH   1  23
TORSDOF 10
ENDMDL
MODEL 6
REMARK VINA RESULT:      -7.2      0.557      1.075
REMARK  Name = 
REMARK  10 active torsions:
REMARK  status: ('A' for Active; 'I' for Inactive)
REMARK    1  A    between atoms: O_1  and  C_2
REMARK    2  A    between atoms: C_2  and  C_3
REMARK    3  A    between atoms: C_3  and  C_4
REMARK    4  A    between atoms: C_4  and  C_5
REMARK    5  A    between atoms: C_5  and  C_6
REMARK    6  A    between atoms: C_6  and  C_7
REMARK    7  A    between atoms: C_7  and  N_8
REMARK    8  A    between atoms: N_8  and  C_9
REMARK    9  A    between atoms: C_14  and  C_15
REMARK   10  A    between atoms: C_22  and  C_23
REMARK                            x       y       z     vdW  Elec       q    Type
REMARK                         _______ _______ _______ _____ _____    ______ ____
ROOT
ATOM      1  C   UNL     1       4.996   4.833  15.908  0.00  0.00    +0.000 A 
ATOM      2  C   UNL     1       5.326   6.173  15.439  0.00  0.00    +0.000 A 
ATOM      3  C   UNL     1       4.795   7.276  15.997  0.00  0.00    +0.000 A 
ATOM      4  C   UNL     1       3.887   7.164  17.078  0.00  0.00    +0.000 A 
ATOM      5  N   UNL     1       3.262   8.089  17.776  0.00  0.00    +0.000 NA
ATOM      6  C   UNL     1       2.522   7.408  18.709  0.00  0.00    +0.000 A 
ATOM      7  C   UNL     1       2.708   6.024  18.616  0.00  0.00    +0.000 A 
ATOM      8  N   UNL     1       3.593   5.885  17.539  0.00  0.00    +0.000 N 
ATOM      9  C   UNL     1       4.159   4.742  16.953  0.00  0.00    +0.000 A 
ENDROOT
BRANCH   6  10
ATOM     10  C   UNL     1       1.690   8.143  19.666  0.00  0.00    +0.000 A 
ATOM     11  C   UNL     1       0.938   9.267  19.288  0.00  0.00    +0.000 A 
ATOM     12  C   UNL     1       0.058   9.882  20.179  0.00  0.00    +0.000 A 
ATOM     13  C   UNL     1      -0.009   9.424  21.483  0.00  0.00    +0.000 A 
ATOM     14  F   UNL     1      -0.829  10.033  22.351  0.00  0.00    +0.000 F 
ATOM     15  C   UNL     1       0.768   8.349  21.910  0.00  0.00    +0.000 A 
ATOM     16  C   UNL     1       1.612   7.707  20.995  0.00  0.00    +0.000 A 
ENDBRANCH   6  10
BRANCH   7  17
ATOM     17  C   UNL     1       2.183   4.902  19.423  0.00  0.00    +0.000 A 
ATOM     18  C   UNL     1       2.681   4.611  20.692  0.00  0.00    +0.000 A 
ATOM     19  C   UNL     1       2.160   3.535  21.395  0.00  0.00    +0.000 A 
ATOM     20  N   UNL     1       1.249   2.686  20.893  0.00  0.00    +0.000 NA
ATOM     21  C   UNL     1       0.799   2.951  19.653  0.00  0.00    +0.000 A 
ATOM     22  C   UNL     1       1.193   4.054  18.914  0.00  0.00    +0.000 A 
ENDBRANCH   7  17
BRANCH   1  23
ATOM     23  N   UNL     1       5.573   3.737  15.279  0.00  0.00    +0.000 N 
ATOM     24  H   UNL     1       5.737   2.976  15.934  0.00  0.00    +0.000 HD
BRANCH  23  25
ATOM     25  C   UNL     1       6.698   3.894  14.354  0.00  0.00    +0.000 C 
BRANCH  25  26
ATOM     26  C   UNL     1       6.325   3.343  12.977  0.00  0.00    +0.000 C 
BRANCH  26  27
ATOM     27  C   UNL     1       4.811   3.398  12.752  0.00  0.00    +0.000 C 
BRANCH  27  28
ATOM     28  C   UNL     1       4.464   4.027  11.402  0.00  0.00    +0.000 C 
BRANCH  28  29
ATOM     29  C   UNL     1       3.289   3.309  10.739  0.00  0.00    +0.000 C 
BRANCH  29  30
ATOM     30  C   UNL     1       3.082   3.784   9.307  0.00  0.00    +0.000 C 
BRANCH  30  31
ATOM     31  O   UNL     1       2.250   4.935   9.320  0.00  0.00    +0.000 OA
ATOM     32  H   UNL     1       1.359   4.640   9.577  0.00  0.00    +0.000 HD
ENDBRANCH  30  31
ENDBRANCH  29  30
ENDBRANCH  28  29
ENDBRANCH  27  28
ENDBRANCH  26  27
ENDBRANCH  25  26
ENDBRANCH  23  25
ENDBRANCH   1  23
TORSDOF 10
ENDMDL
MODEL 7
REMARK VINA RESULT:      -7.2      3.995      8.390
REMARK  Name = 
REMARK  10 active torsions:
REMARK  status: ('A' for Active; 'I' for Inactive)
REMARK    1  A    between atoms: O_1  and  C_2
REMARK    2  A    between atoms: C_2  and  C_3
REMARK    3  A    between atoms: C_3  and  C_4
REMARK    4  A    between atoms: C_4  and  C_5
REMARK    5  A    between atoms: C_5  and  C_6
REMARK    6  A    between atoms: C_6  and  C_7
REMARK    7  A    between atoms: C_7  and  N_8
REMARK    8  A    between atoms: N_8  and  C_9
REMARK    9  A    between atoms: C_14  and  C_15
REMARK   10  A    between atoms: C_22  and  C_23
REMARK                            x       y       z     vdW  Elec       q    Type
REMARK                         _______ _______ _______ _____ _____    ______ ____
ROOT
ATOM      1  C   UNL     1       0.406   9.307  20.660  0.00  0.00    +0.000 A 
ATOM      2  C   UNL     1       0.890  10.274  19.683  0.00  0.00    +0.000 A 
ATOM      3  C   UNL     1       1.761   9.937  18.715  0.00  0.00    +0.000 A 
ATOM      4  C   UNL     1       2.240   8.607  18.616  0.00  0.00    +0.000 A 
ATOM      5  N   UNL     1       3.073   8.054  17.760  0.00  0.00    +0.000 NA
ATOM      6  C   UNL     1       3.161   6.736  18.131  0.00  0.00    +0.000 A 
ATOM      7  C   UNL     1       2.342   6.445  19.227  0.00  0.00    +0.000 A 
ATOM      8  N   UNL     1       1.758   7.681  19.536  0.00  0.00    +0.000 N 
ATOM      9  C   UNL     1       0.842   8.044  20.536  0.00  0.00    +0.000 A 
ENDROOT
BRANCH   6  10
ATOM     10  C   UNL     1       4.020   5.817  17.380  0.00  0.00    +0.000 A 
ATOM     11  C   UNL     1       3.792   4.431  17.365  0.00  0.00    +0.000 A 
ATOM     12  C   UNL     1       4.542   3.584  16.549  0.00  0.00    +0.000 A 
ATOM     13  C   UNL     1       5.584   4.111  15.807  0.00  0.00    +0.000 A 
ATOM     14  F   UNL     1       6.328   3.295  15.048  0.00  0.00    +0.000 F 
ATOM     15  C   UNL     1       5.878   5.472  15.845  0.00  0.00    +0.000 A 
ATOM     16  C   UNL     1       5.089   6.323  16.629  0.00  0.00    +0.000 A 
ENDBRANCH   6  10
BRANCH   7  17
ATOM     17  C   UNL     1       2.057   5.181  19.938  0.00  0.00    +0.000 A 
ATOM     18  C   UNL     1       2.703   4.841  21.125  0.00  0.00    +0.000 A 
ATOM     19  C   UNL     1       2.407   3.633  21.738  0.00  0.00    +0.000 A 
ATOM     20  N   UNL     1       1.586   2.710  21.211  0.00  0.00    +0.000 NA
ATOM     21  C   UNL     1       0.993   3.028  20.046  0.00  0.00    +0.000 A 
ATOM     22  C   UNL     1       1.157   4.247  19.410  0.00  0.00    +0.000 A 
ENDBRANCH   7  17
BRANCH   1  23
ATOM     23  N   UNL     1      -0.487   9.726  21.639  0.00  0.00    +0.000 N 
ATOM     24  H   UNL     1      -1.451   9.619  21.333  0.00  0.00    +0.000 HD
BRANCH  23  25
ATOM     25  C   UNL     1      -0.294  10.988  22.357  0.00  0.00    +0.000 C 
BRANCH  25  26
ATOM     26  C   UNL     1      -1.451  11.944  22.059  0.00  0.00    +0.000 C 
BRANCH  26  27
ATOM     27  C   UNL     1      -0.955  13.205  21.346  0.00  0.00    +0.000 C 
BRANCH  27  28
ATOM     28  C   UNL     1      -1.347  13.208  19.868  0.00  0.00    +0.000 C 
BRANCH  28  29
ATOM     29  C   UNL     1      -2.373  12.118  19.561  0.00  0.00    +0.000 C 
BRANCH  29  30
ATOM     30  C   UNL     1      -2.285  11.662  18.111  0.00  0.00    +0.000 C 
BRANCH  30  31
ATOM     31  O   UNL     1      -1.368  12.497  17.421  0.00  0.00    +0.000 OA
ATOM     32  H   UNL     1      -0.821  11.919  16.860  0.00  0.00    +0.000 HD
ENDBRANCH  30  31
ENDBRANCH  29  30
ENDBRANCH  28  29
ENDBRANCH  27  28
ENDBRANCH  26  27
ENDBRANCH  25  26
ENDBRANCH  23  25
ENDBRANCH   1  23
TORSDOF 10
ENDMDL
MODEL 8
REMARK VINA RESULT:      -7.2      3.990      8.592
REMARK  Name = 
REMARK  10 active torsions:
REMARK  status: ('A' for Active; 'I' for Inactive)
REMARK    1  A    between atoms: O_1  and  C_2
REMARK    2  A    between atoms: C_2  and  C_3
REMARK    3  A    between atoms: C_3  and  C_4
REMARK    4  A    between atoms: C_4  and  C_5
REMARK    5  A    between atoms: C_5  and  C_6
REMARK    6  A    between atoms: C_6  and  C_7
REMARK    7  A    between atoms: C_7  and  N_8
REMARK    8  A    between atoms: N_8  and  C_9
REMARK    9  A    between atoms: C_14  and  C_15
REMARK   10  A    between atoms: C_22  and  C_23
REMARK                            x       y       z     vdW  Elec       q    Type
REMARK                         _______ _______ _______ _____ _____    ______ ____
ROOT
ATOM      1  C   UNL     1       0.478   9.257  20.517  0.00  0.00    +0.000 A 
ATOM      2  C   UNL     1       0.971  10.238  19.558  0.00  0.00    +0.000 A 
ATOM      3  C   UNL     1       1.848   9.914  18.591  0.00  0.00    +0.000 A 
ATOM      4  C   UNL     1       2.323   8.584  18.474  0.00  0.00    +0.000 A 
ATOM      5  N   UNL     1       3.160   8.043  17.613  0.00  0.00    +0.000 NA
ATOM      6  C   UNL     1       3.242   6.719  17.964  0.00  0.00    +0.000 A 
ATOM      7  C   UNL     1       2.414   6.413  19.050  0.00  0.00    +0.000 A 
ATOM      8  N   UNL     1       1.832   7.645  19.376  0.00  0.00    +0.000 N 
ATOM      9  C   UNL     1       0.911   7.995  20.376  0.00  0.00    +0.000 A 
ENDROOT
BRANCH   6  10
ATOM     10  C   UNL     1       4.102   5.808  17.203  0.00  0.00    +0.000 A 
ATOM     11  C   UNL     1       4.031   4.415  17.358  0.00  0.00    +0.000 A 
ATOM     12  C   UNL     1       4.769   3.558  16.542  0.00  0.00    +0.000 A 
ATOM     13  C   UNL     1       5.648   4.097  15.619  0.00  0.00    +0.000 A 
ATOM     14  F   UNL     1       6.382   3.277  14.856  0.00  0.00    +0.000 F 
ATOM     15  C   UNL     1       5.789   5.475  15.480  0.00  0.00    +0.000 A 
ATOM     16  C   UNL     1       5.009   6.329  16.271  0.00  0.00    +0.000 A 
ENDBRANCH   6  10
BRANCH   7  17
ATOM     17  C   UNL     1       2.122   5.138  19.739  0.00  0.00    +0.000 A 
ATOM     18  C   UNL     1       1.230   4.204  19.214  0.00  0.00    +0.000 A 
ATOM     19  C   UNL     1       0.983   3.033  19.914  0.00  0.00    +0.000 A 
ATOM     20  N   UNL     1       1.490   2.769  21.130  0.00  0.00    +0.000 NA
ATOM     21  C   UNL     1       2.321   3.691  21.648  0.00  0.00    +0.000 A 
ATOM     22  C   UNL     1       2.698   4.844  20.981  0.00  0.00    +0.000 A 
ENDBRANCH   7  17
BRANCH   1  23
ATOM     23  N   UNL     1      -0.419   9.664  21.497  0.00  0.00    +0.000 N 
ATOM     24  H   UNL     1      -1.358   9.770  21.120  0.00  0.00    +0.000 HD
BRANCH  23  25
ATOM     25  C   UNL     1      -0.094  10.748  22.427  0.00  0.00    +0.000 C 
BRANCH  25  26
ATOM     26  C   UNL     1      -1.377  11.340  23.012  0.00  0.00    +0.000 C 
BRANCH  26  27
ATOM     27  C   UNL     1      -2.064  12.269  22.006  0.00  0.00    +0.000 C 
BRANCH  27  28
ATOM     28  C   UNL     1      -1.048  12.983  21.113  0.00  0.00    +0.000 C 
BRANCH  28  29
ATOM     29  C   UNL     1      -1.655  13.350  19.760  0.00  0.00    +0.000 C 
BRANCH  29  30
ATOM     30  C   UNL     1      -0.591  13.438  18.676  0.00  0.00    +0.000 C 
BRANCH  30  31
ATOM     31  O   UNL     1      -1.096  12.851  17.486  0.00  0.00    +0.000 OA
ATOM     32  H   UNL     1      -0.331  12.518  16.985  0.00  0.00    +0.000 HD
ENDBRANCH  30  31
ENDBRANCH  29  30
ENDBRANCH  28  29
ENDBRANCH  27  28
ENDBRANCH  26  27
ENDBRANCH  25  26
ENDBRANCH  23  25
ENDBRANCH   1  23
TORSDOF 10
ENDMDL
MODEL 9
REMARK VINA RESULT:      -7.2      4.878      9.486
REMARK  Name = 
REMARK  10 active torsions:
REMARK  status: ('A' for Active; 'I' for Inactive)
REMARK    1  A    between atoms: O_1  and  C_2
REMARK    2  A    between atoms: C_2  and  C_3
REMARK    3  A    between atoms: C_3  and  C_4
REMARK    4  A    between atoms: C_4  and  C_5
REMARK    5  A    between atoms: C_5  and  C_6
REMARK    6  A    between atoms: C_6  and  C_7
REMARK    7  A    between atoms: C_7  and  N_8
REMARK    8  A    between atoms: N_8  and  C_9
REMARK    9  A    between atoms: C_14  and  C_15
REMARK   10  A    between atoms: C_22  and  C_23
REMARK                            x       y       z     vdW  Elec       q    Type
REMARK                         _______ _______ _______ _____ _____    ______ ____
ROOT
ATOM      1  C   UNL     1       0.560   9.649  20.033  0.00  0.00    +0.000 A 
ATOM      2  C   UNL     1       1.111  10.564  19.040  0.00  0.00    +0.000 A 
ATOM      3  C   UNL     1       2.012  10.165  18.124  0.00  0.00    +0.000 A 
ATOM      4  C   UNL     1       2.456   8.820  18.096  0.00  0.00    +0.000 A 
ATOM      5  N   UNL     1       3.307   8.211  17.297  0.00  0.00    +0.000 NA
ATOM      6  C   UNL     1       3.341   6.907  17.722  0.00  0.00    +0.000 A 
ATOM      7  C   UNL     1       2.469   6.682  18.792  0.00  0.00    +0.000 A 
ATOM      8  N   UNL     1       1.909   7.944  19.029  0.00  0.00    +0.000 N 
ATOM      9  C   UNL     1       0.963   8.371  19.975  0.00  0.00    +0.000 A 
ENDROOT
BRANCH   6  10
ATOM     10  C   UNL     1       4.203   5.936  17.043  0.00  0.00    +0.000 A 
ATOM     11  C   UNL     1       4.193   4.572  17.376  0.00  0.00    +0.000 A 
ATOM     12  C   UNL     1       4.928   3.642  16.641  0.00  0.00    +0.000 A 
ATOM     13  C   UNL     1       5.746   4.087  15.617  0.00  0.00    +0.000 A 
ATOM     14  F   UNL     1       6.478   3.200  14.930  0.00  0.00    +0.000 F 
ATOM     15  C   UNL     1       5.827   5.440  15.298  0.00  0.00    +0.000 A 
ATOM     16  C   UNL     1       5.049   6.361  16.010  0.00  0.00    +0.000 A 
ENDBRANCH   6  10
BRANCH   7  17
ATOM     17  C   UNL     1       2.119   5.454  19.538  0.00  0.00    +0.000 A 
ATOM     18  C   UNL     1       2.637   5.188  20.804  0.00  0.00    +0.000 A 
ATOM     19  C   UNL     1       2.285   4.012  21.448  0.00  0.00    +0.000 A 
ATOM     20  N   UNL     1       1.531   3.051  20.889  0.00  0.00    +0.000 NA
ATOM     21  C   UNL     1       1.065   3.297  19.651  0.00  0.00    +0.000 A 
ATOM     22  C   UNL     1       1.287   4.482  18.970  0.00  0.00    +0.000 A 
ENDBRANCH   7  17
BRANCH   1  23
ATOM     23  N   UNL     1      -0.360  10.131  20.956  0.00  0.00    +0.000 N 
ATOM     24  H   UNL     1      -0.409  11.147  20.936  0.00  0.00    +0.000 HD
BRANCH  23  25
ATOM     25  C   UNL     1      -0.400   9.623  22.330  0.00  0.00    +0.000 C 
BRANCH  25  26
ATOM     26  C   UNL     1      -1.076  10.643  23.247  0.00  0.00    +0.000 C 
BRANCH  26  27
ATOM     27  C   UNL     1      -0.908  12.067  22.707  0.00  0.00    +0.000 C 
BRANCH  27  28
ATOM     28  C   UNL     1      -2.010  12.997  23.217  0.00  0.00    +0.000 C 
BRANCH  28  29
ATOM     29  C   UNL     1      -3.297  12.227  23.510  0.00  0.00    +0.000 C 
BRANCH  29  30
ATOM     30  C   UNL     1      -4.259  13.051  24.355  0.00  0.00    +0.000 C 
BRANCH  30  31
ATOM     31  O   UNL     1      -3.518  14.014  25.089  0.00  0.00    +0.000 OA
ATOM     32  H   UNL     1      -3.760  14.889  24.738  0.00  0.00    +0.000 HD
ENDBRANCH  30  31
ENDBRANCH  29  30
ENDBRANCH  28  29
ENDBRANCH  27  28
ENDBRANCH  26  27
ENDBRANCH  25  26
ENDBRANCH  23  25
ENDBRANCH   1  23
TORSDOF 10
ENDMDL
