MODEL 1
REMARK VINA RESULT:      -6.4      0.000      0.000
REMARK  Name = 
REMARK  4 active torsions:
REMARK  status: ('A' for Active; 'I' for Inactive)
REMARK    1  A    between atoms: C_1  and  N_2
REMARK    2  A    between atoms: C_6  and  C_7
REMARK    3  A    between atoms: C_13  and  C_14
REMARK    4  A    between atoms: C_16  and  C_17
REMARK                            x       y       z     vdW  Elec       q    Type
REMARK                         _______ _______ _______ _____ _____    ______ ____
ROOT
ATOM      1  C   UNL     1      -0.976  12.225  18.244  0.00  0.00    +0.000 C 
ATOM      2  O   UNL     1      -0.637  13.375  17.963  0.00  0.00    +0.000 OA
ATOM      3  N   UNL     1      -0.060  11.338  18.795  0.00  0.00    +0.000 N 
ATOM      4  C   UNL     1       1.356  11.649  18.831  0.00  0.00    +0.000 C 
ATOM      5  C   UNL     1       1.994  10.283  18.997  0.00  0.00    +0.000 C 
ATOM      6  C   UNL     1       1.946   9.431  17.737  0.00  0.00    +0.000 C 
ATOM      7  C   UNL     1       1.681   8.027  18.261  0.00  0.00    +0.000 C 
ATOM      8  O   UNL     1       1.101   8.157  19.576  0.00  0.00    +0.000 OA
ATOM      9  C   UNL     1       1.045   9.545  19.931  0.00  0.00    +0.000 C 
ATOM     10  C   UNL     1      -0.335  10.166  19.632  0.00  0.00    +0.000 C 
ENDROOT
BRANCH   1  16
ATOM     11  C   UNL     1      -3.418  12.591  20.074  0.00  0.00    +0.000 C 
ATOM     12  N   UNL     1      -3.410  11.892  18.807  0.00  0.00    +0.000 N 
ATOM     13  C   UNL     1      -4.518  11.300  18.256  0.00  0.00    +0.000 A 
ATOM     14  C   UNL     1      -4.179  10.827  17.013  0.00  0.00    +0.000 A 
ATOM     15  C   UNL     1      -2.816  11.138  16.818  0.00  0.00    +0.000 A 
ATOM     16  C   UNL     1      -2.315  11.730  17.973  0.00  0.00    +0.000 A 
ENDBRANCH   1  16
BRANCH   7  17
ATOM     17  C   UNL     1       2.965   7.248  18.352  0.00  0.00    +0.000 A 
ATOM     18  N   UNL     1       4.027   7.447  17.596  0.00  0.00    +0.000 NA
ATOM     19  C   UNL     1       4.928   6.419  17.777  0.00  0.00    +0.000 A 
ATOM     20  C   UNL     1       4.560   5.453  18.686  0.00  0.00    +0.000 A 
ATOM     21  S   UNL     1       3.042   5.854  19.368  0.00  0.00    +0.000 S 
BRANCH  19  22
ATOM     22  C   UNL     1       6.230   6.353  16.993  0.00  0.00    +0.000 C 
ATOM     23  C   UNL     1       7.356   7.283  17.399  0.00  0.00    +0.000 C 
ATOM     24  C   UNL     1       7.457   5.829  17.711  0.00  0.00    +0.000 C 
ENDBRANCH  19  22
ENDBRANCH   7  17
TORSDOF 3
ENDMDL
MODEL 2
REMARK VINA RESULT:      -6.3      5.776      7.685
REMARK  Name = 
REMARK  4 active torsions:
REMARK  status: ('A' for Active; 'I' for Inactive)
REMARK    1  A    between atoms: C_1  and  N_2
REMARK    2  A    between atoms: C_6  and  C_7
REMARK    3  A    between atoms: C_13  and  C_14
REMARK    4  A    between atoms: C_16  and  C_17
REMARK                            x       y       z     vdW  Elec       q    Type
REMARK                         _______ _______ _______ _____ _____    ______ ____
ROOT
ATOM      1  C   UNL     1       2.662   5.788  19.835  0.00  0.00    +0.000 C 
ATOM      2  O   UNL     1       2.066   6.854  19.994  0.00  0.00    +0.000 OA
ATOM      3  N   UNL     1       3.764   5.718  18.992  0.00  0.00    +0.000 N 
ATOM      4  C   UNL     1       4.095   6.812  18.099  0.00  0.00    +0.000 C 
ATOM      5  C   UNL     1       4.967   6.141  17.056  0.00  0.00    +0.000 C 
ATOM      6  C   UNL     1       4.193   5.248  16.098  0.00  0.00    +0.000 C 
ATOM      7  C   UNL     1       5.122   4.063  15.878  0.00  0.00    +0.000 C 
ATOM      8  O   UNL     1       6.042   4.021  16.990  0.00  0.00    +0.000 OA
ATOM      9  C   UNL     1       5.787   5.137  17.854  0.00  0.00    +0.000 C 
ATOM     10  C   UNL     1       4.871   4.758  19.036  0.00  0.00    +0.000 C 
ENDROOT
BRANCH   1  16
ATOM     11  C   UNL     1       1.259   3.447  18.421  0.00  0.00    +0.000 C 
ATOM     12  N   UNL     1       1.583   3.510  19.829  0.00  0.00    +0.000 N 
ATOM     13  C   UNL     1       1.301   2.507  20.722  0.00  0.00    +0.000 A 
ATOM     14  C   UNL     1       1.839   2.850  21.938  0.00  0.00    +0.000 A 
ATOM     15  C   UNL     1       2.454   4.109  21.769  0.00  0.00    +0.000 A 
ATOM     16  C   UNL     1       2.223   4.558  20.473  0.00  0.00    +0.000 A 
ENDBRANCH   1  16
BRANCH   7  17
ATOM     17  C   UNL     1       5.891   4.228  14.596  0.00  0.00    +0.000 A 
ATOM     18  N   UNL     1       5.679   3.538  13.492  0.00  0.00    +0.000 NA
ATOM     19  C   UNL     1       6.702   3.767  12.595  0.00  0.00    +0.000 A 
ATOM     20  C   UNL     1       7.676   4.647  13.009  0.00  0.00    +0.000 A 
ATOM     21  S   UNL     1       7.291   5.238  14.569  0.00  0.00    +0.000 S 
BRANCH  19  22
ATOM     22  C   UNL     1       6.752   3.063  11.248  0.00  0.00    +0.000 C 
ATOM     23  C   UNL     1       7.559   1.784  11.140  0.00  0.00    +0.000 C 
ATOM     24  C   UNL     1       6.070   1.715  11.133  0.00  0.00    +0.000 C 
ENDBRANCH  19  22
ENDBRANCH   7  17
TORSDOF 3
ENDMDL
MODEL 3
REMARK VINA RESULT:      -6.1      0.664      1.010
REMARK  Name = 
REMARK  4 active torsions:
REMARK  status: ('A' for Active; 'I' for Inactive)
REMARK    1  A    between atoms: C_1  and  N_2
REMARK    2  A    between atoms: C_6  and  C_7
REMARK    3  A    between atoms: C_13  and  C_14
REMARK    4  A    between atoms: C_16  and  C_17
REMARK                            x       y       z     vdW  Elec       q    Type
REMARK                         _______ _______ _______ _____ _____    ______ ____
ROOT
ATOM      1  C   UNL     1      -0.929  12.216  18.276  0.00  0.00    +0.000 C 
ATOM      2  O   UNL     1      -0.565  13.353  17.975  0.00  0.00    +0.000 OA
ATOM      3  N   UNL     1      -0.025  11.308  18.813  0.00  0.00    +0.000 N 
ATOM      4  C   UNL     1       1.400  11.579  18.809  0.00  0.00    +0.000 C 
ATOM      5  C   UNL     1       2.003  10.197  18.973  0.00  0.00    +0.000 C 
ATOM      6  C   UNL     1       1.898   9.335  17.724  0.00  0.00    +0.000 C 
ATOM      7  C   UNL     1       1.607   7.944  18.269  0.00  0.00    +0.000 C 
ATOM      8  O   UNL     1       1.065   8.103  19.597  0.00  0.00    +0.000 OA
ATOM      9  C   UNL     1       1.058   9.497  19.939  0.00  0.00    +0.000 C 
ATOM     10  C   UNL     1      -0.311  10.153  19.669  0.00  0.00    +0.000 C 
ENDROOT
BRANCH   1  16
ATOM     11  C   UNL     1      -3.309  12.661  20.170  0.00  0.00    +0.000 C 
ATOM     12  N   UNL     1      -3.355  11.955  18.908  0.00  0.00    +0.000 N 
ATOM     13  C   UNL     1      -4.494  11.390  18.391  0.00  0.00    +0.000 A 
ATOM     14  C   UNL     1      -4.202  10.901  17.142  0.00  0.00    +0.000 A 
ATOM     15  C   UNL     1      -2.837  11.173  16.908  0.00  0.00    +0.000 A 
ATOM     16  C   UNL     1      -2.289  11.757  18.045  0.00  0.00    +0.000 A 
ENDBRANCH   1  16
BRANCH   7  17
ATOM     17  C   UNL     1       2.870   7.130  18.336  0.00  0.00    +0.000 A 
ATOM     18  N   UNL     1       3.780   7.064  17.383  0.00  0.00    +0.000 NA
ATOM     19  C   UNL     1       4.678   6.056  17.664  0.00  0.00    +0.000 A 
ATOM     20  C   UNL     1       4.463   5.372  18.840  0.00  0.00    +0.000 A 
ATOM     21  S   UNL     1       3.103   6.029  19.646  0.00  0.00    +0.000 S 
BRANCH  19  22
ATOM     22  C   UNL     1       5.814   5.712  16.713  0.00  0.00    +0.000 C 
ATOM     23  C   UNL     1       5.706   4.434  15.905  0.00  0.00    +0.000 C 
ATOM     24  C   UNL     1       5.521   5.748  15.227  0.00  0.00    +0.000 C 
ENDBRANCH  19  22
ENDBRANCH   7  17
TORSDOF 3
ENDMDL
MODEL 4
REMARK VINA RESULT:      -6.1      0.578      1.231
REMARK  Name = 
REMARK  4 active torsions:
REMARK  status: ('A' for Active; 'I' for Inactive)
REMARK    1  A    between atoms: C_1  and  N_2
REMARK    2  A    between atoms: C_6  and  C_7
REMARK    3  A    between atoms: C_13  and  C_14
REMARK    4  A    between atoms: C_16  and  C_17
REMARK                            x       y       z     vdW  Elec       q    Type
REMARK                         _______ _______ _______ _____ _____    ______ ____
ROOT
ATOM      1  C   UNL     1      -1.039  12.325  18.420  0.00  0.00    +0.000 C 
ATOM      2  O   UNL     1      -0.725  13.437  17.995  0.00  0.00    +0.000 OA
ATOM      3  N   UNL     1      -0.069  11.464  18.918  0.00  0.00    +0.000 N 
ATOM      4  C   UNL     1       1.343  11.739  18.734  0.00  0.00    +0.000 C 
ATOM      5  C   UNL     1       1.978  10.376  18.933  0.00  0.00    +0.000 C 
ATOM      6  C   UNL     1       1.744   9.421  17.772  0.00  0.00    +0.000 C 
ATOM      7  C   UNL     1       1.533   8.074  18.450  0.00  0.00    +0.000 C 
ATOM      8  O   UNL     1       1.141   8.332  19.815  0.00  0.00    +0.000 OA
ATOM      9  C   UNL     1       1.155   9.747  20.049  0.00  0.00    +0.000 C 
ATOM     10  C   UNL     1      -0.244  10.376  19.886  0.00  0.00    +0.000 C 
ENDROOT
BRANCH   1  16
ATOM     11  C   UNL     1      -2.090  10.086  16.594  0.00  0.00    +0.000 C 
ATOM     12  N   UNL     1      -2.878  10.839  17.546  0.00  0.00    +0.000 N 
ATOM     13  C   UNL     1      -4.218  10.635  17.757  0.00  0.00    +0.000 A 
ATOM     14  C   UNL     1      -4.617  11.440  18.795  0.00  0.00    +0.000 A 
ATOM     15  C   UNL     1      -3.477  12.159  19.213  0.00  0.00    +0.000 A 
ATOM     16  C   UNL     1      -2.410  11.844  18.378  0.00  0.00    +0.000 A 
ENDBRANCH   1  16
BRANCH   7  17
ATOM     17  C   UNL     1       2.806   7.272  18.435  0.00  0.00    +0.000 A 
ATOM     18  N   UNL     1       3.814   7.467  17.607  0.00  0.00    +0.000 NA
ATOM     19  C   UNL     1       4.707   6.420  17.705  0.00  0.00    +0.000 A 
ATOM     20  C   UNL     1       4.388   5.444  18.623  0.00  0.00    +0.000 A 
ATOM     21  S   UNL     1       2.930   5.859  19.419  0.00  0.00    +0.000 S 
BRANCH  19  22
ATOM     22  C   UNL     1       5.948   6.346  16.828  0.00  0.00    +0.000 C 
ATOM     23  C   UNL     1       7.229   6.964  17.351  0.00  0.00    +0.000 C 
ATOM     24  C   UNL     1       7.095   5.481  17.306  0.00  0.00    +0.000 C 
ENDBRANCH  19  22
ENDBRANCH   7  17
TORSDOF 3
ENDMDL
MODEL 5
REMARK VINA RESULT:      -5.8      2.358      8.634
REMARK  Name = 
REMARK  4 active torsions:
REMARK  status: ('A' for Active; 'I' for Inactive)
REMARK    1  A    between atoms: C_1  and  N_2
REMARK    2  A    between atoms: C_6  and  C_7
REMARK    3  A    between atoms: C_13  and  C_14
REMARK    4  A    between atoms: C_16  and  C_17
REMARK                            x       y       z     vdW  Elec       q    Type
REMARK                         _______ _______ _______ _____ _____    ______ ____
ROOT
ATOM      1  C   UNL     1       4.915   4.911  17.838  0.00  0.00    +0.000 C 
ATOM      2  O   UNL     1       4.830   4.089  16.925  0.00  0.00    +0.000 OA
ATOM      3  N   UNL     1       3.769   5.472  18.387  0.00  0.00    +0.000 N 
ATOM      4  C   UNL     1       2.474   5.299  17.756  0.00  0.00    +0.000 C 
ATOM      5  C   UNL     1       1.664   6.442  18.337  0.00  0.00    +0.000 C 
ATOM      6  C   UNL     1       2.047   7.804  17.778  0.00  0.00    +0.000 C 
ATOM      7  C   UNL     1       1.949   8.729  18.982  0.00  0.00    +0.000 C 
ATOM      8  O   UNL     1       2.048   7.911  20.167  0.00  0.00    +0.000 OA
ATOM      9  C   UNL     1       2.138   6.532  19.780  0.00  0.00    +0.000 C 
ATOM     10  C   UNL     1       3.598   6.038  19.728  0.00  0.00    +0.000 C 
ENDROOT
BRANCH   1  16
ATOM     11  C   UNL     1       6.403   7.439  16.919  0.00  0.00    +0.000 C 
ATOM     12  N   UNL     1       6.867   6.504  17.921  0.00  0.00    +0.000 N 
ATOM     13  C   UNL     1       8.050   6.640  18.601  0.00  0.00    +0.000 A 
ATOM     14  C   UNL     1       8.121   5.644  19.543  0.00  0.00    +0.000 A 
ATOM     15  C   UNL     1       6.942   4.879  19.415  0.00  0.00    +0.000 A 
ATOM     16  C   UNL     1       6.198   5.367  18.346  0.00  0.00    +0.000 A 
ENDBRANCH   1  16
BRANCH   7  17
ATOM     17  C   UNL     1       0.632   9.456  18.982  0.00  0.00    +0.000 A 
ATOM     18  N   UNL     1      -0.102   9.693  17.913  0.00  0.00    +0.000 NA
ATOM     19  C   UNL     1      -1.113  10.577  18.227  0.00  0.00    +0.000 A 
ATOM     20  C   UNL     1      -1.160  10.992  19.539  0.00  0.00    +0.000 A 
ATOM     21  S   UNL     1       0.089  10.229  20.427  0.00  0.00    +0.000 S 
BRANCH  19  22
ATOM     22  C   UNL     1      -2.092  11.076  17.175  0.00  0.00    +0.000 C 
ATOM     23  C   UNL     1      -3.171  10.126  16.695  0.00  0.00    +0.000 C 
ATOM     24  C   UNL     1      -3.537  11.261  17.590  0.00  0.00    +0.000 C 
ENDBRANCH  19  22
ENDBRANCH   7  17
TORSDOF 3
ENDMDL
MODEL 6
REMARK VINA RESULT:      -5.8      3.145      4.616
REMARK  Name = 
REMARK  4 active torsions:
REMARK  status: ('A' for Active; 'I' for Inactive)
REMARK    1  A    between atoms: C_1  and  N_2
REMARK    2  A    between atoms: C_6  and  C_7
REMARK    3  A    between atoms: C_13  and  C_14
REMARK    4  A    between atoms: C_16  and  C_17
REMARK                            x       y       z     vdW  Elec       q    Type
REMARK                         _______ _______ _______ _____ _____    ______ ____
ROOT
ATOM      1  C   UNL     1      -0.416  12.726  22.160  0.00  0.00    +0.000 C 
ATOM      2  O   UNL     1      -0.881  12.832  23.295  0.00  0.00    +0.000 OA
ATOM      3  N   UNL     1      -0.430  11.500  21.507  0.00  0.00    +0.000 N 
ATOM      4  C   UNL     1      -0.761  10.278  22.216  0.00  0.00    +0.000 C 
ATOM      5  C   UNL     1      -0.162   9.204  21.327  0.00  0.00    +0.000 C 
ATOM      6  C   UNL     1       1.356   9.139  21.390  0.00  0.00    +0.000 C 
ATOM      7  C   UNL     1       1.765   8.845  19.954  0.00  0.00    +0.000 C 
ATOM      8  O   UNL     1       0.672   9.248  19.101  0.00  0.00    +0.000 OA
ATOM      9  C   UNL     1      -0.413   9.714  19.915  0.00  0.00    +0.000 C 
ATOM     10  C   UNL     1      -0.409  11.249  20.063  0.00  0.00    +0.000 C 
ENDROOT
BRANCH   1  16
ATOM     11  C   UNL     1      -1.915  15.057  20.830  0.00  0.00    +0.000 C 
ATOM     12  N   UNL     1      -0.478  14.891  20.870  0.00  0.00    +0.000 N 
ATOM     13  C   UNL     1       0.408  15.776  20.311  0.00  0.00    +0.000 A 
ATOM     14  C   UNL     1       1.680  15.369  20.627  0.00  0.00    +0.000 A 
ATOM     15  C   UNL     1       1.551  14.191  21.393  0.00  0.00    +0.000 A 
ATOM     16  C   UNL     1       0.205  13.847  21.474  0.00  0.00    +0.000 A 
ENDBRANCH   1  16
BRANCH   7  17
ATOM     17  C   UNL     1       2.029   7.376  19.772  0.00  0.00    +0.000 A 
ATOM     18  N   UNL     1       1.745   6.440  20.657  0.00  0.00    +0.000 NA
ATOM     19  C   UNL     1       2.328   5.248  20.279  0.00  0.00    +0.000 A 
ATOM     20  C   UNL     1       3.035   5.274  19.097  0.00  0.00    +0.000 A 
ATOM     21  S   UNL     1       2.947   6.840  18.411  0.00  0.00    +0.000 S 
BRANCH  19  22
ATOM     22  C   UNL     1       2.215   3.998  21.138  0.00  0.00    +0.000 C 
ATOM     23  C   UNL     1       1.084   3.031  20.845  0.00  0.00    +0.000 C 
ATOM     24  C   UNL     1       2.480   2.663  20.474  0.00  0.00    +0.000 C 
ENDBRANCH  19  22
ENDBRANCH   7  17
TORSDOF 3
ENDMDL
MODEL 7
REMARK VINA RESULT:      -5.7      3.235      4.697
REMARK  Name = 
REMARK  4 active torsions:
REMARK  status: ('A' for Active; 'I' for Inactive)
REMARK    1  A    between atoms: C_1  and  N_2
REMARK    2  A    between atoms: C_6  and  C_7
REMARK    3  A    between atoms: C_13  and  C_14
REMARK    4  A    between atoms: C_16  and  C_17
REMARK                            x       y       z     vdW  Elec       q    Type
REMARK                         _______ _______ _______ _____ _____    ______ ____
ROOT
ATOM      1  C   UNL     1       0.376  13.046  20.897  0.00  0.00    +0.000 C 
ATOM      2  O   UNL     1      -0.276  13.380  21.887  0.00  0.00    +0.000 OA
ATOM      3  N   UNL     1       0.241  11.769  20.366  0.00  0.00    +0.000 N 
ATOM      4  C   UNL     1      -0.470  10.729  21.086  0.00  0.00    +0.000 C 
ATOM      5  C   UNL     1       0.061   9.459  20.450  0.00  0.00    +0.000 C 
ATOM      6  C   UNL     1       1.490   9.127  20.854  0.00  0.00    +0.000 C 
ATOM      7  C   UNL     1       2.109   8.581  19.575  0.00  0.00    +0.000 C 
ATOM      8  O   UNL     1       1.316   9.064  18.469  0.00  0.00    +0.000 OA
ATOM      9  C   UNL     1       0.210   9.821  18.979  0.00  0.00    +0.000 C 
ATOM     10  C   UNL     1       0.499  11.335  18.990  0.00  0.00    +0.000 C 
ENDROOT
BRANCH   1  16
ATOM     11  C   UNL     1      -0.303  15.322  18.946  0.00  0.00    +0.000 C 
ATOM     12  N   UNL     1       1.026  14.957  19.387  0.00  0.00    +0.000 N 
ATOM     13  C   UNL     1       2.168  15.600  18.983  0.00  0.00    +0.000 A 
ATOM     14  C   UNL     1       3.229  15.068  19.673  0.00  0.00    +0.000 A 
ATOM     15  C   UNL     1       2.704  14.063  20.513  0.00  0.00    +0.000 A 
ATOM     16  C   UNL     1       1.339  13.937  20.273  0.00  0.00    +0.000 A 
ENDBRANCH   1  16
BRANCH   7  17
ATOM     17  C   UNL     1       2.096   7.077  19.584  0.00  0.00    +0.000 A 
ATOM     18  N   UNL     1       1.861   6.328  20.645  0.00  0.00    +0.000 NA
ATOM     19  C   UNL     1       2.159   5.011  20.361  0.00  0.00    +0.000 A 
ATOM     20  C   UNL     1       2.596   4.758  19.080  0.00  0.00    +0.000 A 
ATOM     21  S   UNL     1       2.613   6.215  18.181  0.00  0.00    +0.000 S 
BRANCH  19  22
ATOM     22  C   UNL     1       2.033   3.921  21.414  0.00  0.00    +0.000 C 
ATOM     23  C   UNL     1       1.238   2.679  21.065  0.00  0.00    +0.000 C 
ATOM     24  C   UNL     1       2.725   2.601  21.145  0.00  0.00    +0.000 C 
ENDBRANCH  19  22
ENDBRANCH   7  17
TORSDOF 3
ENDMDL
MODEL 8
REMARK VINA RESULT:      -5.6      2.925      4.512
REMARK  Name = 
REMARK  4 active torsions:
REMARK  status: ('A' for Active; 'I' for Inactive)
REMARK    1  A    between atoms: C_1  and  N_2
REMARK    2  A    between atoms: C_6  and  C_7
REMARK    3  A    between atoms: C_13  and  C_14
REMARK    4  A    between atoms: C_16  and  C_17
REMARK                            x       y       z     vdW  Elec       q    Type
REMARK                         _______ _______ _______ _____ _____    ______ ____
ROOT
ATOM      1  C   UNL     1      -0.223  13.324  20.973  0.00  0.00    +0.000 C 
ATOM      2  O   UNL     1      -0.699  13.595  22.076  0.00  0.00    +0.000 OA
ATOM      3  N   UNL     1      -0.281  12.026  20.482  0.00  0.00    +0.000 N 
ATOM      4  C   UNL     1      -0.675  10.920  21.334  0.00  0.00    +0.000 C 
ATOM      5  C   UNL     1      -0.111   9.717  20.602  0.00  0.00    +0.000 C 
ATOM      6  C   UNL     1       1.403   9.599  20.702  0.00  0.00    +0.000 C 
ATOM      7  C   UNL     1       1.818   9.106  19.323  0.00  0.00    +0.000 C 
ATOM      8  O   UNL     1       0.755   9.441  18.405  0.00  0.00    +0.000 OA
ATOM      9  C   UNL     1      -0.320  10.052  19.132  0.00  0.00    +0.000 C 
ATOM     10  C   UNL     1      -0.252  11.592  19.082  0.00  0.00    +0.000 C 
ENDROOT
BRANCH   1  16
ATOM     11  C   UNL     1       2.823  13.624  20.692  0.00  0.00    +0.000 C 
ATOM     12  N   UNL     1       1.830  14.455  20.047  0.00  0.00    +0.000 N 
ATOM     13  C   UNL     1       2.136  15.497  19.209  0.00  0.00    +0.000 A 
ATOM     14  C   UNL     1       0.964  15.994  18.695  0.00  0.00    +0.000 A 
ATOM     15  C   UNL     1      -0.081  15.229  19.254  0.00  0.00    +0.000 A 
ATOM     16  C   UNL     1       0.455  14.322  20.162  0.00  0.00    +0.000 A 
ENDBRANCH   1  16
BRANCH   7  17
ATOM     17  C   UNL     1       2.021   7.616  19.335  0.00  0.00    +0.000 A 
ATOM     18  N   UNL     1       1.732   6.820  20.347  0.00  0.00    +0.000 NA
ATOM     19  C   UNL     1       2.257   5.566  20.119  0.00  0.00    +0.000 A 
ATOM     20  C   UNL     1       2.924   5.403  18.925  0.00  0.00    +0.000 A 
ATOM     21  S   UNL     1       2.871   6.864  18.034  0.00  0.00    +0.000 S 
BRANCH  19  22
ATOM     22  C   UNL     1       2.126   4.448  21.143  0.00  0.00    +0.000 C 
ATOM     23  C   UNL     1       1.203   3.289  20.821  0.00  0.00    +0.000 C 
ATOM     24  C   UNL     1       2.679   3.088  20.773  0.00  0.00    +0.000 C 
ENDBRANCH  19  22
ENDBRANCH   7  17
TORSDOF 3
ENDMDL
MODEL 9
REMARK VINA RESULT:      -5.6      2.639      4.306
REMARK  Name = 
REMARK  4 active torsions:
REMARK  status: ('A' for Active; 'I' for Inactive)
REMARK    1  A    between atoms: C_1  and  N_2
REMARK    2  A    between atoms: C_6  and  C_7
REMARK    3  A    between atoms: C_13  and  C_14
REMARK    4  A    between atoms: C_16  and  C_17
REMARK                            x       y       z     vdW  Elec       q    Type
REMARK                         _______ _______ _______ _____ _____    ______ ____
ROOT
ATOM      1  C   UNL     1      -3.267  13.134  20.477  0.00  0.00    +0.000 C 
ATOM      2  O   UNL     1      -4.437  12.987  20.121  0.00  0.00    +0.000 OA
ATOM      3  N   UNL     1      -2.237  12.527  19.771  0.00  0.00    +0.000 N 
ATOM      4  C   UNL     1      -2.511  11.523  18.760  0.00  0.00    +0.000 C 
ATOM      5  C   UNL     1      -1.187  10.792  18.647  0.00  0.00    +0.000 C 
ATOM      6  C   UNL     1      -0.886   9.891  19.835  0.00  0.00    +0.000 C 
ATOM      7  C   UNL     1       0.612  10.060  20.046  0.00  0.00    +0.000 C 
ATOM      8  O   UNL     1       0.999  11.306  19.430  0.00  0.00    +0.000 OA
ATOM      9  C   UNL     1      -0.146  11.893  18.796  0.00  0.00    +0.000 C 
ATOM     10  C   UNL     1      -0.833  12.942  19.694  0.00  0.00    +0.000 C 
ENDROOT
BRANCH   1  16
ATOM     11  C   UNL     1      -2.280  11.945  23.135  0.00  0.00    +0.000 C 
ATOM     12  N   UNL     1      -2.477  13.352  22.861  0.00  0.00    +0.000 N 
ATOM     13  C   UNL     1      -2.235  14.348  23.773  0.00  0.00    +0.000 A 
ATOM     14  C   UNL     1      -2.422  15.557  23.150  0.00  0.00    +0.000 A 
ATOM     15  C   UNL     1      -2.800  15.274  21.820  0.00  0.00    +0.000 A 
ATOM     16  C   UNL     1      -2.914  13.896  21.663  0.00  0.00    +0.000 A 
ENDBRANCH   1  16
BRANCH   7  17
ATOM     17  C   UNL     1       1.365   8.927  19.405  0.00  0.00    +0.000 A 
ATOM     18  N   UNL     1       1.676   7.791  20.000  0.00  0.00    +0.000 NA
ATOM     19  C   UNL     1       2.562   7.081  19.217  0.00  0.00    +0.000 A 
ATOM     20  C   UNL     1       2.904   7.666  18.019  0.00  0.00    +0.000 A 
ATOM     21  S   UNL     1       2.068   9.150  17.844  0.00  0.00    +0.000 S 
BRANCH  19  22
ATOM     22  C   UNL     1       3.139   5.750  19.673  0.00  0.00    +0.000 C 
ATOM     23  C   UNL     1       2.297   4.882  20.588  0.00  0.00    +0.000 C 
ATOM     24  C   UNL     1       2.478   4.486  19.163  0.00  0.00    +0.000 C 
ENDBRANCH  19  22
ENDBRANCH   7  17
TORSDOF 3
ENDMDL
