MODEL 1
REMARK VINA RESULT:      -6.8      0.000      0.000
REMARK  Name = 
REMARK  8 active torsions:
REMARK  status: ('A' for Active; 'I' for Inactive)
REMARK    1  A    between atoms: C_2  and  C_3
REMARK    2  A    between atoms: C_3  and  S_4
REMARK    3  A    between atoms: S_4  and  C_5
REMARK    4  A    between atoms: C_8  and  C_9
REMARK    5  A    between atoms: C_12  and  O_13
REMARK    6  A    between atoms: O_13  and  C_14
REMARK    7  A    between atoms: N_19  and  C_20
REMARK    8  A    between atoms: C_20  and  C_21
REMARK                            x       y       z     vdW  Elec       q    Type
REMARK                         _______ _______ _______ _____ _____    ______ ____
ROOT
ATOM      1  C   UNL     1       4.183   4.829  18.450  0.00  0.00    +0.000 C 
ATOM      2  N   UNL     1       3.380   5.786  18.807  0.00  0.00    +0.000 NA
ATOM      3  C   UNL     1       3.537   6.733  17.820  0.00  0.00    +0.000 C 
ATOM      4  C   UNL     1       2.931   7.925  17.721  0.00  0.00    +0.000 C 
ATOM      5  C   UNL     1       4.529   6.250  16.811  0.00  0.00    +0.000 C 
ATOM      6  O   UNL     1       4.888   6.820  15.800  0.00  0.00    +0.000 OA
ATOM      7  N   UNL     1       4.890   5.027  17.305  0.00  0.00    +0.000 N 
ENDROOT
BRANCH   4   8
ATOM      8  C   UNL     1       2.007   8.447  18.725  0.00  0.00    +0.000 A 
ATOM      9  C   UNL     1       2.018   7.921  20.021  0.00  0.00    +0.000 A 
ATOM     10  C   UNL     1       1.141   8.415  20.988  0.00  0.00    +0.000 A 
ATOM     11  C   UNL     1       0.263   9.455  20.679  0.00  0.00    +0.000 A 
ATOM     12  C   UNL     1       0.236   9.971  19.382  0.00  0.00    +0.000 A 
ATOM     13  C   UNL     1       1.107   9.469  18.409  0.00  0.00    +0.000 A 
BRANCH  11  14
ATOM     14  O   UNL     1      -0.549   9.859  21.703  0.00  0.00    +0.000 OA
ATOM     15  C   UNL     1      -0.203   9.353  22.988  0.00  0.00    +0.000 C 
ENDBRANCH  11  14
ENDBRANCH   4   8
BRANCH   1  16
ATOM     16  S   UNL     1       4.398   3.368  19.356  0.00  0.00    +0.000 S 
BRANCH  16  17
ATOM     17  C   UNL     1       3.140   2.306  18.606  0.00  0.00    +0.000 C 
BRANCH  17  19
ATOM     18  C   UNL     1       0.632   2.448  18.793  0.00  0.00    +0.000 C 
ATOM     19  C   UNL     1       1.848   2.478  19.357  0.00  0.00    +0.000 C 
ENDBRANCH  17  19
ENDBRANCH  16  17
ENDBRANCH   1  16
BRANCH   7  20
ATOM     20  C   UNL     1       5.760   4.099  16.604  0.00  0.00    +0.000 C 
BRANCH  20  21
ATOM     21  C   UNL     1       7.200   4.517  16.713  0.00  0.00    +0.000 C 
ATOM     22  C   UNL     1       7.876   4.611  17.868  0.00  0.00    +0.000 C 
ENDBRANCH  20  21
ENDBRANCH   7  20
TORSDOF 7
ENDMDL
MODEL 2
REMARK VINA RESULT:      -6.7      0.970      1.347
REMARK  Name = 
REMARK  8 active torsions:
REMARK  status: ('A' for Active; 'I' for Inactive)
REMARK    1  A    between atoms: C_2  and  C_3
REMARK    2  A    between atoms: C_3  and  S_4
REMARK    3  A    between atoms: S_4  and  C_5
REMARK    4  A    between atoms: C_8  and  C_9
REMARK    5  A    between atoms: C_12  and  O_13
REMARK    6  A    between atoms: O_13  and  C_14
REMARK    7  A    between atoms: N_19  and  C_20
REMARK    8  A    between atoms: C_20  and  C_21
REMARK                            x       y       z     vdW  Elec       q    Type
REMARK                         _______ _______ _______ _____ _____    ______ ____
ROOT
ATOM      1  C   UNL     1       4.196   4.837  18.239  0.00  0.00    +0.000 C 
ATOM      2  N   UNL     1       3.394   5.798  18.586  0.00  0.00    +0.000 NA
ATOM      3  C   UNL     1       3.681   6.805  17.692  0.00  0.00    +0.000 C 
ATOM      4  C   UNL     1       3.129   8.025  17.622  0.00  0.00    +0.000 C 
ATOM      5  C   UNL     1       4.753   6.355  16.751  0.00  0.00    +0.000 C 
ATOM      6  O   UNL     1       5.231   6.980  15.825  0.00  0.00    +0.000 OA
ATOM      7  N   UNL     1       5.022   5.087  17.186  0.00  0.00    +0.000 N 
ENDROOT
BRANCH   4   8
ATOM      8  C   UNL     1       2.127   8.513  18.567  0.00  0.00    +0.000 A 
ATOM      9  C   UNL     1       2.067   7.973  19.856  0.00  0.00    +0.000 A 
ATOM     10  C   UNL     1       1.115   8.435  20.767  0.00  0.00    +0.000 A 
ATOM     11  C   UNL     1       0.231   9.455  20.409  0.00  0.00    +0.000 A 
ATOM     12  C   UNL     1       0.277   9.984  19.118  0.00  0.00    +0.000 A 
ATOM     13  C   UNL     1       1.224   9.514  18.200  0.00  0.00    +0.000 A 
BRANCH  11  14
ATOM     14  O   UNL     1      -0.657   9.827  21.381  0.00  0.00    +0.000 OA
ATOM     15  C   UNL     1      -0.378   9.324  22.683  0.00  0.00    +0.000 C 
ENDBRANCH  11  14
ENDBRANCH   4   8
BRANCH   1  16
ATOM     16  S   UNL     1       4.269   3.308  19.050  0.00  0.00    +0.000 S 
BRANCH  16  17
ATOM     17  C   UNL     1       2.530   3.057  19.477  0.00  0.00    +0.000 C 
BRANCH  17  19
ATOM     18  C   UNL     1       1.575   2.601  21.763  0.00  0.00    +0.000 C 
ATOM     19  C   UNL     1       2.346   3.331  20.946  0.00  0.00    +0.000 C 
ENDBRANCH  17  19
ENDBRANCH  16  17
ENDBRANCH   1  16
BRANCH   7  20
ATOM     20  C   UNL     1       5.926   4.175  16.506  0.00  0.00    +0.000 C 
BRANCH  20  21
ATOM     21  C   UNL     1       5.468   3.906  15.101  0.00  0.00    +0.000 C 
ATOM     22  C   UNL     1       6.251   4.006  14.016  0.00  0.00    +0.000 C 
ENDBRANCH  20  21
ENDBRANCH   7  20
TORSDOF 7
ENDMDL
MODEL 3
REMARK VINA RESULT:      -6.7      0.790      1.556
REMARK  Name = 
REMARK  8 active torsions:
REMARK  status: ('A' for Active; 'I' for Inactive)
REMARK    1  A    between atoms: C_2  and  C_3
REMARK    2  A    between atoms: C_3  and  S_4
REMARK    3  A    between atoms: S_4  and  C_5
REMARK    4  A    between atoms: C_8  and  C_9
REMARK    5  A    between atoms: C_12  and  O_13
REMARK    6  A    between atoms: O_13  and  C_14
REMARK    7  A    between atoms: N_19  and  C_20
REMARK    8  A    between atoms: C_20  and  C_21
REMARK                            x       y       z     vdW  Elec       q    Type
REMARK                         _______ _______ _______ _____ _____    ______ ____
ROOT
ATOM      1  C   UNL     1       4.153   4.724  18.263  0.00  0.00    +0.000 C 
ATOM      2  N   UNL     1       3.372   5.679  18.670  0.00  0.00    +0.000 NA
ATOM      3  C   UNL     1       3.635   6.713  17.800  0.00  0.00    +0.000 C 
ATOM      4  C   UNL     1       3.090   7.938  17.790  0.00  0.00    +0.000 C 
ATOM      5  C   UNL     1       4.668   6.287  16.807  0.00  0.00    +0.000 C 
ATOM      6  O   UNL     1       5.118   6.938  15.886  0.00  0.00    +0.000 OA
ATOM      7  N   UNL     1       4.942   5.003  17.190  0.00  0.00    +0.000 N 
ENDROOT
BRANCH   4   8
ATOM      8  C   UNL     1       2.126   8.402  18.786  0.00  0.00    +0.000 A 
ATOM      9  C   UNL     1       1.287   9.482  18.491  0.00  0.00    +0.000 A 
ATOM     10  C   UNL     1       0.362   9.930  19.435  0.00  0.00    +0.000 A 
ATOM     11  C   UNL     1       0.247   9.292  20.671  0.00  0.00    +0.000 A 
ATOM     12  C   UNL     1       1.095   8.225  20.975  0.00  0.00    +0.000 A 
ATOM     13  C   UNL     1       2.030   7.781  20.035  0.00  0.00    +0.000 A 
BRANCH  11  14
ATOM     14  O   UNL     1      -0.693   9.816  21.515  0.00  0.00    +0.000 OA
ATOM     15  C   UNL     1      -0.378   9.734  22.901  0.00  0.00    +0.000 C 
ENDBRANCH  11  14
ENDBRANCH   4   8
BRANCH   1  16
ATOM     16  S   UNL     1       4.242   3.168  19.020  0.00  0.00    +0.000 S 
BRANCH  16  17
ATOM     17  C   UNL     1       2.925   3.304  20.252  0.00  0.00    +0.000 C 
BRANCH  17  19
ATOM     18  C   UNL     1       0.995   2.582  18.803  0.00  0.00    +0.000 C 
ATOM     19  C   UNL     1       1.797   2.389  19.860  0.00  0.00    +0.000 C 
ENDBRANCH  17  19
ENDBRANCH  16  17
ENDBRANCH   1  16
BRANCH   7  20
ATOM     20  C   UNL     1       5.814   4.108  16.448  0.00  0.00    +0.000 C 
BRANCH  20  21
ATOM     21  C   UNL     1       5.359   3.966  15.023  0.00  0.00    +0.000 C 
ATOM     22  C   UNL     1       6.177   3.988  13.960  0.00  0.00    +0.000 C 
ENDBRANCH  20  21
ENDBRANCH   7  20
TORSDOF 7
ENDMDL
MODEL 4
REMARK VINA RESULT:      -6.6      0.845      1.502
REMARK  Name = 
REMARK  8 active torsions:
REMARK  status: ('A' for Active; 'I' for Inactive)
REMARK    1  A    between atoms: C_2  and  C_3
REMARK    2  A    between atoms: C_3  and  S_4
REMARK    3  A    between atoms: S_4  and  C_5
REMARK    4  A    between atoms: C_8  and  C_9
REMARK    5  A    between atoms: C_12  and  O_13
REMARK    6  A    between atoms: O_13  and  C_14
REMARK    7  A    between atoms: N_19  and  C_20
REMARK    8  A    between atoms: C_20  and  C_21
REMARK                            x       y       z     vdW  Elec       q    Type
REMARK                         _______ _______ _______ _____ _____    ______ ____
ROOT
ATOM      1  C   UNL     1       3.893   4.823  18.360  0.00  0.00    +0.000 C 
ATOM      2  N   UNL     1       3.171   5.854  18.681  0.00  0.00    +0.000 NA
ATOM      3  C   UNL     1       3.530   6.808  17.755  0.00  0.00    +0.000 C 
ATOM      4  C   UNL     1       3.075   8.065  17.650  0.00  0.00    +0.000 C 
ATOM      5  C   UNL     1       4.558   6.247  16.825  0.00  0.00    +0.000 C 
ATOM      6  O   UNL     1       5.077   6.804  15.878  0.00  0.00    +0.000 OA
ATOM      7  N   UNL     1       4.729   4.975  17.297  0.00  0.00    +0.000 N 
ENDROOT
BRANCH   4   8
ATOM      8  C   UNL     1       2.120   8.658  18.584  0.00  0.00    +0.000 A 
ATOM      9  C   UNL     1       1.440   9.829  18.231  0.00  0.00    +0.000 A 
ATOM     10  C   UNL     1       0.524  10.402  19.115  0.00  0.00    +0.000 A 
ATOM     11  C   UNL     1       0.260   9.801  20.347  0.00  0.00    +0.000 A 
ATOM     12  C   UNL     1       0.949   8.642  20.709  0.00  0.00    +0.000 A 
ATOM     13  C   UNL     1       1.875   8.073  19.829  0.00  0.00    +0.000 A 
BRANCH  11  14
ATOM     14  O   UNL     1      -0.655  10.450  21.130  0.00  0.00    +0.000 OA
ATOM     15  C   UNL     1      -1.267  11.588  20.533  0.00  0.00    +0.000 C 
ENDBRANCH  11  14
ENDBRANCH   4   8
BRANCH   1  16
ATOM     16  S   UNL     1       3.852   3.318  19.218  0.00  0.00    +0.000 S 
BRANCH  16  17
ATOM     17  C   UNL     1       2.112   2.859  19.031  0.00  0.00    +0.000 C 
BRANCH  17  19
ATOM     18  C   UNL     1       1.734   2.911  21.521  0.00  0.00    +0.000 C 
ATOM     19  C   UNL     1       1.369   3.255  20.277  0.00  0.00    +0.000 C 
ENDBRANCH  17  19
ENDBRANCH  16  17
ENDBRANCH   1  16
BRANCH   7  20
ATOM     20  C   UNL     1       5.555   3.976  16.642  0.00  0.00    +0.000 C 
BRANCH  20  21
ATOM     21  C   UNL     1       7.006   4.363  16.679  0.00  0.00    +0.000 C 
ATOM     22  C   UNL     1       7.689   4.642  17.799  0.00  0.00    +0.000 C 
ENDBRANCH  20  21
ENDBRANCH   7  20
TORSDOF 7
ENDMDL
MODEL 5
REMARK VINA RESULT:      -6.6      1.380      2.007
REMARK  Name = 
REMARK  8 active torsions:
REMARK  status: ('A' for Active; 'I' for Inactive)
REMARK    1  A    between atoms: C_2  and  C_3
REMARK    2  A    between atoms: C_3  and  S_4
REMARK    3  A    between atoms: S_4  and  C_5
REMARK    4  A    between atoms: C_8  and  C_9
REMARK    5  A    between atoms: C_12  and  O_13
REMARK    6  A    between atoms: O_13  and  C_14
REMARK    7  A    between atoms: N_19  and  C_20
REMARK    8  A    between atoms: C_20  and  C_21
REMARK                            x       y       z     vdW  Elec       q    Type
REMARK                         _______ _______ _______ _____ _____    ______ ____
ROOT
ATOM      1  C   UNL     1       3.300   4.643  17.544  0.00  0.00    +0.000 C 
ATOM      2  N   UNL     1       2.679   5.712  17.941  0.00  0.00    +0.000 NA
ATOM      3  C   UNL     1       3.526   6.737  17.581  0.00  0.00    +0.000 C 
ATOM      4  C   UNL     1       3.352   8.053  17.773  0.00  0.00    +0.000 C 
ATOM      5  C   UNL     1       4.742   6.178  16.915  0.00  0.00    +0.000 C 
ATOM      6  O   UNL     1       5.679   6.796  16.453  0.00  0.00    +0.000 OA
ATOM      7  N   UNL     1       4.508   4.830  16.945  0.00  0.00    +0.000 N 
ENDROOT
BRANCH   4   8
ATOM      8  C   UNL     1       2.204   8.622  18.477  0.00  0.00    +0.000 A 
ATOM      9  C   UNL     1       1.341   9.495  17.806  0.00  0.00    +0.000 A 
ATOM     10  C   UNL     1       0.241  10.042  18.470  0.00  0.00    +0.000 A 
ATOM     11  C   UNL     1      -0.022   9.704  19.798  0.00  0.00    +0.000 A 
ATOM     12  C   UNL     1       0.847   8.847  20.475  0.00  0.00    +0.000 A 
ATOM     13  C   UNL     1       1.956   8.307  19.815  0.00  0.00    +0.000 A 
BRANCH  11  14
ATOM     14  O   UNL     1      -1.126  10.299  20.345  0.00  0.00    +0.000 OA
ATOM     15  C   UNL     1      -1.364  11.639  19.928  0.00  0.00    +0.000 C 
ENDBRANCH  11  14
ENDBRANCH   4   8
BRANCH   1  16
ATOM     16  S   UNL     1       2.683   3.039  17.759  0.00  0.00    +0.000 S 
BRANCH  16  17
ATOM     17  C   UNL     1       2.973   2.788  19.526  0.00  0.00    +0.000 C 
BRANCH  17  19
ATOM     18  C   UNL     1       1.488   2.672  21.557  0.00  0.00    +0.000 C 
ATOM     19  C   UNL     1       1.672   2.962  20.262  0.00  0.00    +0.000 C 
ENDBRANCH  17  19
ENDBRANCH  16  17
ENDBRANCH   1  16
BRANCH   7  20
ATOM     20  C   UNL     1       5.363   3.849  16.300  0.00  0.00    +0.000 C 
BRANCH  20  21
ATOM     21  C   UNL     1       5.370   4.032  14.809  0.00  0.00    +0.000 C 
ATOM     22  C   UNL     1       6.467   4.288  14.081  0.00  0.00    +0.000 C 
ENDBRANCH  20  21
ENDBRANCH   7  20
TORSDOF 7
ENDMDL
MODEL 6
REMARK VINA RESULT:      -6.6      1.915      2.638
REMARK  Name = 
REMARK  8 active torsions:
REMARK  status: ('A' for Active; 'I' for Inactive)
REMARK    1  A    between atoms: C_2  and  C_3
REMARK    2  A    between atoms: C_3  and  S_4
REMARK    3  A    between atoms: S_4  and  C_5
REMARK    4  A    between atoms: C_8  and  C_9
REMARK    5  A    between atoms: C_12  and  O_13
REMARK    6  A    between atoms: O_13  and  C_14
REMARK    7  A    between atoms: N_19  and  C_20
REMARK    8  A    between atoms: C_20  and  C_21
REMARK                            x       y       z     vdW  Elec       q    Type
REMARK                         _______ _______ _______ _____ _____    ______ ____
ROOT
ATOM      1  C   UNL     1       2.670   6.064  19.612  0.00  0.00    +0.000 C 
ATOM      2  N   UNL     1       1.918   7.115  19.474  0.00  0.00    +0.000 NA
ATOM      3  C   UNL     1       2.459   7.767  18.389  0.00  0.00    +0.000 C 
ATOM      4  C   UNL     1       2.052   8.917  17.833  0.00  0.00    +0.000 C 
ATOM      5  C   UNL     1       3.632   6.997  17.871  0.00  0.00    +0.000 C 
ATOM      6  O   UNL     1       4.327   7.269  16.913  0.00  0.00    +0.000 OA
ATOM      7  N   UNL     1       3.691   5.929  18.723  0.00  0.00    +0.000 N 
ENDROOT
BRANCH   4   8
ATOM      8  C   UNL     1       0.951   9.722  18.358  0.00  0.00    +0.000 A 
ATOM      9  C   UNL     1      -0.311   9.647  17.758  0.00  0.00    +0.000 A 
ATOM     10  C   UNL     1      -1.370  10.410  18.254  0.00  0.00    +0.000 A 
ATOM     11  C   UNL     1      -1.187  11.235  19.365  0.00  0.00    +0.000 A 
ATOM     12  C   UNL     1       0.075  11.325  19.955  0.00  0.00    +0.000 A 
ATOM     13  C   UNL     1       1.140  10.570  19.452  0.00  0.00    +0.000 A 
BRANCH  11  14
ATOM     14  O   UNL     1      -2.294  11.934  19.762  0.00  0.00    +0.000 OA
ATOM     15  C   UNL     1      -2.038  13.238  20.272  0.00  0.00    +0.000 C 
ENDBRANCH  11  14
ENDBRANCH   4   8
BRANCH   1  16
ATOM     16  S   UNL     1       2.444   4.879  20.855  0.00  0.00    +0.000 S 
BRANCH  16  17
ATOM     17  C   UNL     1       0.864   4.151  20.360  0.00  0.00    +0.000 C 
BRANCH  17  19
ATOM     18  C   UNL     1       1.107   2.331  18.636  0.00  0.00    +0.000 C 
ATOM     19  C   UNL     1       1.101   2.734  19.914  0.00  0.00    +0.000 C 
ENDBRANCH  17  19
ENDBRANCH  16  17
ENDBRANCH   1  16
BRANCH   7  20
ATOM     20  C   UNL     1       4.607   4.814  18.556  0.00  0.00    +0.000 C 
BRANCH  20  21
ATOM     21  C   UNL     1       4.230   3.975  17.368  0.00  0.00    +0.000 C 
ATOM     22  C   UNL     1       4.953   3.887  16.242  0.00  0.00    +0.000 C 
ENDBRANCH  20  21
ENDBRANCH   7  20
TORSDOF 7
ENDMDL
MODEL 7
REMARK VINA RESULT:      -6.6      1.441      1.658
REMARK  Name = 
REMARK  8 active torsions:
REMARK  status: ('A' for Active; 'I' for Inactive)
REMARK    1  A    between atoms: C_2  and  C_3
REMARK    2  A    between atoms: C_3  and  S_4
REMARK    3  A    between atoms: S_4  and  C_5
REMARK    4  A    between atoms: C_8  and  C_9
REMARK    5  A    between atoms: C_12  and  O_13
REMARK    6  A    between atoms: O_13  and  C_14
REMARK    7  A    between atoms: N_19  and  C_20
REMARK    8  A    between atoms: C_20  and  C_21
REMARK                            x       y       z     vdW  Elec       q    Type
REMARK                         _______ _______ _______ _____ _____    ______ ____
ROOT
ATOM      1  C   UNL     1       3.005   4.758  17.851  0.00  0.00    +0.000 C 
ATOM      2  N   UNL     1       2.396   5.857  18.183  0.00  0.00    +0.000 NA
ATOM      3  C   UNL     1       3.255   6.849  17.764  0.00  0.00    +0.000 C 
ATOM      4  C   UNL     1       3.096   8.175  17.877  0.00  0.00    +0.000 C 
ATOM      5  C   UNL     1       4.464   6.236  17.134  0.00  0.00    +0.000 C 
ATOM      6  O   UNL     1       5.409   6.815  16.636  0.00  0.00    +0.000 OA
ATOM      7  N   UNL     1       4.215   4.896  17.244  0.00  0.00    +0.000 N 
ENDROOT
BRANCH   4   8
ATOM      8  C   UNL     1       1.955   8.798  18.545  0.00  0.00    +0.000 A 
ATOM      9  C   UNL     1       1.767   8.611  19.918  0.00  0.00    +0.000 A 
ATOM     10  C   UNL     1       0.683   9.204  20.566  0.00  0.00    +0.000 A 
ATOM     11  C   UNL     1      -0.210  10.009  19.856  0.00  0.00    +0.000 A 
ATOM     12  C   UNL     1      -0.036  10.184  18.482  0.00  0.00    +0.000 A 
ATOM     13  C   UNL     1       1.045   9.581  17.830  0.00  0.00    +0.000 A 
BRANCH  11  14
ATOM     14  O   UNL     1      -1.234  10.538  20.593  0.00  0.00    +0.000 OA
ATOM     15  C   UNL     1      -0.856  11.091  21.849  0.00  0.00    +0.000 C 
ENDBRANCH  11  14
ENDBRANCH   4   8
BRANCH   1  16
ATOM     16  S   UNL     1       2.369   3.177  18.161  0.00  0.00    +0.000 S 
BRANCH  16  17
ATOM     17  C   UNL     1       1.028   3.561  19.311  0.00  0.00    +0.000 C 
BRANCH  17  19
ATOM     18  C   UNL     1       1.518   2.608  21.591  0.00  0.00    +0.000 C 
ATOM     19  C   UNL     1       1.585   3.614  20.708  0.00  0.00    +0.000 C 
ENDBRANCH  17  19
ENDBRANCH  16  17
ENDBRANCH   1  16
BRANCH   7  20
ATOM     20  C   UNL     1       5.059   3.868  16.660  0.00  0.00    +0.000 C 
BRANCH  20  21
ATOM     21  C   UNL     1       5.217   4.073  15.179  0.00  0.00    +0.000 C 
ATOM     22  C   UNL     1       6.397   4.118  14.542  0.00  0.00    +0.000 C 
ENDBRANCH  20  21
ENDBRANCH   7  20
TORSDOF 7
ENDMDL
MODEL 8
REMARK VINA RESULT:      -6.6      1.735      2.479
REMARK  Name = 
REMARK  8 active torsions:
REMARK  status: ('A' for Active; 'I' for Inactive)
REMARK    1  A    between atoms: C_2  and  C_3
REMARK    2  A    between atoms: C_3  and  S_4
REMARK    3  A    between atoms: S_4  and  C_5
REMARK    4  A    between atoms: C_8  and  C_9
REMARK    5  A    between atoms: C_12  and  O_13
REMARK    6  A    between atoms: O_13  and  C_14
REMARK    7  A    between atoms: N_19  and  C_20
REMARK    8  A    between atoms: C_20  and  C_21
REMARK                            x       y       z     vdW  Elec       q    Type
REMARK                         _______ _______ _______ _____ _____    ______ ____
ROOT
ATOM      1  C   UNL     1       2.791   5.837  19.517  0.00  0.00    +0.000 C 
ATOM      2  N   UNL     1       2.038   6.886  19.381  0.00  0.00    +0.000 NA
ATOM      3  C   UNL     1       2.593   7.555  18.314  0.00  0.00    +0.000 C 
ATOM      4  C   UNL     1       2.190   8.712  17.768  0.00  0.00    +0.000 C 
ATOM      5  C   UNL     1       3.777   6.797  17.803  0.00  0.00    +0.000 C 
ATOM      6  O   UNL     1       4.486   7.086  16.860  0.00  0.00    +0.000 OA
ATOM      7  N   UNL     1       3.827   5.717  18.641  0.00  0.00    +0.000 N 
ENDROOT
BRANCH   4   8
ATOM      8  C   UNL     1       1.078   9.505  18.286  0.00  0.00    +0.000 A 
ATOM      9  C   UNL     1      -0.120   9.574  17.567  0.00  0.00    +0.000 A 
ATOM     10  C   UNL     1      -1.190  10.327  18.056  0.00  0.00    +0.000 A 
ATOM     11  C   UNL     1      -1.083  10.997  19.275  0.00  0.00    +0.000 A 
ATOM     12  C   UNL     1       0.117  10.945  19.987  0.00  0.00    +0.000 A 
ATOM     13  C   UNL     1       1.193  10.200  19.493  0.00  0.00    +0.000 A 
BRANCH  11  14
ATOM     14  O   UNL     1      -2.193  11.702  19.654  0.00  0.00    +0.000 OA
ATOM     15  C   UNL     1      -3.243  11.744  18.694  0.00  0.00    +0.000 C 
ENDBRANCH  11  14
ENDBRANCH   4   8
BRANCH   1  16
ATOM     16  S   UNL     1       2.551   4.634  20.740  0.00  0.00    +0.000 S 
BRANCH  16  17
ATOM     17  C   UNL     1       0.886   4.055  20.336  0.00  0.00    +0.000 C 
BRANCH  17  19
ATOM     18  C   UNL     1       1.459   2.520  18.422  0.00  0.00    +0.000 C 
ATOM     19  C   UNL     1       0.988   2.713  19.662  0.00  0.00    +0.000 C 
ENDBRANCH  17  19
ENDBRANCH  16  17
ENDBRANCH   1  16
BRANCH   7  20
ATOM     20  C   UNL     1       4.749   4.608  18.474  0.00  0.00    +0.000 C 
BRANCH  20  21
ATOM     21  C   UNL     1       6.103   4.940  19.037  0.00  0.00    +0.000 C 
ATOM     22  C   UNL     1       7.224   5.041  18.306  0.00  0.00    +0.000 C 
ENDBRANCH  20  21
ENDBRANCH   7  20
TORSDOF 7
ENDMDL
MODEL 9
REMARK VINA RESULT:      -6.6      1.788      2.325
REMARK  Name = 
REMARK  8 active torsions:
REMARK  status: ('A' for Active; 'I' for Inactive)
REMARK    1  A    between atoms: C_2  and  C_3
REMARK    2  A    between atoms: C_3  and  S_4
REMARK    3  A    between atoms: S_4  and  C_5
REMARK    4  A    between atoms: C_8  and  C_9
REMARK    5  A    between atoms: C_12  and  O_13
REMARK    6  A    between atoms: O_13  and  C_14
REMARK    7  A    between atoms: N_19  and  C_20
REMARK    8  A    between atoms: C_20  and  C_21
REMARK                            x       y       z     vdW  Elec       q    Type
REMARK                         _______ _______ _______ _____ _____    ______ ____
ROOT
ATOM      1  C   UNL     1       2.604   6.002  19.666  0.00  0.00    +0.000 C 
ATOM      2  N   UNL     1       1.858   7.055  19.517  0.00  0.00    +0.000 NA
ATOM      3  C   UNL     1       2.412   7.701  18.435  0.00  0.00    +0.000 C 
ATOM      4  C   UNL     1       2.015   8.851  17.872  0.00  0.00    +0.000 C 
ATOM      5  C   UNL     1       3.588   6.926  17.931  0.00  0.00    +0.000 C 
ATOM      6  O   UNL     1       4.294   7.193  16.980  0.00  0.00    +0.000 OA
ATOM      7  N   UNL     1       3.634   5.860  18.788  0.00  0.00    +0.000 N 
ENDROOT
BRANCH   4   8
ATOM      8  C   UNL     1       0.911   9.661  18.382  0.00  0.00    +0.000 A 
ATOM      9  C   UNL     1       1.106  10.475  19.503  0.00  0.00    +0.000 A 
ATOM     10  C   UNL     1       0.059  11.255  19.997  0.00  0.00    +0.000 A 
ATOM     11  C   UNL     1      -1.185  11.248  19.363  0.00  0.00    +0.000 A 
ATOM     12  C   UNL     1      -1.389  10.425  18.255  0.00  0.00    +0.000 A 
ATOM     13  C   UNL     1      -0.343   9.635  17.766  0.00  0.00    +0.000 A 
BRANCH  11  14
ATOM     14  O   UNL     1      -2.136  12.050  19.933  0.00  0.00    +0.000 OA
ATOM     15  C   UNL     1      -1.842  12.498  21.253  0.00  0.00    +0.000 C 
ENDBRANCH  11  14
ENDBRANCH   4   8
BRANCH   1  16
ATOM     16  S   UNL     1       2.362   4.822  20.911  0.00  0.00    +0.000 S 
BRANCH  16  17
ATOM     17  C   UNL     1       0.928   3.928  20.268  0.00  0.00    +0.000 C 
BRANCH  17  19
ATOM     18  C   UNL     1       1.552   2.404  18.361  0.00  0.00    +0.000 C 
ATOM     19  C   UNL     1       1.393   2.626  19.673  0.00  0.00    +0.000 C 
ENDBRANCH  17  19
ENDBRANCH  16  17
ENDBRANCH   1  16
BRANCH   7  20
ATOM     20  C   UNL     1       4.548   4.742  18.634  0.00  0.00    +0.000 C 
BRANCH  20  21
ATOM     21  C   UNL     1       5.918   5.087  19.147  0.00  0.00    +0.000 C 
ATOM     22  C   UNL     1       7.020   5.145  18.384  0.00  0.00    +0.000 C 
ENDBRANCH  20  21
ENDBRANCH   7  20
TORSDOF 7
ENDMDL
