MODEL 1
REMARK VINA RESULT:      -7.1      0.000      0.000
REMARK  Name = 
REMARK  10 active torsions:
REMARK  status: ('A' for Active; 'I' for Inactive)
REMARK    1  A    between atoms: C_1  and  C_2
REMARK    2  A    between atoms: C_2  and  N_3
REMARK    3  A    between atoms: C_2  and  C_23
REMARK    4  A    between atoms: C_10  and  N_11
REMARK    5  A    between atoms: N_14  and  C_15
REMARK    6  A    between atoms: N_14  and  C_16
REMARK    7  A    between atoms: C_16  and  C_17
REMARK    8  A    between atoms: C_17  and  N_18
REMARK    9  A    between atoms: N_18  and  C_19
REMARK   10  A    between atoms: N_18  and  C_20
REMARK                            x       y       z     vdW  Elec       q    Type
REMARK                         _______ _______ _______ _____ _____    ______ ____
ROOT
ATOM      1  N   UNL     1       2.127   6.222  18.713  0.00  0.00    +0.000 N 
ATOM      2  C   UNL     1       3.243   5.707  18.052  0.00  0.00    +0.000 A 
ATOM      3  C   UNL     1       3.123   4.308  17.526  0.00  0.00    +0.000 A 
ATOM      4  C   UNL     1       4.218   3.807  16.923  0.00  0.00    +0.000 A 
ATOM      5  N   UNL     1       5.350   4.588  16.757  0.00  0.00    +0.000 N 
ATOM      6  N   UNL     1       6.495   4.244  16.121  0.00  0.00    +0.000 NA
ATOM      7  C   UNL     1       7.197   5.379  16.082  0.00  0.00    +0.000 A 
ATOM      8  C   UNL     1       6.575   6.434  16.778  0.00  0.00    +0.000 A 
ATOM      9  C   UNL     1       5.386   5.910  17.244  0.00  0.00    +0.000 A 
ATOM     10  N   UNL     1       4.331   6.440  17.930  0.00  0.00    +0.000 NA
ATOM     11  H   UNL     1       1.434   6.507  18.026  0.00  0.00    +0.000 HD
ENDROOT
BRANCH   8  12
ATOM     12  N   UNL     1       7.064   7.721  16.996  0.00  0.00    +0.000 N 
ATOM     13  C   UNL     1       7.932   7.971  18.051  0.00  0.00    +0.000 C 
ATOM     14  O   UNL     1       8.293   7.094  18.834  0.00  0.00    +0.000 OA
ATOM     15  N   UNL     1       8.386   9.287  18.176  0.00  0.00    +0.000 N 
ATOM     16  C   UNL     1       8.002  10.422  17.347  0.00  0.00    +0.000 C 
ATOM     17  H   UNL     1       7.153   8.282  16.166  0.00  0.00    +0.000 HD
BRANCH  15  18
ATOM     18  C   UNL     1       9.325   9.579  19.277  0.00  0.00    +0.000 C 
BRANCH  18  19
ATOM     19  C   UNL     1       9.676  11.081  19.422  0.00  0.00    +0.000 C 
BRANCH  19  20
ATOM     20  N   UNL     1      11.108  11.400  19.200  0.00  0.00    +0.000 NA
ATOM     21  C   UNL     1      11.356  11.888  17.839  0.00  0.00    +0.000 C 
ATOM     22  C   UNL     1      11.554  12.418  20.160  0.00  0.00    +0.000 C 
ENDBRANCH  19  20
ENDBRANCH  18  19
ENDBRANCH  15  18
ENDBRANCH   8  12
BRANCH   1  24
ATOM     23  C   UNL     1       1.843   6.707  21.112  0.00  0.00    +0.000 C 
ATOM     24  C   UNL     1       2.282   7.245  19.744  0.00  0.00    +0.000 C 
BRANCH  24  25
ATOM     25  C   UNL     1       1.423   8.461  19.431  0.00  0.00    +0.000 A 
ATOM     26  C   UNL     1       0.536   9.015  20.367  0.00  0.00    +0.000 A 
ATOM     27  C   UNL     1      -0.112  10.218  20.091  0.00  0.00    +0.000 A 
ATOM     28  F   UNL     1      -0.929  10.748  21.009  0.00  0.00    +0.000 F 
ATOM     29  C   UNL     1       0.099  10.891  18.893  0.00  0.00    +0.000 A 
ATOM     30  C   UNL     1       0.963  10.347  17.945  0.00  0.00    +0.000 A 
ATOM     31  C   UNL     1       1.613   9.144  18.219  0.00  0.00    +0.000 A 
ATOM     32  F   UNL     1       2.473   8.665  17.308  0.00  0.00    +0.000 F 
ENDBRANCH  24  25
ENDBRANCH   1  24
TORSDOF 6
ENDMDL
MODEL 2
REMARK VINA RESULT:      -6.9      4.255      7.028
REMARK  Name = 
REMARK  10 active torsions:
REMARK  status: ('A' for Active; 'I' for Inactive)
REMARK    1  A    between atoms: C_1  and  C_2
REMARK    2  A    between atoms: C_2  and  N_3
REMARK    3  A    between atoms: C_2  and  C_23
REMARK    4  A    between atoms: C_10  and  N_11
REMARK    5  A    between atoms: N_14  and  C_15
REMARK    6  A    between atoms: N_14  and  C_16
REMARK    7  A    between atoms: C_16  and  C_17
REMARK    8  A    between atoms: C_17  and  N_18
REMARK    9  A    between atoms: N_18  and  C_19
REMARK   10  A    between atoms: N_18  and  C_20
REMARK                            x       y       z     vdW  Elec       q    Type
REMARK                         _______ _______ _______ _____ _____    ______ ____
ROOT
ATOM      1  N   UNL     1       2.075   7.573  20.127  0.00  0.00    +0.000 N 
ATOM      2  C   UNL     1       1.310   8.608  20.668  0.00  0.00    +0.000 A 
ATOM      3  C   UNL     1       0.306   8.223  21.713  0.00  0.00    +0.000 A 
ATOM      4  C   UNL     1      -0.452   9.223  22.201  0.00  0.00    +0.000 A 
ATOM      5  N   UNL     1      -0.246  10.529  21.789  0.00  0.00    +0.000 N 
ATOM      6  N   UNL     1      -0.883  11.637  22.234  0.00  0.00    +0.000 NA
ATOM      7  C   UNL     1      -0.216  12.645  21.666  0.00  0.00    +0.000 A 
ATOM      8  C   UNL     1       0.780  12.208  20.771  0.00  0.00    +0.000 A 
ATOM      9  C   UNL     1       0.740  10.829  20.828  0.00  0.00    +0.000 A 
ATOM     10  N   UNL     1       1.484   9.843  20.245  0.00  0.00    +0.000 NA
ATOM     11  H   UNL     1       2.808   7.322  20.784  0.00  0.00    +0.000 HD
ENDROOT
BRANCH   8  12
ATOM     12  N   UNL     1       1.605  12.988  19.962  0.00  0.00    +0.000 N 
ATOM     13  C   UNL     1       2.720  13.617  20.499  0.00  0.00    +0.000 C 
ATOM     14  O   UNL     1       3.022  13.529  21.688  0.00  0.00    +0.000 OA
ATOM     15  N   UNL     1       3.498  14.360  19.606  0.00  0.00    +0.000 N 
ATOM     16  C   UNL     1       3.228  14.579  18.191  0.00  0.00    +0.000 C 
ATOM     17  H   UNL     1       1.640  12.702  18.999  0.00  0.00    +0.000 HD
BRANCH  15  18
ATOM     18  C   UNL     1       4.702  15.024  20.144  0.00  0.00    +0.000 C 
BRANCH  18  19
ATOM     19  C   UNL     1       5.482  15.856  19.097  0.00  0.00    +0.000 C 
BRANCH  19  20
ATOM     20  N   UNL     1       6.879  15.406  18.875  0.00  0.00    +0.000 NA
ATOM     21  C   UNL     1       7.419  14.698  20.040  0.00  0.00    +0.000 C 
ATOM     22  C   UNL     1       6.944  14.518  17.706  0.00  0.00    +0.000 C 
ENDBRANCH  19  20
ENDBRANCH  18  19
ENDBRANCH  15  18
ENDBRANCH   8  12
BRANCH   1  24
ATOM     23  C   UNL     1       1.551   8.238  17.813  0.00  0.00    +0.000 C 
ATOM     24  C   UNL     1       2.608   7.675  18.771  0.00  0.00    +0.000 C 
BRANCH  24  25
ATOM     25  C   UNL     1       3.020   6.307  18.249  0.00  0.00    +0.000 A 
ATOM     26  C   UNL     1       2.177   5.188  18.326  0.00  0.00    +0.000 A 
ATOM     27  C   UNL     1       2.534   3.998  17.697  0.00  0.00    +0.000 A 
ATOM     28  F   UNL     1       1.701   2.951  17.754  0.00  0.00    +0.000 F 
ATOM     29  C   UNL     1       3.723   3.887  16.985  0.00  0.00    +0.000 A 
ATOM     30  C   UNL     1       4.581   4.983  16.913  0.00  0.00    +0.000 A 
ATOM     31  C   UNL     1       4.225   6.176  17.541  0.00  0.00    +0.000 A 
ATOM     32  F   UNL     1       5.048   7.228  17.418  0.00  0.00    +0.000 F 
ENDBRANCH  24  25
ENDBRANCH   1  24
TORSDOF 6
ENDMDL
MODEL 3
REMARK VINA RESULT:      -6.9      7.758     11.613
REMARK  Name = 
REMARK  10 active torsions:
REMARK  status: ('A' for Active; 'I' for Inactive)
REMARK    1  A    between atoms: C_1  and  C_2
REMARK    2  A    between atoms: C_2  and  N_3
REMARK    3  A    between atoms: C_2  and  C_23
REMARK    4  A    between atoms: C_10  and  N_11
REMARK    5  A    between atoms: N_14  and  C_15
REMARK    6  A    between atoms: N_14  and  C_16
REMARK    7  A    between atoms: C_16  and  C_17
REMARK    8  A    between atoms: C_17  and  N_18
REMARK    9  A    between atoms: N_18  and  C_19
REMARK   10  A    between atoms: N_18  and  C_20
REMARK                            x       y       z     vdW  Elec       q    Type
REMARK                         _______ _______ _______ _____ _____    ______ ____
ROOT
ATOM      1  N   UNL     1      -1.348  11.055  18.330  0.00  0.00    +0.000 N 
ATOM      2  C   UNL     1      -2.698  11.330  18.106  0.00  0.00    +0.000 A 
ATOM      3  C   UNL     1      -3.207  11.093  16.715  0.00  0.00    +0.000 A 
ATOM      4  C   UNL     1      -4.501  11.396  16.500  0.00  0.00    +0.000 A 
ATOM      5  N   UNL     1      -5.304  11.838  17.539  0.00  0.00    +0.000 N 
ATOM      6  N   UNL     1      -6.626  12.120  17.487  0.00  0.00    +0.000 NA
ATOM      7  C   UNL     1      -6.963  12.332  18.762  0.00  0.00    +0.000 A 
ATOM      8  C   UNL     1      -5.857  12.298  19.634  0.00  0.00    +0.000 A 
ATOM      9  C   UNL     1      -4.771  12.006  18.833  0.00  0.00    +0.000 A 
ATOM     10  N   UNL     1      -3.448  11.786  19.088  0.00  0.00    +0.000 NA
ATOM     11  H   UNL     1      -1.223  10.051  18.423  0.00  0.00    +0.000 HD
ENDROOT
BRANCH   8  12
ATOM     12  N   UNL     1      -5.841  12.548  21.005  0.00  0.00    +0.000 N 
ATOM     13  C   UNL     1      -5.674  13.842  21.479  0.00  0.00    +0.000 C 
ATOM     14  O   UNL     1      -5.524  14.807  20.732  0.00  0.00    +0.000 OA
ATOM     15  N   UNL     1      -5.693  13.997  22.868  0.00  0.00    +0.000 N 
ATOM     16  C   UNL     1      -5.819  12.937  23.860  0.00  0.00    +0.000 C 
ATOM     17  H   UNL     1      -6.390  11.909  21.554  0.00  0.00    +0.000 HD
BRANCH  15  18
ATOM     18  C   UNL     1      -5.539  15.365  23.401  0.00  0.00    +0.000 C 
BRANCH  18  19
ATOM     19  C   UNL     1      -4.076  15.872  23.419  0.00  0.00    +0.000 C 
BRANCH  19  20
ATOM     20  N   UNL     1      -3.326  15.538  24.656  0.00  0.00    +0.000 NA
ATOM     21  C   UNL     1      -2.208  14.626  24.390  0.00  0.00    +0.000 C 
ATOM     22  C   UNL     1      -2.805  16.763  25.276  0.00  0.00    +0.000 C 
ENDBRANCH  19  20
ENDBRANCH  18  19
ENDBRANCH  15  18
ENDBRANCH   8  12
BRANCH   1  24
ATOM     23  C   UNL     1       0.799  12.130  18.885  0.00  0.00    +0.000 C 
ATOM     24  C   UNL     1      -0.610  11.765  19.371  0.00  0.00    +0.000 C 
BRANCH  24  25
ATOM     25  C   UNL     1      -0.457  10.898  20.612  0.00  0.00    +0.000 A 
ATOM     26  C   UNL     1       0.357   9.755  20.635  0.00  0.00    +0.000 A 
ATOM     27  C   UNL     1       0.587   9.084  21.833  0.00  0.00    +0.000 A 
ATOM     28  F   UNL     1       1.393   8.015  21.841  0.00  0.00    +0.000 F 
ATOM     29  C   UNL     1       0.020   9.521  23.025  0.00  0.00    +0.000 A 
ATOM     30  C   UNL     1      -0.805  10.644  23.018  0.00  0.00    +0.000 A 
ATOM     31  C   UNL     1      -1.036  11.318  21.820  0.00  0.00    +0.000 A 
ATOM     32  F   UNL     1      -1.799  12.421  21.849  0.00  0.00    +0.000 F 
ENDBRANCH  24  25
ENDBRANCH   1  24
TORSDOF 6
ENDMDL
MODEL 4
REMARK VINA RESULT:      -6.9      7.261     10.887
REMARK  Name = 
REMARK  10 active torsions:
REMARK  status: ('A' for Active; 'I' for Inactive)
REMARK    1  A    between atoms: C_1  and  C_2
REMARK    2  A    between atoms: C_2  and  N_3
REMARK    3  A    between atoms: C_2  and  C_23
REMARK    4  A    between atoms: C_10  and  N_11
REMARK    5  A    between atoms: N_14  and  C_15
REMARK    6  A    between atoms: N_14  and  C_16
REMARK    7  A    between atoms: C_16  and  C_17
REMARK    8  A    between atoms: C_17  and  N_18
REMARK    9  A    between atoms: N_18  and  C_19
REMARK   10  A    between atoms: N_18  and  C_20
REMARK                            x       y       z     vdW  Elec       q    Type
REMARK                         _______ _______ _______ _____ _____    ______ ____
ROOT
ATOM      1  N   UNL     1      -0.730  10.890  18.013  0.00  0.00    +0.000 N 
ATOM      2  C   UNL     1      -2.080  11.168  17.797  0.00  0.00    +0.000 A 
ATOM      3  C   UNL     1      -2.604  10.910  16.415  0.00  0.00    +0.000 A 
ATOM      4  C   UNL     1      -3.899  11.217  16.208  0.00  0.00    +0.000 A 
ATOM      5  N   UNL     1      -4.689  11.679  17.248  0.00  0.00    +0.000 N 
ATOM      6  N   UNL     1      -6.011  11.967  17.204  0.00  0.00    +0.000 NA
ATOM      7  C   UNL     1      -6.333  12.201  18.479  0.00  0.00    +0.000 A 
ATOM      8  C   UNL     1      -5.219  12.176  19.340  0.00  0.00    +0.000 A 
ATOM      9  C   UNL     1      -4.142  11.866  18.533  0.00  0.00    +0.000 A 
ATOM     10  N   UNL     1      -2.818  11.643  18.779  0.00  0.00    +0.000 NA
ATOM     11  H   UNL     1      -0.608   9.886  18.120  0.00  0.00    +0.000 HD
ENDROOT
BRANCH   8  12
ATOM     12  N   UNL     1      -5.188  12.448  20.707  0.00  0.00    +0.000 N 
ATOM     13  C   UNL     1      -4.989  13.746  21.158  0.00  0.00    +0.000 C 
ATOM     14  O   UNL     1      -4.821  14.695  20.395  0.00  0.00    +0.000 OA
ATOM     15  N   UNL     1      -4.995  13.924  22.545  0.00  0.00    +0.000 N 
ATOM     16  C   UNL     1      -5.139  12.883  23.555  0.00  0.00    +0.000 C 
ATOM     17  H   UNL     1      -5.748  11.831  21.270  0.00  0.00    +0.000 HD
BRANCH  15  18
ATOM     18  C   UNL     1      -4.805  15.296  23.054  0.00  0.00    +0.000 C 
BRANCH  18  19
ATOM     19  C   UNL     1      -3.625  15.441  24.046  0.00  0.00    +0.000 C 
BRANCH  19  20
ATOM     20  N   UNL     1      -2.301  15.079  23.481  0.00  0.00    +0.000 NA
ATOM     21  C   UNL     1      -1.917  15.963  22.375  0.00  0.00    +0.000 C 
ATOM     22  C   UNL     1      -1.270  15.147  24.525  0.00  0.00    +0.000 C 
ENDBRANCH  19  20
ENDBRANCH  18  19
ENDBRANCH  15  18
ENDBRANCH   8  12
BRANCH   1  24
ATOM     23  C   UNL     1       1.493  11.762  18.622  0.00  0.00    +0.000 C 
ATOM     24  C   UNL     1       0.023  11.613  19.035  0.00  0.00    +0.000 C 
BRANCH  24  25
ATOM     25  C   UNL     1      -0.010  10.865  20.359  0.00  0.00    +0.000 A 
ATOM     26  C   UNL     1      -0.641  11.385  21.500  0.00  0.00    +0.000 A 
ATOM     27  C   UNL     1      -0.780  10.599  22.642  0.00  0.00    +0.000 A 
ATOM     28  F   UNL     1      -1.414  11.100  23.709  0.00  0.00    +0.000 F 
ATOM     29  C   UNL     1      -0.299   9.295  22.682  0.00  0.00    +0.000 A 
ATOM     30  C   UNL     1       0.347   8.769  21.565  0.00  0.00    +0.000 A 
ATOM     31  C   UNL     1       0.486   9.553  20.420  0.00  0.00    +0.000 A 
ATOM     32  F   UNL     1       1.072   9.007  19.344  0.00  0.00    +0.000 F 
ENDBRANCH  24  25
ENDBRANCH   1  24
TORSDOF 6
ENDMDL
MODEL 5
REMARK VINA RESULT:      -6.8      7.788     12.079
REMARK  Name = 
REMARK  10 active torsions:
REMARK  status: ('A' for Active; 'I' for Inactive)
REMARK    1  A    between atoms: C_1  and  C_2
REMARK    2  A    between atoms: C_2  and  N_3
REMARK    3  A    between atoms: C_2  and  C_23
REMARK    4  A    between atoms: C_10  and  N_11
REMARK    5  A    between atoms: N_14  and  C_15
REMARK    6  A    between atoms: N_14  and  C_16
REMARK    7  A    between atoms: C_16  and  C_17
REMARK    8  A    between atoms: C_17  and  N_18
REMARK    9  A    between atoms: N_18  and  C_19
REMARK   10  A    between atoms: N_18  and  C_20
REMARK                            x       y       z     vdW  Elec       q    Type
REMARK                         _______ _______ _______ _____ _____    ______ ____
ROOT
ATOM      1  N   UNL     1      -1.427  11.133  18.392  0.00  0.00    +0.000 N 
ATOM      2  C   UNL     1      -2.781  11.397  18.182  0.00  0.00    +0.000 A 
ATOM      3  C   UNL     1      -3.293  11.204  16.785  0.00  0.00    +0.000 A 
ATOM      4  C   UNL     1      -4.591  11.497  16.586  0.00  0.00    +0.000 A 
ATOM      5  N   UNL     1      -5.396  11.889  17.644  0.00  0.00    +0.000 N 
ATOM      6  N   UNL     1      -6.723  12.155  17.607  0.00  0.00    +0.000 NA
ATOM      7  C   UNL     1      -7.057  12.315  18.890  0.00  0.00    +0.000 A 
ATOM      8  C   UNL     1      -5.946  12.265  19.756  0.00  0.00    +0.000 A 
ATOM      9  C   UNL     1      -4.860  12.018  18.941  0.00  0.00    +0.000 A 
ATOM     10  N   UNL     1      -3.533  11.807  19.183  0.00  0.00    +0.000 NA
ATOM     11  H   UNL     1      -1.287  10.128  18.447  0.00  0.00    +0.000 HD
ENDROOT
BRANCH   8  12
ATOM     12  N   UNL     1      -5.928  12.465  21.135  0.00  0.00    +0.000 N 
ATOM     13  C   UNL     1      -5.469  13.665  21.663  0.00  0.00    +0.000 C 
ATOM     14  O   UNL     1      -5.054  14.583  20.959  0.00  0.00    +0.000 OA
ATOM     15  N   UNL     1      -5.509  13.780  23.056  0.00  0.00    +0.000 N 
ATOM     16  C   UNL     1      -5.934  12.757  24.002  0.00  0.00    +0.000 C 
ATOM     17  H   UNL     1      -6.640  11.967  21.641  0.00  0.00    +0.000 HD
BRANCH  15  18
ATOM     18  C   UNL     1      -5.046  15.052  23.645  0.00  0.00    +0.000 C 
BRANCH  18  19
ATOM     19  C   UNL     1      -6.187  16.046  23.973  0.00  0.00    +0.000 C 
BRANCH  19  20
ATOM     20  N   UNL     1      -5.764  17.468  24.028  0.00  0.00    +0.000 NA
ATOM     21  C   UNL     1      -5.023  17.771  25.257  0.00  0.00    +0.000 C 
ATOM     22  C   UNL     1      -4.920  17.789  22.870  0.00  0.00    +0.000 C 
ENDBRANCH  19  20
ENDBRANCH  18  19
ENDBRANCH  15  18
ENDBRANCH   8  12
BRANCH   1  24
ATOM     23  C   UNL     1       0.708  12.215  18.978  0.00  0.00    +0.000 C 
ATOM     24  C   UNL     1      -0.694  11.815  19.455  0.00  0.00    +0.000 C 
BRANCH  24  25
ATOM     25  C   UNL     1      -0.526  10.906  20.663  0.00  0.00    +0.000 A 
ATOM     26  C   UNL     1       0.294   9.767  20.639  0.00  0.00    +0.000 A 
ATOM     27  C   UNL     1       0.538   9.056  21.811  0.00  0.00    +0.000 A 
ATOM     28  F   UNL     1       1.348   7.991  21.775  0.00  0.00    +0.000 F 
ATOM     29  C   UNL     1      -0.019   9.449  23.023  0.00  0.00    +0.000 A 
ATOM     30  C   UNL     1      -0.849  10.567  23.062  0.00  0.00    +0.000 A 
ATOM     31  C   UNL     1      -1.095  11.282  21.890  0.00  0.00    +0.000 A 
ATOM     32  F   UNL     1      -1.862  12.380  21.965  0.00  0.00    +0.000 F 
ENDBRANCH  24  25
ENDBRANCH   1  24
TORSDOF 6
ENDMDL
MODEL 6
REMARK VINA RESULT:      -6.8      4.767      7.398
REMARK  Name = 
REMARK  10 active torsions:
REMARK  status: ('A' for Active; 'I' for Inactive)
REMARK    1  A    between atoms: C_1  and  C_2
REMARK    2  A    between atoms: C_2  and  N_3
REMARK    3  A    between atoms: C_2  and  C_23
REMARK    4  A    between atoms: C_10  and  N_11
REMARK    5  A    between atoms: N_14  and  C_15
REMARK    6  A    between atoms: N_14  and  C_16
REMARK    7  A    between atoms: C_16  and  C_17
REMARK    8  A    between atoms: C_17  and  N_18
REMARK    9  A    between atoms: N_18  and  C_19
REMARK   10  A    between atoms: N_18  and  C_20
REMARK                            x       y       z     vdW  Elec       q    Type
REMARK                         _______ _______ _______ _____ _____    ______ ____
ROOT
ATOM      1  N   UNL     1       2.092   7.593  20.106  0.00  0.00    +0.000 N 
ATOM      2  C   UNL     1       1.324   8.622  20.653  0.00  0.00    +0.000 A 
ATOM      3  C   UNL     1       0.347   8.232  21.723  0.00  0.00    +0.000 A 
ATOM      4  C   UNL     1      -0.414   9.226  22.217  0.00  0.00    +0.000 A 
ATOM      5  N   UNL     1      -0.235  10.531  21.789  0.00  0.00    +0.000 N 
ATOM      6  N   UNL     1      -0.879  11.634  22.237  0.00  0.00    +0.000 NA
ATOM      7  C   UNL     1      -0.238  12.646  21.646  0.00  0.00    +0.000 A 
ATOM      8  C   UNL     1       0.745  12.214  20.734  0.00  0.00    +0.000 A 
ATOM      9  C   UNL     1       0.726  10.836  20.804  0.00  0.00    +0.000 A 
ATOM     10  N   UNL     1       1.471   9.855  20.215  0.00  0.00    +0.000 NA
ATOM     11  H   UNL     1       2.843   7.358  20.749  0.00  0.00    +0.000 HD
ENDROOT
BRANCH   8  12
ATOM     12  N   UNL     1       1.541  12.998  19.900  0.00  0.00    +0.000 N 
ATOM     13  C   UNL     1       2.646  13.666  20.413  0.00  0.00    +0.000 C 
ATOM     14  O   UNL     1       2.962  13.610  21.599  0.00  0.00    +0.000 OA
ATOM     15  N   UNL     1       3.395  14.410  19.497  0.00  0.00    +0.000 N 
ATOM     16  C   UNL     1       3.105  14.593  18.080  0.00  0.00    +0.000 C 
ATOM     17  H   UNL     1       1.573  12.694  18.943  0.00  0.00    +0.000 HD
BRANCH  15  18
ATOM     18  C   UNL     1       4.587  15.114  20.008  0.00  0.00    +0.000 C 
BRANCH  18  19
ATOM     19  C   UNL     1       5.053  16.291  19.116  0.00  0.00    +0.000 C 
BRANCH  19  20
ATOM     20  N   UNL     1       4.875  17.632  19.727  0.00  0.00    +0.000 NA
ATOM     21  C   UNL     1       3.709  17.677  20.616  0.00  0.00    +0.000 C 
ATOM     22  C   UNL     1       6.073  18.001  20.493  0.00  0.00    +0.000 C 
ENDBRANCH  19  20
ENDBRANCH  18  19
ENDBRANCH  15  18
ENDBRANCH   8  12
BRANCH   1  24
ATOM     23  C   UNL     1       1.509   8.225  17.797  0.00  0.00    +0.000 C 
ATOM     24  C   UNL     1       2.595   7.689  18.738  0.00  0.00    +0.000 C 
BRANCH  24  25
ATOM     25  C   UNL     1       3.019   6.323  18.221  0.00  0.00    +0.000 A 
ATOM     26  C   UNL     1       2.185   5.197  18.303  0.00  0.00    +0.000 A 
ATOM     27  C   UNL     1       2.553   4.007  17.678  0.00  0.00    +0.000 A 
ATOM     28  F   UNL     1       1.730   2.953  17.739  0.00  0.00    +0.000 F 
ATOM     29  C   UNL     1       3.743   3.905  16.967  0.00  0.00    +0.000 A 
ATOM     30  C   UNL     1       4.591   5.007  16.890  0.00  0.00    +0.000 A 
ATOM     31  C   UNL     1       4.225   6.200  17.513  0.00  0.00    +0.000 A 
ATOM     32  F   UNL     1       5.039   7.258  17.386  0.00  0.00    +0.000 F 
ENDBRANCH  24  25
ENDBRANCH   1  24
TORSDOF 6
ENDMDL
MODEL 7
REMARK VINA RESULT:      -6.8      7.491     11.751
REMARK  Name = 
REMARK  10 active torsions:
REMARK  status: ('A' for Active; 'I' for Inactive)
REMARK    1  A    between atoms: C_1  and  C_2
REMARK    2  A    between atoms: C_2  and  N_3
REMARK    3  A    between atoms: C_2  and  C_23
REMARK    4  A    between atoms: C_10  and  N_11
REMARK    5  A    between atoms: N_14  and  C_15
REMARK    6  A    between atoms: N_14  and  C_16
REMARK    7  A    between atoms: C_16  and  C_17
REMARK    8  A    between atoms: C_17  and  N_18
REMARK    9  A    between atoms: N_18  and  C_19
REMARK   10  A    between atoms: N_18  and  C_20
REMARK                            x       y       z     vdW  Elec       q    Type
REMARK                         _______ _______ _______ _____ _____    ______ ____
ROOT
ATOM      1  N   UNL     1      -0.702  12.136  22.633  0.00  0.00    +0.000 N 
ATOM      2  C   UNL     1      -1.904  12.758  22.972  0.00  0.00    +0.000 A 
ATOM      3  C   UNL     1      -1.818  13.896  23.946  0.00  0.00    +0.000 A 
ATOM      4  C   UNL     1      -2.987  14.465  24.295  0.00  0.00    +0.000 A 
ATOM      5  N   UNL     1      -4.175  14.044  23.719  0.00  0.00    +0.000 N 
ATOM      6  N   UNL     1      -5.410  14.560  23.924  0.00  0.00    +0.000 NA
ATOM      7  C   UNL     1      -6.174  13.936  23.024  0.00  0.00    +0.000 A 
ATOM      8  C   UNL     1      -5.478  12.942  22.308  0.00  0.00    +0.000 A 
ATOM      9  C   UNL     1      -4.183  12.992  22.782  0.00  0.00    +0.000 A 
ATOM     10  N   UNL     1      -3.036  12.330  22.451  0.00  0.00    +0.000 NA
ATOM     11  H   UNL     1      -0.205  12.714  21.961  0.00  0.00    +0.000 HD
ENDROOT
BRANCH   8  12
ATOM     12  N   UNL     1      -5.987  12.061  21.355  0.00  0.00    +0.000 N 
ATOM     13  C   UNL     1      -5.625  12.188  20.020  0.00  0.00    +0.000 C 
ATOM     14  O   UNL     1      -4.866  13.068  19.620  0.00  0.00    +0.000 OA
ATOM     15  N   UNL     1      -6.168  11.245  19.143  0.00  0.00    +0.000 N 
ATOM     16  C   UNL     1      -7.109  10.184  19.479  0.00  0.00    +0.000 C 
ATOM     17  H   UNL     1      -6.198  11.142  21.703  0.00  0.00    +0.000 HD
BRANCH  15  18
ATOM     18  C   UNL     1      -5.785  11.342  17.720  0.00  0.00    +0.000 C 
BRANCH  18  19
ATOM     19  C   UNL     1      -4.487  10.576  17.364  0.00  0.00    +0.000 C 
BRANCH  19  20
ATOM     20  N   UNL     1      -3.435  11.413  16.735  0.00  0.00    +0.000 NA
ATOM     21  C   UNL     1      -2.240  11.517  17.579  0.00  0.00    +0.000 C 
ATOM     22  C   UNL     1      -3.052  10.848  15.434  0.00  0.00    +0.000 C 
ENDBRANCH  19  20
ENDBRANCH  18  19
ENDBRANCH  15  18
ENDBRANCH   8  12
BRANCH   1  24
ATOM     23  C   UNL     1       0.065   9.877  23.252  0.00  0.00    +0.000 C 
ATOM     24  C   UNL     1      -0.682  10.734  22.222  0.00  0.00    +0.000 C 
BRANCH  24  25
ATOM     25  C   UNL     1       0.028  10.573  20.887  0.00  0.00    +0.000 A 
ATOM     26  C   UNL     1       0.471  11.672  20.133  0.00  0.00    +0.000 A 
ATOM     27  C   UNL     1       1.252  11.472  18.997  0.00  0.00    +0.000 A 
ATOM     28  F   UNL     1       1.692  12.533  18.310  0.00  0.00    +0.000 F 
ATOM     29  C   UNL     1       1.607  10.193  18.582  0.00  0.00    +0.000 A 
ATOM     30  C   UNL     1       1.161   9.091  19.308  0.00  0.00    +0.000 A 
ATOM     31  C   UNL     1       0.381   9.288  20.446  0.00  0.00    +0.000 A 
ATOM     32  F   UNL     1       0.002   8.211  21.151  0.00  0.00    +0.000 F 
ENDBRANCH  24  25
ENDBRANCH   1  24
TORSDOF 6
ENDMDL
MODEL 8
REMARK VINA RESULT:      -6.8      7.336     11.073
REMARK  Name = 
REMARK  10 active torsions:
REMARK  status: ('A' for Active; 'I' for Inactive)
REMARK    1  A    between atoms: C_1  and  C_2
REMARK    2  A    between atoms: C_2  and  N_3
REMARK    3  A    between atoms: C_2  and  C_23
REMARK    4  A    between atoms: C_10  and  N_11
REMARK    5  A    between atoms: N_14  and  C_15
REMARK    6  A    between atoms: N_14  and  C_16
REMARK    7  A    between atoms: C_16  and  C_17
REMARK    8  A    between atoms: C_17  and  N_18
REMARK    9  A    between atoms: N_18  and  C_19
REMARK   10  A    between atoms: N_18  and  C_20
REMARK                            x       y       z     vdW  Elec       q    Type
REMARK                         _______ _______ _______ _____ _____    ______ ____
ROOT
ATOM      1  N   UNL     1      -0.947  10.813  17.996  0.00  0.00    +0.000 N 
ATOM      2  C   UNL     1      -2.287  11.138  17.779  0.00  0.00    +0.000 A 
ATOM      3  C   UNL     1      -2.809  10.931  16.388  0.00  0.00    +0.000 A 
ATOM      4  C   UNL     1      -4.092  11.282  16.181  0.00  0.00    +0.000 A 
ATOM      5  N   UNL     1      -4.875  11.742  17.227  0.00  0.00    +0.000 N 
ATOM      6  N   UNL     1      -6.187  12.072  17.183  0.00  0.00    +0.000 NA
ATOM      7  C   UNL     1      -6.511  12.283  18.461  0.00  0.00    +0.000 A 
ATOM      8  C   UNL     1      -5.404  12.203  19.329  0.00  0.00    +0.000 A 
ATOM      9  C   UNL     1      -4.332  11.880  18.521  0.00  0.00    +0.000 A 
ATOM     10  N   UNL     1      -3.017  11.611  18.768  0.00  0.00    +0.000 NA
ATOM     11  H   UNL     1      -0.857   9.804  18.079  0.00  0.00    +0.000 HD
ENDROOT
BRANCH   8  12
ATOM     12  N   UNL     1      -5.374  12.439  20.701  0.00  0.00    +0.000 N 
ATOM     13  C   UNL     1      -5.063  13.702  21.188  0.00  0.00    +0.000 C 
ATOM     14  O   UNL     1      -4.793  14.649  20.451  0.00  0.00    +0.000 OA
ATOM     15  N   UNL     1      -5.080  13.848  22.578  0.00  0.00    +0.000 N 
ATOM     16  C   UNL     1      -5.339  12.803  23.560  0.00  0.00    +0.000 C 
ATOM     17  H   UNL     1      -6.000  11.865  21.240  0.00  0.00    +0.000 HD
BRANCH  15  18
ATOM     18  C   UNL     1      -4.773  15.185  23.124  0.00  0.00    +0.000 C 
BRANCH  18  19
ATOM     19  C   UNL     1      -3.301  15.359  23.572  0.00  0.00    +0.000 C 
BRANCH  19  20
ATOM     20  N   UNL     1      -2.537  16.362  22.788  0.00  0.00    +0.000 NA
ATOM     21  C   UNL     1      -1.809  17.295  23.655  0.00  0.00    +0.000 C 
ATOM     22  C   UNL     1      -1.578  15.687  21.903  0.00  0.00    +0.000 C 
ENDBRANCH  19  20
ENDBRANCH  18  19
ENDBRANCH  15  18
ENDBRANCH   8  12
BRANCH   1  24
ATOM     23  C   UNL     1       1.258  11.747  18.575  0.00  0.00    +0.000 C 
ATOM     24  C   UNL     1      -0.180  11.487  19.041  0.00  0.00    +0.000 C 
BRANCH  24  25
ATOM     25  C   UNL     1      -0.109  10.631  20.296  0.00  0.00    +0.000 A 
ATOM     26  C   UNL     1       0.592   9.416  20.338  0.00  0.00    +0.000 A 
ATOM     27  C   UNL     1       0.759   8.746  21.548  0.00  0.00    +0.000 A 
ATOM     28  F   UNL     1       1.459   7.605  21.575  0.00  0.00    +0.000 F 
ATOM     29  C   UNL     1       0.239   9.256  22.732  0.00  0.00    +0.000 A 
ATOM     30  C   UNL     1      -0.475  10.452  22.706  0.00  0.00    +0.000 A 
ATOM     31  C   UNL     1      -0.643  11.125  21.497  0.00  0.00    +0.000 A 
ATOM     32  F   UNL     1      -1.296  12.297  21.507  0.00  0.00    +0.000 F 
ENDBRANCH  24  25
ENDBRANCH   1  24
TORSDOF 6
ENDMDL
MODEL 9
REMARK VINA RESULT:      -6.8      6.873     11.079
REMARK  Name = 
REMARK  10 active torsions:
REMARK  status: ('A' for Active; 'I' for Inactive)
REMARK    1  A    between atoms: C_1  and  C_2
REMARK    2  A    between atoms: C_2  and  N_3
REMARK    3  A    between atoms: C_2  and  C_23
REMARK    4  A    between atoms: C_10  and  N_11
REMARK    5  A    between atoms: N_14  and  C_15
REMARK    6  A    between atoms: N_14  and  C_16
REMARK    7  A    between atoms: C_16  and  C_17
REMARK    8  A    between atoms: C_17  and  N_18
REMARK    9  A    between atoms: N_18  and  C_19
REMARK   10  A    between atoms: N_18  and  C_20
REMARK                            x       y       z     vdW  Elec       q    Type
REMARK                         _______ _______ _______ _____ _____    ______ ____
ROOT
ATOM      1  N   UNL     1      -1.807  10.683  18.044  0.00  0.00    +0.000 N 
ATOM      2  C   UNL     1      -3.060  11.280  18.195  0.00  0.00    +0.000 A 
ATOM      3  C   UNL     1      -3.891  11.414  16.954  0.00  0.00    +0.000 A 
ATOM      4  C   UNL     1      -5.082  12.024  17.103  0.00  0.00    +0.000 A 
ATOM      5  N   UNL     1      -5.512  12.434  18.355  0.00  0.00    +0.000 N 
ATOM      6  N   UNL     1      -6.701  13.001  18.666  0.00  0.00    +0.000 NA
ATOM      7  C   UNL     1      -6.699  13.046  20.001  0.00  0.00    +0.000 A 
ATOM      8  C   UNL     1      -5.480  12.616  20.562  0.00  0.00    +0.000 A 
ATOM      9  C   UNL     1      -4.695  12.246  19.489  0.00  0.00    +0.000 A 
ATOM     10  N   UNL     1      -3.448  11.702  19.381  0.00  0.00    +0.000 NA
ATOM     11  H   UNL     1      -1.923   9.676  17.976  0.00  0.00    +0.000 HD
ENDROOT
BRANCH   8  12
ATOM     12  N   UNL     1      -5.116  12.605  21.907  0.00  0.00    +0.000 N 
ATOM     13  C   UNL     1      -4.307  13.609  22.423  0.00  0.00    +0.000 C 
ATOM     14  O   UNL     1      -3.873  14.529  21.733  0.00  0.00    +0.000 OA
ATOM     15  N   UNL     1      -4.013  13.524  23.786  0.00  0.00    +0.000 N 
ATOM     16  C   UNL     1      -4.426  12.468  24.702  0.00  0.00    +0.000 C 
ATOM     17  H   UNL     1      -5.788  12.176  22.520  0.00  0.00    +0.000 HD
BRANCH  15  18
ATOM     18  C   UNL     1      -3.172  14.589  24.367  0.00  0.00    +0.000 C 
BRANCH  18  19
ATOM     19  C   UNL     1      -1.650  14.342  24.215  0.00  0.00    +0.000 C 
BRANCH  19  20
ATOM     20  N   UNL     1      -0.796  15.385  24.835  0.00  0.00    +0.000 NA
ATOM     21  C   UNL     1      -0.773  16.618  24.041  0.00  0.00    +0.000 C 
ATOM     22  C   UNL     1      -1.280  15.697  26.187  0.00  0.00    +0.000 C 
ENDBRANCH  19  20
ENDBRANCH  18  19
ENDBRANCH  15  18
ENDBRANCH   8  12
BRANCH   1  24
ATOM     23  C   UNL     1       0.079  12.221  18.429  0.00  0.00    +0.000 C 
ATOM     24  C   UNL     1      -0.713  11.016  18.952  0.00  0.00    +0.000 C 
BRANCH  24  25
ATOM     25  C   UNL     1       0.256   9.850  19.081  0.00  0.00    +0.000 A 
ATOM     26  C   UNL     1       1.089   9.445  18.025  0.00  0.00    +0.000 A 
ATOM     27  C   UNL     1       2.067   8.477  18.238  0.00  0.00    +0.000 A 
ATOM     28  F   UNL     1       2.873   8.127  17.228  0.00  0.00    +0.000 F 
ATOM     29  C   UNL     1       2.241   7.890  19.486  0.00  0.00    +0.000 A 
ATOM     30  C   UNL     1       1.411   8.266  20.541  0.00  0.00    +0.000 A 
ATOM     31  C   UNL     1       0.432   9.237  20.331  0.00  0.00    +0.000 A 
ATOM     32  F   UNL     1      -0.323   9.612  21.374  0.00  0.00    +0.000 F 
ENDBRANCH  24  25
ENDBRANCH   1  24
TORSDOF 6
ENDMDL
