MODEL 1
REMARK VINA RESULT:      -7.7      0.000      0.000
REMARK  Name = 
REMARK  9 active torsions:
REMARK  status: ('A' for Active; 'I' for Inactive)
REMARK    1  A    between atoms: C_1  and  C_2
REMARK    2  A    between atoms: C_2  and  C_3
REMARK    3  A    between atoms: C_2  and  C_4
REMARK    4  A    between atoms: C_4  and  O_5
REMARK    5  A    between atoms: O_5  and  C_6
REMARK    6  A    between atoms: C_12  and  C_13
REMARK    7  A    between atoms: C_13  and  C_14
REMARK    8  A    between atoms: CA_18  and  C_19
REMARK    9  A    between atoms: C_19  and  OXT_21
REMARK                            x       y       z     vdW  Elec       q    Type
REMARK                         _______ _______ _______ _____ _____    ______ ____
ROOT
ATOM      1  C   UNL     1       2.084   6.334  20.007  0.00  0.00    +0.000 A 
ATOM      2  C   UNL     1       1.650   7.502  20.654  0.00  0.00    +0.000 A 
ATOM      3  C   UNL     1       1.583   8.725  19.981  0.00  0.00    +0.000 A 
ATOM      4  C   UNL     1       1.965   8.800  18.650  0.00  0.00    +0.000 A 
ATOM      5 CL   UNL     1       1.864  10.299  17.815  0.00  0.00    +0.000 Cl
ATOM      6  C   UNL     1       2.427   7.663  17.993  0.00  0.00    +0.000 A 
ATOM      7  C   UNL     1       2.495   6.417  18.657  0.00  0.00    +0.000 A 
ENDROOT
BRANCH   1   8
ATOM      8  O   UNL     1       2.160   5.108  20.641  0.00  0.00    +0.000 OA
BRANCH   8   9
ATOM      9  C   UNL     1       0.988   4.281  20.523  0.00  0.00    +0.000 C 
BRANCH   9  11
ATOM     10  C   UNL     1       1.595   2.130  19.287  0.00  0.00    +0.000 C 
ATOM     11  C   UNL     1       1.280   2.774  20.632  0.00  0.00    +0.000 C 
ATOM     12  C   UNL     1       2.392   2.481  21.640  0.00  0.00    +0.000 C 
ENDBRANCH   9  11
ENDBRANCH   8   9
ENDBRANCH   1   8
BRANCH   7  13
ATOM     13  C   UNL     1       3.013   5.230  17.864  0.00  0.00    +0.000 C 
BRANCH  13  14
ATOM     14  C   UNL     1       4.525   5.203  17.695  0.00  0.00    +0.000 A 
ATOM     15  C   UNL     1       5.341   5.366  18.815  0.00  0.00    +0.000 A 
ATOM     16  C   UNL     1       6.726   5.315  18.675  0.00  0.00    +0.000 A 
ATOM     17  C   UNL     1       7.275   5.103  17.417  0.00  0.00    +0.000 A 
ATOM     18  CA  UNL     1       6.405   4.951  16.351  0.00  0.00    +0.000 A 
ATOM     19  N   UNL     1       5.037   4.991  16.448  0.00  0.00    +0.000 NA
BRANCH  18  20
ATOM     20  C   UNL     1       6.965   4.710  14.985  0.00  0.00    +0.000 C 
ATOM     21  O   UNL     1       7.784   5.418  14.426  0.00  0.00    +0.000 OA
BRANCH  20  22
ATOM     22  OXT UNL     1       6.441   3.582  14.447  0.00  0.00    +0.000 OA
ATOM     23  HXT UNL     1       6.692   2.819  15.019  0.00  0.00    +0.000 HD
ENDBRANCH  20  22
ENDBRANCH  18  20
ENDBRANCH  13  14
ENDBRANCH   7  13
TORSDOF 7
ENDMDL
MODEL 2
REMARK VINA RESULT:      -7.6      1.860      2.398
REMARK  Name = 
REMARK  9 active torsions:
REMARK  status: ('A' for Active; 'I' for Inactive)
REMARK    1  A    between atoms: C_1  and  C_2
REMARK    2  A    between atoms: C_2  and  C_3
REMARK    3  A    between atoms: C_2  and  C_4
REMARK    4  A    between atoms: C_4  and  O_5
REMARK    5  A    between atoms: O_5  and  C_6
REMARK    6  A    between atoms: C_12  and  C_13
REMARK    7  A    between atoms: C_13  and  C_14
REMARK    8  A    between atoms: CA_18  and  C_19
REMARK    9  A    between atoms: C_19  and  OXT_21
REMARK                            x       y       z     vdW  Elec       q    Type
REMARK                         _______ _______ _______ _____ _____    ______ ____
ROOT
ATOM      1  C   UNL     1       2.455   5.791  20.003  0.00  0.00    +0.000 A 
ATOM      2  C   UNL     1       2.032   6.914  20.733  0.00  0.00    +0.000 A 
ATOM      3  C   UNL     1       1.797   8.142  20.108  0.00  0.00    +0.000 A 
ATOM      4  C   UNL     1       1.997   8.269  18.742  0.00  0.00    +0.000 A 
ATOM      5 CL   UNL     1       1.689   9.774  17.971  0.00  0.00    +0.000 Cl
ATOM      6  C   UNL     1       2.444   7.180  18.000  0.00  0.00    +0.000 A 
ATOM      7  C   UNL     1       2.681   5.929  18.613  0.00  0.00    +0.000 A 
ENDROOT
BRANCH   1   8
ATOM      8  O   UNL     1       2.694   4.561  20.586  0.00  0.00    +0.000 OA
BRANCH   8   9
ATOM      9  C   UNL     1       1.521   3.775  20.865  0.00  0.00    +0.000 C 
BRANCH   9  11
ATOM     10  C   UNL     1       0.610   2.486  18.858  0.00  0.00    +0.000 C 
ATOM     11  C   UNL     1       1.479   2.435  20.108  0.00  0.00    +0.000 C 
ATOM     12  C   UNL     1       2.881   1.931  19.766  0.00  0.00    +0.000 C 
ENDBRANCH   9  11
ENDBRANCH   8   9
ENDBRANCH   1   8
BRANCH   7  13
ATOM     13  C   UNL     1       3.168   4.797  17.727  0.00  0.00    +0.000 C 
BRANCH  13  14
ATOM     14  C   UNL     1       4.678   4.753  17.543  0.00  0.00    +0.000 A 
ATOM     15  C   UNL     1       5.209   4.218  16.370  0.00  0.00    +0.000 A 
ATOM     16  C   UNL     1       6.589   4.198  16.181  0.00  0.00    +0.000 A 
ATOM     17  C   UNL     1       7.418   4.713  17.168  0.00  0.00    +0.000 A 
ATOM     18  CA  UNL     1       6.822   5.228  18.307  0.00  0.00    +0.000 A 
ATOM     19  N   UNL     1       5.469   5.268  18.529  0.00  0.00    +0.000 NA
BRANCH  18  20
ATOM     20  C   UNL     1       7.688   5.800  19.385  0.00  0.00    +0.000 C 
ATOM     21  O   UNL     1       7.819   5.334  20.503  0.00  0.00    +0.000 OA
BRANCH  20  22
ATOM     22  OXT UNL     1       8.321   6.914  18.945  0.00  0.00    +0.000 OA
ATOM     23  HXT UNL     1       7.888   7.209  18.109  0.00  0.00    +0.000 HD
ENDBRANCH  20  22
ENDBRANCH  18  20
ENDBRANCH  13  14
ENDBRANCH   7  13
TORSDOF 7
ENDMDL
MODEL 3
REMARK VINA RESULT:      -7.5      2.111      3.962
REMARK  Name = 
REMARK  9 active torsions:
REMARK  status: ('A' for Active; 'I' for Inactive)
REMARK    1  A    between atoms: C_1  and  C_2
REMARK    2  A    between atoms: C_2  and  C_3
REMARK    3  A    between atoms: C_2  and  C_4
REMARK    4  A    between atoms: C_4  and  O_5
REMARK    5  A    between atoms: O_5  and  C_6
REMARK    6  A    between atoms: C_12  and  C_13
REMARK    7  A    between atoms: C_13  and  C_14
REMARK    8  A    between atoms: CA_18  and  C_19
REMARK    9  A    between atoms: C_19  and  OXT_21
REMARK                            x       y       z     vdW  Elec       q    Type
REMARK                         _______ _______ _______ _____ _____    ______ ____
ROOT
ATOM      1  C   UNL     1       2.112   6.189  19.811  0.00  0.00    +0.000 A 
ATOM      2  C   UNL     1       1.305   5.385  20.633  0.00  0.00    +0.000 A 
ATOM      3  C   UNL     1       1.029   4.055  20.305  0.00  0.00    +0.000 A 
ATOM      4  C   UNL     1       1.545   3.512  19.138  0.00  0.00    +0.000 A 
ATOM      5 CL   UNL     1       1.221   1.871  18.743  0.00  0.00    +0.000 Cl
ATOM      6  C   UNL     1       2.322   4.296  18.290  0.00  0.00    +0.000 A 
ATOM      7  C   UNL     1       2.618   5.641  18.610  0.00  0.00    +0.000 A 
ENDROOT
BRANCH   1   8
ATOM      8  O   UNL     1       2.409   7.506  20.106  0.00  0.00    +0.000 OA
BRANCH   8   9
ATOM      9  C   UNL     1       1.338   8.258  20.704  0.00  0.00    +0.000 C 
BRANCH   9  11
ATOM     10  C   UNL     1       1.349   9.519  18.484  0.00  0.00    +0.000 C 
ATOM     11  C   UNL     1       1.021   9.574  19.971  0.00  0.00    +0.000 C 
ATOM     12  C   UNL     1      -0.430  10.009  20.184  0.00  0.00    +0.000 C 
ENDBRANCH   9  11
ENDBRANCH   8   9
ENDBRANCH   1   8
BRANCH   7  13
ATOM     13  C   UNL     1       3.473   6.421  17.627  0.00  0.00    +0.000 C 
BRANCH  13  14
ATOM     14  C   UNL     1       4.852   5.824  17.387  0.00  0.00    +0.000 A 
ATOM     15  C   UNL     1       5.675   5.545  18.478  0.00  0.00    +0.000 A 
ATOM     16  C   UNL     1       6.928   4.974  18.271  0.00  0.00    +0.000 A 
ATOM     17  C   UNL     1       7.340   4.690  16.976  0.00  0.00    +0.000 A 
ATOM     18  CA  UNL     1       6.472   4.994  15.941  0.00  0.00    +0.000 A 
ATOM     19  N   UNL     1       5.230   5.553  16.104  0.00  0.00    +0.000 NA
BRANCH  18  20
ATOM     20  C   UNL     1       6.882   4.690  14.535  0.00  0.00    +0.000 C 
ATOM     21  O   UNL     1       6.387   3.830  13.828  0.00  0.00    +0.000 OA
BRANCH  20  22
ATOM     22  OXT UNL     1       7.885   5.514  14.144  0.00  0.00    +0.000 OA
ATOM     23  HXT UNL     1       7.486   6.341  13.784  0.00  0.00    +0.000 HD
ENDBRANCH  20  22
ENDBRANCH  18  20
ENDBRANCH  13  14
ENDBRANCH   7  13
TORSDOF 7
ENDMDL
MODEL 4
REMARK VINA RESULT:      -7.5      2.762      4.498
REMARK  Name = 
REMARK  9 active torsions:
REMARK  status: ('A' for Active; 'I' for Inactive)
REMARK    1  A    between atoms: C_1  and  C_2
REMARK    2  A    between atoms: C_2  and  C_3
REMARK    3  A    between atoms: C_2  and  C_4
REMARK    4  A    between atoms: C_4  and  O_5
REMARK    5  A    between atoms: O_5  and  C_6
REMARK    6  A    between atoms: C_12  and  C_13
REMARK    7  A    between atoms: C_13  and  C_14
REMARK    8  A    between atoms: CA_18  and  C_19
REMARK    9  A    between atoms: C_19  and  OXT_21
REMARK                            x       y       z     vdW  Elec       q    Type
REMARK                         _______ _______ _______ _____ _____    ______ ____
ROOT
ATOM      1  C   UNL     1       2.147   6.103  19.659  0.00  0.00    +0.000 A 
ATOM      2  C   UNL     1       1.358   5.373  20.562  0.00  0.00    +0.000 A 
ATOM      3  C   UNL     1       1.015   4.040  20.317  0.00  0.00    +0.000 A 
ATOM      4  C   UNL     1       1.446   3.421  19.154  0.00  0.00    +0.000 A 
ATOM      5 CL   UNL     1       1.042   1.776  18.861  0.00  0.00    +0.000 Cl
ATOM      6  C   UNL     1       2.204   4.132  18.227  0.00  0.00    +0.000 A 
ATOM      7  C   UNL     1       2.565   5.478  18.461  0.00  0.00    +0.000 A 
ENDROOT
BRANCH   1   8
ATOM      8  O   UNL     1       2.507   7.421  19.870  0.00  0.00    +0.000 OA
BRANCH   8   9
ATOM      9  C   UNL     1       1.480   8.256  20.432  0.00  0.00    +0.000 C 
BRANCH   9  11
ATOM     10  C   UNL     1       1.458   9.289  18.097  0.00  0.00    +0.000 C 
ATOM     11  C   UNL     1       1.148   9.491  19.575  0.00  0.00    +0.000 C 
ATOM     12  C   UNL     1      -0.301   9.942  19.762  0.00  0.00    +0.000 C 
ENDBRANCH   9  11
ENDBRANCH   8   9
ENDBRANCH   1   8
BRANCH   7  13
ATOM     13  C   UNL     1       3.393   6.175  17.396  0.00  0.00    +0.000 C 
BRANCH  13  14
ATOM     14  C   UNL     1       4.813   5.645  17.262  0.00  0.00    +0.000 A 
ATOM     15  C   UNL     1       5.154   4.876  16.149  0.00  0.00    +0.000 A 
ATOM     16  C   UNL     1       6.458   4.410  16.003  0.00  0.00    +0.000 A 
ATOM     17  C   UNL     1       7.402   4.717  16.973  0.00  0.00    +0.000 A 
ATOM     18  CA  UNL     1       6.993   5.484  18.052  0.00  0.00    +0.000 A 
ATOM     19  N   UNL     1       5.721   5.964  18.229  0.00  0.00    +0.000 NA
BRANCH  18  20
ATOM     20  C   UNL     1       7.990   5.841  19.108  0.00  0.00    +0.000 C 
ATOM     21  O   UNL     1       8.363   5.102  20.002  0.00  0.00    +0.000 OA
BRANCH  20  22
ATOM     22  OXT UNL     1       8.435   7.109  18.933  0.00  0.00    +0.000 OA
ATOM     23  HXT UNL     1       8.626   7.243  17.975  0.00  0.00    +0.000 HD
ENDBRANCH  20  22
ENDBRANCH  18  20
ENDBRANCH  13  14
ENDBRANCH   7  13
TORSDOF 7
ENDMDL
MODEL 5
REMARK VINA RESULT:      -7.2      2.138      3.884
REMARK  Name = 
REMARK  9 active torsions:
REMARK  status: ('A' for Active; 'I' for Inactive)
REMARK    1  A    between atoms: C_1  and  C_2
REMARK    2  A    between atoms: C_2  and  C_3
REMARK    3  A    between atoms: C_2  and  C_4
REMARK    4  A    between atoms: C_4  and  O_5
REMARK    5  A    between atoms: O_5  and  C_6
REMARK    6  A    between atoms: C_12  and  C_13
REMARK    7  A    between atoms: C_13  and  C_14
REMARK    8  A    between atoms: CA_18  and  C_19
REMARK    9  A    between atoms: C_19  and  OXT_21
REMARK                            x       y       z     vdW  Elec       q    Type
REMARK                         _______ _______ _______ _____ _____    ______ ____
ROOT
ATOM      1  C   UNL     1       2.162   6.268  19.839  0.00  0.00    +0.000 A 
ATOM      2  C   UNL     1       1.363   5.480  20.683  0.00  0.00    +0.000 A 
ATOM      3  C   UNL     1       1.049   4.157  20.360  0.00  0.00    +0.000 A 
ATOM      4  C   UNL     1       1.519   3.606  19.178  0.00  0.00    +0.000 A 
ATOM      5 CL   UNL     1       1.149   1.973  18.790  0.00  0.00    +0.000 Cl
ATOM      6  C   UNL     1       2.289   4.375  18.309  0.00  0.00    +0.000 A 
ATOM      7  C   UNL     1       2.622   5.712  18.623  0.00  0.00    +0.000 A 
ENDROOT
BRANCH   1   8
ATOM      8  O   UNL     1       2.496   7.578  20.128  0.00  0.00    +0.000 OA
BRANCH   8   9
ATOM      9  C   UNL     1       1.507   8.558  19.765  0.00  0.00    +0.000 C 
BRANCH   9  11
ATOM     10  C   UNL     1       1.425   9.078  22.264  0.00  0.00    +0.000 C 
ATOM     11  C   UNL     1       0.653   9.045  20.949  0.00  0.00    +0.000 C 
ATOM     12  C   UNL     1       0.013  10.405  20.669  0.00  0.00    +0.000 C 
ENDBRANCH   9  11
ENDBRANCH   8   9
ENDBRANCH   1   8
BRANCH   7  13
ATOM     13  C   UNL     1       3.465   6.476  17.617  0.00  0.00    +0.000 C 
BRANCH  13  14
ATOM     14  C   UNL     1       4.853   5.894  17.395  0.00  0.00    +0.000 A 
ATOM     15  C   UNL     1       5.665   5.622  18.496  0.00  0.00    +0.000 A 
ATOM     16  C   UNL     1       6.926   5.063  18.304  0.00  0.00    +0.000 A 
ATOM     17  C   UNL     1       7.358   4.785  17.014  0.00  0.00    +0.000 A 
ATOM     18  CA  UNL     1       6.500   5.083  15.969  0.00  0.00    +0.000 A 
ATOM     19  N   UNL     1       5.250   5.629  16.116  0.00  0.00    +0.000 NA
BRANCH  18  20
ATOM     20  C   UNL     1       6.932   4.785  14.567  0.00  0.00    +0.000 C 
ATOM     21  O   UNL     1       7.713   5.454  13.916  0.00  0.00    +0.000 OA
BRANCH  20  22
ATOM     22  OXT UNL     1       6.337   3.654  14.116  0.00  0.00    +0.000 OA
ATOM     23  HXT UNL     1       7.041   3.006  13.878  0.00  0.00    +0.000 HD
ENDBRANCH  20  22
ENDBRANCH  18  20
ENDBRANCH  13  14
ENDBRANCH   7  13
TORSDOF 7
ENDMDL
MODEL 6
REMARK VINA RESULT:      -7.2      3.372      5.566
REMARK  Name = 
REMARK  9 active torsions:
REMARK  status: ('A' for Active; 'I' for Inactive)
REMARK    1  A    between atoms: C_1  and  C_2
REMARK    2  A    between atoms: C_2  and  C_3
REMARK    3  A    between atoms: C_2  and  C_4
REMARK    4  A    between atoms: C_4  and  O_5
REMARK    5  A    between atoms: O_5  and  C_6
REMARK    6  A    between atoms: C_12  and  C_13
REMARK    7  A    between atoms: C_13  and  C_14
REMARK    8  A    between atoms: CA_18  and  C_19
REMARK    9  A    between atoms: C_19  and  OXT_21
REMARK                            x       y       z     vdW  Elec       q    Type
REMARK                         _______ _______ _______ _____ _____    ______ ____
ROOT
ATOM      1  C   UNL     1       4.611   5.763  16.894  0.00  0.00    +0.000 A 
ATOM      2  C   UNL     1       3.295   5.934  17.355  0.00  0.00    +0.000 A 
ATOM      3  C   UNL     1       2.505   4.842  17.724  0.00  0.00    +0.000 A 
ATOM      4  C   UNL     1       3.017   3.557  17.625  0.00  0.00    +0.000 A 
ATOM      5 CL   UNL     1       2.054   2.215  18.098  0.00  0.00    +0.000 Cl
ATOM      6  C   UNL     1       4.308   3.357  17.143  0.00  0.00    +0.000 A 
ATOM      7  C   UNL     1       5.123   4.451  16.771  0.00  0.00    +0.000 A 
ENDROOT
BRANCH   1   8
ATOM      8  O   UNL     1       5.421   6.820  16.523  0.00  0.00    +0.000 OA
BRANCH   8   9
ATOM      9  C   UNL     1       6.015   7.550  17.611  0.00  0.00    +0.000 C 
BRANCH   9  11
ATOM     10  C   UNL     1       8.256   8.736  17.915  0.00  0.00    +0.000 C 
ATOM     11  C   UNL     1       7.546   7.407  17.690  0.00  0.00    +0.000 C 
ATOM     12  C   UNL     1       7.969   6.387  18.749  0.00  0.00    +0.000 C 
ENDBRANCH   9  11
ENDBRANCH   8   9
ENDBRANCH   1   8
BRANCH   7  13
ATOM     13  C   UNL     1       6.517   4.139  16.256  0.00  0.00    +0.000 C 
BRANCH  13  14
ATOM     14  C   UNL     1       6.664   4.251  14.746  0.00  0.00    +0.000 A 
ATOM     15  C   UNL     1       7.590   5.149  14.214  0.00  0.00    +0.000 A 
ATOM     16  C   UNL     1       7.751   5.240  12.833  0.00  0.00    +0.000 A 
ATOM     17  C   UNL     1       6.985   4.431  12.005  0.00  0.00    +0.000 A 
ATOM     18  CA  UNL     1       6.085   3.564  12.602  0.00  0.00    +0.000 A 
ATOM     19  N   UNL     1       5.899   3.443  13.955  0.00  0.00    +0.000 NA
BRANCH  18  20
ATOM     20  C   UNL     1       5.252   2.672  11.736  0.00  0.00    +0.000 C 
ATOM     21  O   UNL     1       4.162   2.959  11.275  0.00  0.00    +0.000 OA
BRANCH  20  22
ATOM     22  OXT UNL     1       5.883   1.492  11.524  0.00  0.00    +0.000 OA
ATOM     23  HXT UNL     1       5.256   0.881  11.069  0.00  0.00    +0.000 HD
ENDBRANCH  20  22
ENDBRANCH  18  20
ENDBRANCH  13  14
ENDBRANCH   7  13
TORSDOF 7
ENDMDL
MODEL 7
REMARK VINA RESULT:      -7.1      2.888      5.541
REMARK  Name = 
REMARK  9 active torsions:
REMARK  status: ('A' for Active; 'I' for Inactive)
REMARK    1  A    between atoms: C_1  and  C_2
REMARK    2  A    between atoms: C_2  and  C_3
REMARK    3  A    between atoms: C_2  and  C_4
REMARK    4  A    between atoms: C_4  and  O_5
REMARK    5  A    between atoms: O_5  and  C_6
REMARK    6  A    between atoms: C_12  and  C_13
REMARK    7  A    between atoms: C_13  and  C_14
REMARK    8  A    between atoms: CA_18  and  C_19
REMARK    9  A    between atoms: C_19  and  OXT_21
REMARK                            x       y       z     vdW  Elec       q    Type
REMARK                         _______ _______ _______ _____ _____    ______ ____
ROOT
ATOM      1  C   UNL     1       5.135   4.572  18.183  0.00  0.00    +0.000 A 
ATOM      2  C   UNL     1       6.531   4.484  18.316  0.00  0.00    +0.000 A 
ATOM      3  C   UNL     1       7.355   5.588  18.083  0.00  0.00    +0.000 A 
ATOM      4  C   UNL     1       6.795   6.796  17.696  0.00  0.00    +0.000 A 
ATOM      5 CL   UNL     1       7.807   8.159  17.428  0.00  0.00    +0.000 Cl
ATOM      6  C   UNL     1       5.417   6.902  17.527  0.00  0.00    +0.000 A 
ATOM      7  C   UNL     1       4.568   5.798  17.765  0.00  0.00    +0.000 A 
ENDROOT
BRANCH   1   8
ATOM      8  O   UNL     1       4.290   3.502  18.409  0.00  0.00    +0.000 OA
BRANCH   8   9
ATOM      9  C   UNL     1       4.083   3.164  19.792  0.00  0.00    +0.000 C 
BRANCH   9  11
ATOM     10  C   UNL     1       2.116   3.137  21.420  0.00  0.00    +0.000 C 
ATOM     11  C   UNL     1       2.671   2.630  20.094  0.00  0.00    +0.000 C 
ATOM     12  C   UNL     1       1.694   2.927  18.956  0.00  0.00    +0.000 C 
ENDBRANCH   9  11
ENDBRANCH   8   9
ENDBRANCH   1   8
BRANCH   7  13
ATOM     13  C   UNL     1       3.078   6.004  17.555  0.00  0.00    +0.000 C 
BRANCH  13  14
ATOM     14  C   UNL     1       2.437   6.973  18.537  0.00  0.00    +0.000 A 
ATOM     15  C   UNL     1       2.227   6.571  19.857  0.00  0.00    +0.000 A 
ATOM     16  C   UNL     1       1.665   7.460  20.770  0.00  0.00    +0.000 A 
ATOM     17  C   UNL     1       1.322   8.738  20.351  0.00  0.00    +0.000 A 
ATOM     18  CA  UNL     1       1.558   9.069  19.027  0.00  0.00    +0.000 A 
ATOM     19  N   UNL     1       2.111   8.224  18.099  0.00  0.00    +0.000 NA
BRANCH  18  20
ATOM     20  C   UNL     1       1.209  10.442  18.548  0.00  0.00    +0.000 C 
ATOM     21  O   UNL     1       0.349  11.158  19.030  0.00  0.00    +0.000 OA
BRANCH  20  22
ATOM     22  OXT UNL     1       1.990  10.793  17.498  0.00  0.00    +0.000 OA
ATOM     23  HXT UNL     1       1.592  10.423  16.675  0.00  0.00    +0.000 HD
ENDBRANCH  20  22
ENDBRANCH  18  20
ENDBRANCH  13  14
ENDBRANCH   7  13
TORSDOF 7
ENDMDL
MODEL 8
REMARK VINA RESULT:      -7.1      3.306      6.557
REMARK  Name = 
REMARK  9 active torsions:
REMARK  status: ('A' for Active; 'I' for Inactive)
REMARK    1  A    between atoms: C_1  and  C_2
REMARK    2  A    between atoms: C_2  and  C_3
REMARK    3  A    between atoms: C_2  and  C_4
REMARK    4  A    between atoms: C_4  and  O_5
REMARK    5  A    between atoms: O_5  and  C_6
REMARK    6  A    between atoms: C_12  and  C_13
REMARK    7  A    between atoms: C_13  and  C_14
REMARK    8  A    between atoms: CA_18  and  C_19
REMARK    9  A    between atoms: C_19  and  OXT_21
REMARK                            x       y       z     vdW  Elec       q    Type
REMARK                         _______ _______ _______ _____ _____    ______ ____
ROOT
ATOM      1  C   UNL     1       4.359   4.885  19.111  0.00  0.00    +0.000 A 
ATOM      2  C   UNL     1       4.347   3.551  19.551  0.00  0.00    +0.000 A 
ATOM      3  C   UNL     1       3.220   2.741  19.387  0.00  0.00    +0.000 A 
ATOM      4  C   UNL     1       2.081   3.258  18.791  0.00  0.00    +0.000 A 
ATOM      5 CL   UNL     1       0.702   2.256  18.570  0.00  0.00    +0.000 Cl
ATOM      6  C   UNL     1       2.056   4.586  18.372  0.00  0.00    +0.000 A 
ATOM      7  C   UNL     1       3.188   5.418  18.525  0.00  0.00    +0.000 A 
ENDROOT
BRANCH   1   8
ATOM      8  O   UNL     1       5.456   5.714  19.254  0.00  0.00    +0.000 OA
BRANCH   8   9
ATOM      9  C   UNL     1       6.735   5.073  19.101  0.00  0.00    +0.000 C 
BRANCH   9  11
ATOM     10  C   UNL     1       7.100   4.576  16.623  0.00  0.00    +0.000 C 
ATOM     11  C   UNL     1       7.471   5.462  17.807  0.00  0.00    +0.000 C 
ATOM     12  C   UNL     1       7.268   6.937  17.457  0.00  0.00    +0.000 C 
ENDBRANCH   9  11
ENDBRANCH   8   9
ENDBRANCH   1   8
BRANCH   7  13
ATOM     13  C   UNL     1       3.071   6.852  18.041  0.00  0.00    +0.000 C 
BRANCH  13  14
ATOM     14  C   UNL     1       2.208   7.741  18.924  0.00  0.00    +0.000 A 
ATOM     15  C   UNL     1       2.014   7.396  20.262  0.00  0.00    +0.000 A 
ATOM     16  C   UNL     1       1.248   8.217  21.085  0.00  0.00    +0.000 A 
ATOM     17  C   UNL     1       0.686   9.372  20.559  0.00  0.00    +0.000 A 
ATOM     18  CA  UNL     1       0.918   9.652  19.222  0.00  0.00    +0.000 A 
ATOM     19  N   UNL     1       1.669   8.871  18.381  0.00  0.00    +0.000 NA
BRANCH  18  20
ATOM     20  C   UNL     1       0.334  10.895  18.629  0.00  0.00    +0.000 C 
ATOM     21  O   UNL     1       0.695  12.031  18.880  0.00  0.00    +0.000 OA
BRANCH  20  22
ATOM     22  OXT UNL     1      -0.656  10.586  17.757  0.00  0.00    +0.000 OA
ATOM     23  HXT UNL     1      -0.370  10.853  16.852  0.00  0.00    +0.000 HD
ENDBRANCH  20  22
ENDBRANCH  18  20
ENDBRANCH  13  14
ENDBRANCH   7  13
TORSDOF 7
ENDMDL
MODEL 9
REMARK VINA RESULT:      -7.0      2.843      6.076
REMARK  Name = 
REMARK  9 active torsions:
REMARK  status: ('A' for Active; 'I' for Inactive)
REMARK    1  A    between atoms: C_1  and  C_2
REMARK    2  A    between atoms: C_2  and  C_3
REMARK    3  A    between atoms: C_2  and  C_4
REMARK    4  A    between atoms: C_4  and  O_5
REMARK    5  A    between atoms: O_5  and  C_6
REMARK    6  A    between atoms: C_12  and  C_13
REMARK    7  A    between atoms: C_13  and  C_14
REMARK    8  A    between atoms: CA_18  and  C_19
REMARK    9  A    between atoms: C_19  and  OXT_21
REMARK                            x       y       z     vdW  Elec       q    Type
REMARK                         _______ _______ _______ _____ _____    ______ ____
ROOT
ATOM      1  C   UNL     1       3.731   4.448  17.300  0.00  0.00    +0.000 A 
ATOM      2  C   UNL     1       4.726   4.228  16.335  0.00  0.00    +0.000 A 
ATOM      3  C   UNL     1       5.896   4.993  16.309  0.00  0.00    +0.000 A 
ATOM      4  C   UNL     1       6.080   6.001  17.242  0.00  0.00    +0.000 A 
ATOM      5 CL   UNL     1       7.528   6.928  17.223  0.00  0.00    +0.000 Cl
ATOM      6  C   UNL     1       5.096   6.259  18.192  0.00  0.00    +0.000 A 
ATOM      7  C   UNL     1       3.910   5.492  18.237  0.00  0.00    +0.000 A 
ENDROOT
BRANCH   1   8
ATOM      8  O   UNL     1       2.563   3.710  17.358  0.00  0.00    +0.000 OA
BRANCH   8   9
ATOM      9  C   UNL     1       2.715   2.356  17.822  0.00  0.00    +0.000 C 
BRANCH   9  11
ATOM     10  C   UNL     1       2.979   2.423  20.361  0.00  0.00    +0.000 C 
ATOM     11  C   UNL     1       2.060   2.094  19.190  0.00  0.00    +0.000 C 
ATOM     12  C   UNL     1       0.726   2.827  19.334  0.00  0.00    +0.000 C 
ENDBRANCH   9  11
ENDBRANCH   8   9
ENDBRANCH   1   8
BRANCH   7  13
ATOM     13  C   UNL     1       2.890   5.844  19.306  0.00  0.00    +0.000 C 
BRANCH  13  14
ATOM     14  C   UNL     1       2.307   7.244  19.176  0.00  0.00    +0.000 A 
ATOM     15  C   UNL     1       2.279   7.860  17.924  0.00  0.00    +0.000 A 
ATOM     16  C   UNL     1       1.723   9.129  17.791  0.00  0.00    +0.000 A 
ATOM     17  C   UNL     1       1.204   9.765  18.910  0.00  0.00    +0.000 A 
ATOM     18  CA  UNL     1       1.267   9.096  20.121  0.00  0.00    +0.000 A 
ATOM     19  N   UNL     1       1.803   7.845  20.292  0.00  0.00    +0.000 NA
BRANCH  18  20
ATOM     20  C   UNL     1       0.706   9.750  21.343  0.00  0.00    +0.000 C 
ATOM     21  O   UNL     1       1.323   9.961  22.373  0.00  0.00    +0.000 OA
BRANCH  20  22
ATOM     22  OXT UNL     1      -0.591  10.090  21.149  0.00  0.00    +0.000 OA
ATOM     23  HXT UNL     1      -1.116   9.768  21.919  0.00  0.00    +0.000 HD
ENDBRANCH  20  22
ENDBRANCH  18  20
ENDBRANCH  13  14
ENDBRANCH   7  13
TORSDOF 7
ENDMDL
