MODEL 1
REMARK VINA RESULT:      -9.2      0.000      0.000
REMARK  Name = 
REMARK  9 active torsions:
REMARK  status: ('A' for Active; 'I' for Inactive)
REMARK    1  A    between atoms: C_1  and  C_2
REMARK    2  A    between atoms: C_2  and  C_3
REMARK    3  A    between atoms: C_3  and  C_4
REMARK    4  A    between atoms: C_4  and  O_5
REMARK    5  A    between atoms: O_5  and  C_6
REMARK    6  A    between atoms: C_6  and  C_8
REMARK    7  A    between atoms: C_11  and  N_12
REMARK    8  A    between atoms: C_18  and  C_19
REMARK    9  A    between atoms: C_19  and  C_21
REMARK                            x       y       z     vdW  Elec       q    Type
REMARK                         _______ _______ _______ _____ _____    ______ ____
ROOT
ATOM      1  N   UNL     1       1.705   9.074  19.899  0.00  0.00    +0.000 N 
ATOM      2  C   UNL     1       0.484   9.671  19.674  0.00  0.00    +0.000 A 
ATOM      3  N   UNL     1      -0.102   9.586  18.503  0.00  0.00    +0.000 NA
ATOM      4  C   UNL     1      -1.295  10.288  18.242  0.00  0.00    +0.000 A 
ATOM      5  C   UNL     1      -2.068   9.982  17.134  0.00  0.00    +0.000 A 
ATOM      6  C   UNL     1      -3.343  10.559  16.973  0.00  0.00    +0.000 A 
ATOM      7  C   UNL     1      -3.859  11.450  17.925  0.00  0.00    +0.000 A 
ATOM      8  C   UNL     1      -3.041  11.845  18.991  0.00  0.00    +0.000 A 
ATOM      9  C   UNL     1      -1.767  11.287  19.093  0.00  0.00    +0.000 A 
ATOM     10  N   UNL     1      -0.962  11.538  20.197  0.00  0.00    +0.000 N 
ATOM     11  C   UNL     1      -0.242  12.667  20.493  0.00  0.00    +0.000 A 
ATOM     12  N   UNL     1       0.412  12.434  21.616  0.00  0.00    +0.000 NA
ATOM     13  N   UNL     1       0.437  11.052  21.773  0.00  0.00    +0.000 NA
ATOM     14  C   UNL     1      -0.104  10.583  20.660  0.00  0.00    +0.000 A 
ATOM     15  H   UNL     1       2.317   9.549  20.552  0.00  0.00    +0.000 HD
ENDROOT
BRANCH   1  19
ATOM     16  C   UNL     1       3.232   5.620  17.987  0.00  0.00    +0.000 A 
ATOM     17  C   UNL     1       2.605   5.531  19.235  0.00  0.00    +0.000 A 
ATOM     18  C   UNL     1       2.091   6.681  19.853  0.00  0.00    +0.000 A 
ATOM     19  C   UNL     1       2.232   7.943  19.261  0.00  0.00    +0.000 A 
ATOM     20  C   UNL     1       2.919   8.019  18.041  0.00  0.00    +0.000 A 
ATOM     21  C   UNL     1       3.385   6.873  17.393  0.00  0.00    +0.000 A 
BRANCH  16  22
ATOM     22  C   UNL     1       3.716   4.404  17.307  0.00  0.00    +0.000 C 
ATOM     23  O   UNL     1       2.999   3.408  17.095  0.00  0.00    +0.000 OA
BRANCH  22  24
ATOM     24  O   UNL     1       5.028   4.500  17.013  0.00  0.00    +0.000 OA
BRANCH  24  25
ATOM     25  C   UNL     1       5.882   4.409  18.160  0.00  0.00    +0.000 C 
BRANCH  25  26
ATOM     26  C   UNL     1       7.291   4.871  17.823  0.00  0.00    +0.000 C 
BRANCH  26  28
ATOM     27  C   UNL     1       7.547   7.374  17.551  0.00  0.00    +0.000 C 
ATOM     28  C   UNL     1       7.604   6.199  18.513  0.00  0.00    +0.000 C 
ENDBRANCH  26  28
ENDBRANCH  25  26
ENDBRANCH  24  25
ENDBRANCH  22  24
ENDBRANCH  16  22
ENDBRANCH   1  19
BRANCH   7  29
ATOM     29  C   UNL     1      -5.302  11.849  17.843  0.00  0.00    +0.000 C 
ATOM     30  O   UNL     1      -5.714  12.485  16.874  0.00  0.00    +0.000 OA
BRANCH  29  31
ATOM     31  C   UNL     1      -6.264  11.427  18.894  0.00  0.00    +0.000 A 
ATOM     32  C   UNL     1      -6.609  10.073  19.026  0.00  0.00    +0.000 A 
ATOM     33  C   UNL     1      -7.433   9.671  20.077  0.00  0.00    +0.000 A 
ATOM     34  C   UNL     1      -7.908  10.613  20.993  0.00  0.00    +0.000 A 
ATOM     35  C   UNL     1      -7.589  11.961  20.846  0.00  0.00    +0.000 A 
ATOM     36  C   UNL     1      -6.789  12.371  19.783  0.00  0.00    +0.000 A 
ENDBRANCH  29  31
ENDBRANCH   7  29
TORSDOF 8
ENDMDL
MODEL 2
REMARK VINA RESULT:      -9.0      3.318     10.804
REMARK  Name = 
REMARK  9 active torsions:
REMARK  status: ('A' for Active; 'I' for Inactive)
REMARK    1  A    between atoms: C_1  and  C_2
REMARK    2  A    between atoms: C_2  and  C_3
REMARK    3  A    between atoms: C_3  and  C_4
REMARK    4  A    between atoms: C_4  and  O_5
REMARK    5  A    between atoms: O_5  and  C_6
REMARK    6  A    between atoms: C_6  and  C_8
REMARK    7  A    between atoms: C_11  and  N_12
REMARK    8  A    between atoms: C_18  and  C_19
REMARK    9  A    between atoms: C_19  and  C_21
REMARK                            x       y       z     vdW  Elec       q    Type
REMARK                         _______ _______ _______ _____ _____    ______ ____
ROOT
ATOM      1  N   UNL     1       1.148   6.936  20.940  0.00  0.00    +0.000 N 
ATOM      2  C   UNL     1       2.141   6.392  20.155  0.00  0.00    +0.000 A 
ATOM      3  N   UNL     1       2.492   6.959  19.026  0.00  0.00    +0.000 NA
ATOM      4  C   UNL     1       3.428   6.344  18.172  0.00  0.00    +0.000 A 
ATOM      5  C   UNL     1       4.019   7.054  17.140  0.00  0.00    +0.000 A 
ATOM      6  C   UNL     1       5.080   6.493  16.404  0.00  0.00    +0.000 A 
ATOM      7  C   UNL     1       5.563   5.209  16.696  0.00  0.00    +0.000 A 
ATOM      8  C   UNL     1       4.901   4.445  17.665  0.00  0.00    +0.000 A 
ATOM      9  C   UNL     1       3.826   5.018  18.343  0.00  0.00    +0.000 A 
ATOM     10  N   UNL     1       3.216   4.361  19.404  0.00  0.00    +0.000 N 
ATOM     11  C   UNL     1       2.337   3.308  19.368  0.00  0.00    +0.000 A 
ATOM     12  N   UNL     1       1.981   3.049  20.613  0.00  0.00    +0.000 NA
ATOM     13  N   UNL     1       2.291   4.187  21.351  0.00  0.00    +0.000 NA
ATOM     14  C   UNL     1       2.695   5.067  20.448  0.00  0.00    +0.000 A 
ATOM     15  H   UNL     1       0.585   6.276  21.465  0.00  0.00    +0.000 HD
ENDROOT
BRANCH   1  19
ATOM     16  C   UNL     1       0.016  11.002  21.270  0.00  0.00    +0.000 A 
ATOM     17  C   UNL     1      -0.440  10.053  22.193  0.00  0.00    +0.000 A 
ATOM     18  C   UNL     1      -0.048   8.710  22.081  0.00  0.00    +0.000 A 
ATOM     19  C   UNL     1       0.768   8.283  21.025  0.00  0.00    +0.000 A 
ATOM     20  C   UNL     1       1.162   9.237  20.076  0.00  0.00    +0.000 A 
ATOM     21  C   UNL     1       0.822  10.584  20.210  0.00  0.00    +0.000 A 
BRANCH  16  22
ATOM     22  C   UNL     1      -0.344  12.423  21.424  0.00  0.00    +0.000 C 
ATOM     23  O   UNL     1      -0.039  13.103  22.422  0.00  0.00    +0.000 OA
BRANCH  22  24
ATOM     24  O   UNL     1      -1.085  12.853  20.383  0.00  0.00    +0.000 OA
BRANCH  24  25
ATOM     25  C   UNL     1      -2.495  12.673  20.569  0.00  0.00    +0.000 C 
BRANCH  25  26
ATOM     26  C   UNL     1      -3.139  12.114  19.311  0.00  0.00    +0.000 C 
BRANCH  26  28
ATOM     27  C   UNL     1      -2.056  10.261  17.971  0.00  0.00    +0.000 C 
ATOM     28  C   UNL     1      -2.077  11.750  18.274  0.00  0.00    +0.000 C 
ENDBRANCH  26  28
ENDBRANCH  25  26
ENDBRANCH  24  25
ENDBRANCH  22  24
ENDBRANCH  16  22
ENDBRANCH   1  19
BRANCH   7  29
ATOM     29  C   UNL     1       6.840   4.748  16.058  0.00  0.00    +0.000 C 
ATOM     30  O   UNL     1       7.824   4.499  16.752  0.00  0.00    +0.000 OA
BRANCH  29  31
ATOM     31  C   UNL     1       6.913   4.522  14.591  0.00  0.00    +0.000 A 
ATOM     32  C   UNL     1       6.073   3.577  13.983  0.00  0.00    +0.000 A 
ATOM     33  C   UNL     1       6.076   3.443  12.595  0.00  0.00    +0.000 A 
ATOM     34  C   UNL     1       6.910   4.248  11.817  0.00  0.00    +0.000 A 
ATOM     35  C   UNL     1       7.765   5.167  12.421  0.00  0.00    +0.000 A 
ATOM     36  C   UNL     1       7.785   5.286  13.808  0.00  0.00    +0.000 A 
ENDBRANCH  29  31
ENDBRANCH   7  29
TORSDOF 8
ENDMDL
MODEL 3
REMARK VINA RESULT:      -9.0      1.266      2.325
REMARK  Name = 
REMARK  9 active torsions:
REMARK  status: ('A' for Active; 'I' for Inactive)
REMARK    1  A    between atoms: C_1  and  C_2
REMARK    2  A    between atoms: C_2  and  C_3
REMARK    3  A    between atoms: C_3  and  C_4
REMARK    4  A    between atoms: C_4  and  O_5
REMARK    5  A    between atoms: O_5  and  C_6
REMARK    6  A    between atoms: C_6  and  C_8
REMARK    7  A    between atoms: C_11  and  N_12
REMARK    8  A    between atoms: C_18  and  C_19
REMARK    9  A    between atoms: C_19  and  C_21
REMARK                            x       y       z     vdW  Elec       q    Type
REMARK                         _______ _______ _______ _____ _____    ______ ____
ROOT
ATOM      1  N   UNL     1       1.742   9.206  19.907  0.00  0.00    +0.000 N 
ATOM      2  C   UNL     1       0.508   9.772  19.676  0.00  0.00    +0.000 A 
ATOM      3  N   UNL     1      -0.080   9.651  18.510  0.00  0.00    +0.000 NA
ATOM      4  C   UNL     1      -1.289  10.322  18.240  0.00  0.00    +0.000 A 
ATOM      5  C   UNL     1      -2.059   9.977  17.141  0.00  0.00    +0.000 A 
ATOM      6  C   UNL     1      -3.347  10.523  16.974  0.00  0.00    +0.000 A 
ATOM      7  C   UNL     1      -3.878  11.423  17.910  0.00  0.00    +0.000 A 
ATOM      8  C   UNL     1      -3.065  11.856  18.964  0.00  0.00    +0.000 A 
ATOM      9  C   UNL     1      -1.779  11.327  19.072  0.00  0.00    +0.000 A 
ATOM     10  N   UNL     1      -0.976  11.618  20.167  0.00  0.00    +0.000 N 
ATOM     11  C   UNL     1      -0.279  12.768  20.438  0.00  0.00    +0.000 A 
ATOM     12  N   UNL     1       0.385  12.572  21.563  0.00  0.00    +0.000 NA
ATOM     13  N   UNL     1       0.440  11.194  21.747  0.00  0.00    +0.000 NA
ATOM     14  C   UNL     1      -0.095  10.691  20.646  0.00  0.00    +0.000 A 
ATOM     15  H   UNL     1       2.347   9.707  20.549  0.00  0.00    +0.000 HD
ENDROOT
BRANCH   1  19
ATOM     16  C   UNL     1       3.339   5.746  18.065  0.00  0.00    +0.000 A 
ATOM     17  C   UNL     1       2.815   5.691  19.362  0.00  0.00    +0.000 A 
ATOM     18  C   UNL     1       2.276   6.842  19.958  0.00  0.00    +0.000 A 
ATOM     19  C   UNL     1       2.291   8.074  19.290  0.00  0.00    +0.000 A 
ATOM     20  C   UNL     1       2.878   8.120  18.018  0.00  0.00    +0.000 A 
ATOM     21  C   UNL     1       3.366   6.970  17.396  0.00  0.00    +0.000 A 
BRANCH  16  22
ATOM     22  C   UNL     1       3.847   4.524  17.414  0.00  0.00    +0.000 C 
ATOM     23  O   UNL     1       4.260   4.495  16.240  0.00  0.00    +0.000 OA
BRANCH  22  24
ATOM     24  O   UNL     1       3.744   3.457  18.233  0.00  0.00    +0.000 OA
BRANCH  24  25
ATOM     25  C   UNL     1       2.923   2.406  17.706  0.00  0.00    +0.000 C 
BRANCH  25  26
ATOM     26  C   UNL     1       2.085   1.773  18.804  0.00  0.00    +0.000 C 
BRANCH  26  28
ATOM     27  C   UNL     1       0.842   3.153  20.523  0.00  0.00    +0.000 C 
ATOM     28  C   UNL     1       0.848   2.622  19.099  0.00  0.00    +0.000 C 
ENDBRANCH  26  28
ENDBRANCH  25  26
ENDBRANCH  24  25
ENDBRANCH  22  24
ENDBRANCH  16  22
ENDBRANCH   1  19
BRANCH   7  29
ATOM     29  C   UNL     1      -5.330  11.789  17.826  0.00  0.00    +0.000 C 
ATOM     30  O   UNL     1      -5.761  12.387  16.842  0.00  0.00    +0.000 OA
BRANCH  29  31
ATOM     31  C   UNL     1      -6.276  11.377  18.895  0.00  0.00    +0.000 A 
ATOM     32  C   UNL     1      -6.652  10.031  19.020  0.00  0.00    +0.000 A 
ATOM     33  C   UNL     1      -7.460   9.637  20.087  0.00  0.00    +0.000 A 
ATOM     34  C   UNL     1      -7.889  10.579  21.024  0.00  0.00    +0.000 A 
ATOM     35  C   UNL     1      -7.540  11.920  20.884  0.00  0.00    +0.000 A 
ATOM     36  C   UNL     1      -6.756  12.324  19.807  0.00  0.00    +0.000 A 
ENDBRANCH  29  31
ENDBRANCH   7  29
TORSDOF 8
ENDMDL
MODEL 4
REMARK VINA RESULT:      -9.0      3.726     11.139
REMARK  Name = 
REMARK  9 active torsions:
REMARK  status: ('A' for Active; 'I' for Inactive)
REMARK    1  A    between atoms: C_1  and  C_2
REMARK    2  A    between atoms: C_2  and  C_3
REMARK    3  A    between atoms: C_3  and  C_4
REMARK    4  A    between atoms: C_4  and  O_5
REMARK    5  A    between atoms: O_5  and  C_6
REMARK    6  A    between atoms: C_6  and  C_8
REMARK    7  A    between atoms: C_11  and  N_12
REMARK    8  A    between atoms: C_18  and  C_19
REMARK    9  A    between atoms: C_19  and  C_21
REMARK                            x       y       z     vdW  Elec       q    Type
REMARK                         _______ _______ _______ _____ _____    ______ ____
ROOT
ATOM      1  N   UNL     1       1.180   6.919  21.054  0.00  0.00    +0.000 N 
ATOM      2  C   UNL     1       2.148   6.386  20.231  0.00  0.00    +0.000 A 
ATOM      3  N   UNL     1       2.501   6.997  19.125  0.00  0.00    +0.000 NA
ATOM      4  C   UNL     1       3.410   6.397  18.231  0.00  0.00    +0.000 A 
ATOM      5  C   UNL     1       4.008   7.140  17.226  0.00  0.00    +0.000 A 
ATOM      6  C   UNL     1       5.045   6.586  16.450  0.00  0.00    +0.000 A 
ATOM      7  C   UNL     1       5.495   5.276  16.674  0.00  0.00    +0.000 A 
ATOM      8  C   UNL     1       4.823   4.485  17.615  0.00  0.00    +0.000 A 
ATOM      9  C   UNL     1       3.772   5.055  18.333  0.00  0.00    +0.000 A 
ATOM     10  N   UNL     1       3.156   4.364  19.369  0.00  0.00    +0.000 N 
ATOM     11  C   UNL     1       2.248   3.339  19.294  0.00  0.00    +0.000 A 
ATOM     12  N   UNL     1       1.899   3.030  20.530  0.00  0.00    +0.000 NA
ATOM     13  N   UNL     1       2.250   4.123  21.317  0.00  0.00    +0.000 NA
ATOM     14  C   UNL     1       2.667   5.033  20.453  0.00  0.00    +0.000 A 
ATOM     15  H   UNL     1       0.605   6.249  21.553  0.00  0.00    +0.000 HD
ENDROOT
BRANCH   1  19
ATOM     16  C   UNL     1       0.186  10.999  21.585  0.00  0.00    +0.000 A 
ATOM     17  C   UNL     1      -0.001  10.074  22.619  0.00  0.00    +0.000 A 
ATOM     18  C   UNL     1       0.344   8.727  22.436  0.00  0.00    +0.000 A 
ATOM     19  C   UNL     1       0.839   8.269  21.207  0.00  0.00    +0.000 A 
ATOM     20  C   UNL     1       0.959   9.199  20.165  0.00  0.00    +0.000 A 
ATOM     21  C   UNL     1       0.670  10.552  20.355  0.00  0.00    +0.000 A 
BRANCH  16  22
ATOM     22  C   UNL     1      -0.117  12.426  21.798  0.00  0.00    +0.000 C 
ATOM     23  O   UNL     1       0.162  13.316  20.972  0.00  0.00    +0.000 OA
BRANCH  22  24
ATOM     24  O   UNL     1      -0.668  12.631  23.011  0.00  0.00    +0.000 OA
BRANCH  24  25
ATOM     25  C   UNL     1      -1.844  13.450  22.975  0.00  0.00    +0.000 C 
BRANCH  25  26
ATOM     26  C   UNL     1      -3.035  12.665  22.451  0.00  0.00    +0.000 C 
BRANCH  26  28
ATOM     27  C   UNL     1      -4.247  12.432  24.661  0.00  0.00    +0.000 C 
ATOM     28  C   UNL     1      -4.296  12.995  23.250  0.00  0.00    +0.000 C 
ENDBRANCH  26  28
ENDBRANCH  25  26
ENDBRANCH  24  25
ENDBRANCH  22  24
ENDBRANCH  16  22
ENDBRANCH   1  19
BRANCH   7  29
ATOM     29  C   UNL     1       6.750   4.811  15.999  0.00  0.00    +0.000 C 
ATOM     30  O   UNL     1       7.742   4.524  16.666  0.00  0.00    +0.000 OA
BRANCH  29  31
ATOM     31  C   UNL     1       6.792   4.629  14.525  0.00  0.00    +0.000 A 
ATOM     32  C   UNL     1       7.678   5.390  13.747  0.00  0.00    +0.000 A 
ATOM     33  C   UNL     1       7.783   5.142  12.379  0.00  0.00    +0.000 A 
ATOM     34  C   UNL     1       7.011   4.139  11.789  0.00  0.00    +0.000 A 
ATOM     35  C   UNL     1       6.110   3.402  12.555  0.00  0.00    +0.000 A 
ATOM     36  C   UNL     1       5.982   3.664  13.916  0.00  0.00    +0.000 A 
ENDBRANCH  29  31
ENDBRANCH   7  29
TORSDOF 8
ENDMDL
MODEL 5
REMARK VINA RESULT:      -8.9      1.090      1.301
REMARK  Name = 
REMARK  9 active torsions:
REMARK  status: ('A' for Active; 'I' for Inactive)
REMARK    1  A    between atoms: C_1  and  C_2
REMARK    2  A    between atoms: C_2  and  C_3
REMARK    3  A    between atoms: C_3  and  C_4
REMARK    4  A    between atoms: C_4  and  O_5
REMARK    5  A    between atoms: O_5  and  C_6
REMARK    6  A    between atoms: C_6  and  C_8
REMARK    7  A    between atoms: C_11  and  N_12
REMARK    8  A    between atoms: C_18  and  C_19
REMARK    9  A    between atoms: C_19  and  C_21
REMARK                            x       y       z     vdW  Elec       q    Type
REMARK                         _______ _______ _______ _____ _____    ______ ____
ROOT
ATOM      1  N   UNL     1       1.587   9.048  19.989  0.00  0.00    +0.000 N 
ATOM      2  C   UNL     1       0.387   9.689  19.772  0.00  0.00    +0.000 A 
ATOM      3  N   UNL     1      -0.230   9.589  18.619  0.00  0.00    +0.000 NA
ATOM      4  C   UNL     1      -1.399  10.333  18.362  0.00  0.00    +0.000 A 
ATOM      5  C   UNL     1      -2.212  10.024  17.284  0.00  0.00    +0.000 A 
ATOM      6  C   UNL     1      -3.464  10.648  17.132  0.00  0.00    +0.000 A 
ATOM      7  C   UNL     1      -3.919  11.592  18.065  0.00  0.00    +0.000 A 
ATOM      8  C   UNL     1      -3.059  11.987  19.097  0.00  0.00    +0.000 A 
ATOM      9  C   UNL     1      -1.808  11.379  19.189  0.00  0.00    +0.000 A 
ATOM     10  N   UNL     1      -0.966  11.632  20.265  0.00  0.00    +0.000 N 
ATOM     11  C   UNL     1      -0.192  12.738  20.505  0.00  0.00    +0.000 A 
ATOM     12  N   UNL     1       0.479  12.515  21.620  0.00  0.00    +0.000 NA
ATOM     13  N   UNL     1       0.450  11.139  21.823  0.00  0.00    +0.000 NA
ATOM     14  C   UNL     1      -0.138  10.657  20.740  0.00  0.00    +0.000 A 
ATOM     15  H   UNL     1       2.235   9.518  20.612  0.00  0.00    +0.000 HD
ENDROOT
BRANCH   1  19
ATOM     16  C   UNL     1       2.921   5.470  18.163  0.00  0.00    +0.000 A 
ATOM     17  C   UNL     1       2.341   5.452  19.437  0.00  0.00    +0.000 A 
ATOM     18  C   UNL     1       1.890   6.643  20.027  0.00  0.00    +0.000 A 
ATOM     19  C   UNL     1       2.050   7.875  19.378  0.00  0.00    +0.000 A 
ATOM     20  C   UNL     1       2.692   7.878  18.132  0.00  0.00    +0.000 A 
ATOM     21  C   UNL     1       3.093   6.692  17.513  0.00  0.00    +0.000 A 
BRANCH  16  22
ATOM     22  C   UNL     1       3.336   4.212  17.516  0.00  0.00    +0.000 C 
ATOM     23  O   UNL     1       2.534   3.406  17.007  0.00  0.00    +0.000 OA
BRANCH  22  24
ATOM     24  O   UNL     1       4.670   4.034  17.608  0.00  0.00    +0.000 OA
BRANCH  24  25
ATOM     25  C   UNL     1       5.312   3.842  16.340  0.00  0.00    +0.000 C 
BRANCH  25  26
ATOM     26  C   UNL     1       6.141   5.059  15.965  0.00  0.00    +0.000 C 
BRANCH  26  28
ATOM     27  C   UNL     1       6.077   3.871  13.731  0.00  0.00    +0.000 C 
ATOM     28  C   UNL     1       6.832   4.848  14.617  0.00  0.00    +0.000 C 
ENDBRANCH  26  28
ENDBRANCH  25  26
ENDBRANCH  24  25
ENDBRANCH  22  24
ENDBRANCH  16  22
ENDBRANCH   1  19
BRANCH   7  29
ATOM     29  C   UNL     1      -5.346  12.050  18.003  0.00  0.00    +0.000 C 
ATOM     30  O   UNL     1      -5.765  12.636  17.006  0.00  0.00    +0.000 OA
BRANCH  29  31
ATOM     31  C   UNL     1      -6.287  11.743  19.111  0.00  0.00    +0.000 A 
ATOM     32  C   UNL     1      -6.766  10.436  19.284  0.00  0.00    +0.000 A 
ATOM     33  C   UNL     1      -7.568  10.135  20.385  0.00  0.00    +0.000 A 
ATOM     34  C   UNL     1      -7.888  11.132  21.310  0.00  0.00    +0.000 A 
ATOM     35  C   UNL     1      -7.436  12.436  21.124  0.00  0.00    +0.000 A 
ATOM     36  C   UNL     1      -6.658  12.747  20.013  0.00  0.00    +0.000 A 
ENDBRANCH  29  31
ENDBRANCH   7  29
TORSDOF 8
ENDMDL
MODEL 6
REMARK VINA RESULT:      -8.7      4.198     10.697
REMARK  Name = 
REMARK  9 active torsions:
REMARK  status: ('A' for Active; 'I' for Inactive)
REMARK    1  A    between atoms: C_1  and  C_2
REMARK    2  A    between atoms: C_2  and  C_3
REMARK    3  A    between atoms: C_3  and  C_4
REMARK    4  A    between atoms: C_4  and  O_5
REMARK    5  A    between atoms: O_5  and  C_6
REMARK    6  A    between atoms: C_6  and  C_8
REMARK    7  A    between atoms: C_11  and  N_12
REMARK    8  A    between atoms: C_18  and  C_19
REMARK    9  A    between atoms: C_19  and  C_21
REMARK                            x       y       z     vdW  Elec       q    Type
REMARK                         _______ _______ _______ _____ _____    ______ ____
ROOT
ATOM      1  N   UNL     1       1.217   6.981  20.993  0.00  0.00    +0.000 N 
ATOM      2  C   UNL     1       2.197   6.428  20.198  0.00  0.00    +0.000 A 
ATOM      3  N   UNL     1       2.545   6.994  19.067  0.00  0.00    +0.000 NA
ATOM      4  C   UNL     1       3.468   6.371  18.204  0.00  0.00    +0.000 A 
ATOM      5  C   UNL     1       4.058   7.077  17.169  0.00  0.00    +0.000 A 
ATOM      6  C   UNL     1       5.107   6.506  16.423  0.00  0.00    +0.000 A 
ATOM      7  C   UNL     1       5.579   5.216  16.708  0.00  0.00    +0.000 A 
ATOM      8  C   UNL     1       4.916   4.457  17.681  0.00  0.00    +0.000 A 
ATOM      9  C   UNL     1       3.853   5.041  18.369  0.00  0.00    +0.000 A 
ATOM     10  N   UNL     1       3.244   4.387  19.433  0.00  0.00    +0.000 N 
ATOM     11  C   UNL     1       2.354   3.344  19.402  0.00  0.00    +0.000 A 
ATOM     12  N   UNL     1       2.005   3.086  20.649  0.00  0.00    +0.000 NA
ATOM     13  N   UNL     1       2.333   4.219  21.387  0.00  0.00    +0.000 NA
ATOM     14  C   UNL     1       2.739   5.096  20.484  0.00  0.00    +0.000 A 
ATOM     15  H   UNL     1       0.651   6.325  21.520  0.00  0.00    +0.000 HD
ENDROOT
BRANCH   1  19
ATOM     16  C   UNL     1       0.138  11.060  21.339  0.00  0.00    +0.000 A 
ATOM     17  C   UNL     1      -0.228  10.135  22.324  0.00  0.00    +0.000 A 
ATOM     18  C   UNL     1       0.146   8.787  22.205  0.00  0.00    +0.000 A 
ATOM     19  C   UNL     1       0.852   8.331  21.083  0.00  0.00    +0.000 A 
ATOM     20  C   UNL     1       1.154   9.261  20.078  0.00  0.00    +0.000 A 
ATOM     21  C   UNL     1       0.833  10.614  20.214  0.00  0.00    +0.000 A 
BRANCH  16  22
ATOM     22  C   UNL     1      -0.199  12.486  21.495  0.00  0.00    +0.000 C 
ATOM     23  O   UNL     1       0.266  13.205  22.399  0.00  0.00    +0.000 OA
BRANCH  22  24
ATOM     24  O   UNL     1      -1.108  12.875  20.577  0.00  0.00    +0.000 OA
BRANCH  24  25
ATOM     25  C   UNL     1      -0.777  14.109  19.928  0.00  0.00    +0.000 C 
BRANCH  25  26
ATOM     26  C   UNL     1       0.005  13.855  18.650  0.00  0.00    +0.000 C 
BRANCH  26  28
ATOM     27  C   UNL     1       2.468  13.681  19.203  0.00  0.00    +0.000 C 
ATOM     28  C   UNL     1       1.353  14.575  18.687  0.00  0.00    +0.000 C 
ENDBRANCH  26  28
ENDBRANCH  25  26
ENDBRANCH  24  25
ENDBRANCH  22  24
ENDBRANCH  16  22
ENDBRANCH   1  19
BRANCH   7  29
ATOM     29  C   UNL     1       6.845   4.743  16.059  0.00  0.00    +0.000 C 
ATOM     30  O   UNL     1       7.829   4.474  16.746  0.00  0.00    +0.000 OA
BRANCH  29  31
ATOM     31  C   UNL     1       6.907   4.530  14.590  0.00  0.00    +0.000 A 
ATOM     32  C   UNL     1       6.067   3.584  13.981  0.00  0.00    +0.000 A 
ATOM     33  C   UNL     1       6.059   3.462  12.592  0.00  0.00    +0.000 A 
ATOM     34  C   UNL     1       6.882   4.279  11.813  0.00  0.00    +0.000 A 
ATOM     35  C   UNL     1       7.736   5.197  12.418  0.00  0.00    +0.000 A 
ATOM     36  C   UNL     1       7.768   5.305  13.806  0.00  0.00    +0.000 A 
ENDBRANCH  29  31
ENDBRANCH   7  29
TORSDOF 8
ENDMDL
MODEL 7
REMARK VINA RESULT:      -8.7      3.884     11.114
REMARK  Name = 
REMARK  9 active torsions:
REMARK  status: ('A' for Active; 'I' for Inactive)
REMARK    1  A    between atoms: C_1  and  C_2
REMARK    2  A    between atoms: C_2  and  C_3
REMARK    3  A    between atoms: C_3  and  C_4
REMARK    4  A    between atoms: C_4  and  O_5
REMARK    5  A    between atoms: O_5  and  C_6
REMARK    6  A    between atoms: C_6  and  C_8
REMARK    7  A    between atoms: C_11  and  N_12
REMARK    8  A    between atoms: C_18  and  C_19
REMARK    9  A    between atoms: C_19  and  C_21
REMARK                            x       y       z     vdW  Elec       q    Type
REMARK                         _______ _______ _______ _____ _____    ______ ____
ROOT
ATOM      1  N   UNL     1       1.210   6.901  20.993  0.00  0.00    +0.000 N 
ATOM      2  C   UNL     1       2.192   6.361  20.193  0.00  0.00    +0.000 A 
ATOM      3  N   UNL     1       2.552   6.950  19.078  0.00  0.00    +0.000 NA
ATOM      4  C   UNL     1       3.478   6.341  18.208  0.00  0.00    +0.000 A 
ATOM      5  C   UNL     1       4.080   7.067  17.194  0.00  0.00    +0.000 A 
ATOM      6  C   UNL     1       5.131   6.507  16.442  0.00  0.00    +0.000 A 
ATOM      7  C   UNL     1       5.592   5.208  16.701  0.00  0.00    +0.000 A 
ATOM      8  C   UNL     1       4.918   4.431  17.651  0.00  0.00    +0.000 A 
ATOM      9  C   UNL     1       3.853   5.005  18.344  0.00  0.00    +0.000 A 
ATOM     10  N   UNL     1       3.232   4.331  19.388  0.00  0.00    +0.000 N 
ATOM     11  C   UNL     1       2.335   3.295  19.326  0.00  0.00    +0.000 A 
ATOM     12  N   UNL     1       1.976   3.010  20.565  0.00  0.00    +0.000 NA
ATOM     13  N   UNL     1       2.305   4.124  21.331  0.00  0.00    +0.000 NA
ATOM     14  C   UNL     1       2.723   5.019  20.452  0.00  0.00    +0.000 A 
ATOM     15  H   UNL     1       0.636   6.237  21.501  0.00  0.00    +0.000 HD
ENDROOT
BRANCH   1  19
ATOM     16  C   UNL     1       0.105  10.977  21.281  0.00  0.00    +0.000 A 
ATOM     17  C   UNL     1       0.796  10.499  20.162  0.00  0.00    +0.000 A 
ATOM     18  C   UNL     1       1.146   9.143  20.071  0.00  0.00    +0.000 A 
ATOM     19  C   UNL     1       0.853   8.251  21.112  0.00  0.00    +0.000 A 
ATOM     20  C   UNL     1       0.216   8.764  22.252  0.00  0.00    +0.000 A 
ATOM     21  C   UNL     1      -0.184  10.099  22.326  0.00  0.00    +0.000 A 
BRANCH  16  22
ATOM     22  C   UNL     1      -0.319  12.388  21.348  0.00  0.00    +0.000 C 
ATOM     23  O   UNL     1      -0.777  13.012  20.372  0.00  0.00    +0.000 OA
BRANCH  22  24
ATOM     24  O   UNL     1      -0.088  12.909  22.570  0.00  0.00    +0.000 OA
BRANCH  24  25
ATOM     25  C   UNL     1      -0.681  14.198  22.767  0.00  0.00    +0.000 C 
BRANCH  25  26
ATOM     26  C   UNL     1      -1.723  14.151  23.872  0.00  0.00    +0.000 C 
BRANCH  26  28
ATOM     27  C   UNL     1      -3.628  12.485  23.879  0.00  0.00    +0.000 C 
ATOM     28  C   UNL     1      -3.096  13.789  23.306  0.00  0.00    +0.000 C 
ENDBRANCH  26  28
ENDBRANCH  25  26
ENDBRANCH  24  25
ENDBRANCH  22  24
ENDBRANCH  16  22
ENDBRANCH   1  19
BRANCH   7  29
ATOM     29  C   UNL     1       6.860   4.741  16.050  0.00  0.00    +0.000 C 
ATOM     30  O   UNL     1       7.849   4.487  16.735  0.00  0.00    +0.000 OA
BRANCH  29  31
ATOM     31  C   UNL     1       6.918   4.518  14.582  0.00  0.00    +0.000 A 
ATOM     32  C   UNL     1       6.068   3.578  13.981  0.00  0.00    +0.000 A 
ATOM     33  C   UNL     1       6.057   3.446  12.592  0.00  0.00    +0.000 A 
ATOM     34  C   UNL     1       6.888   4.249  11.807  0.00  0.00    +0.000 A 
ATOM     35  C   UNL     1       7.752   5.163  12.406  0.00  0.00    +0.000 A 
ATOM     36  C   UNL     1       7.786   5.279  13.792  0.00  0.00    +0.000 A 
ENDBRANCH  29  31
ENDBRANCH   7  29
TORSDOF 8
ENDMDL
MODEL 8
REMARK VINA RESULT:      -8.6      3.466     11.120
REMARK  Name = 
REMARK  9 active torsions:
REMARK  status: ('A' for Active; 'I' for Inactive)
REMARK    1  A    between atoms: C_1  and  C_2
REMARK    2  A    between atoms: C_2  and  C_3
REMARK    3  A    between atoms: C_3  and  C_4
REMARK    4  A    between atoms: C_4  and  O_5
REMARK    5  A    between atoms: O_5  and  C_6
REMARK    6  A    between atoms: C_6  and  C_8
REMARK    7  A    between atoms: C_11  and  N_12
REMARK    8  A    between atoms: C_18  and  C_19
REMARK    9  A    between atoms: C_19  and  C_21
REMARK                            x       y       z     vdW  Elec       q    Type
REMARK                         _______ _______ _______ _____ _____    ______ ____
ROOT
ATOM      1  N   UNL     1       1.241   6.995  21.024  0.00  0.00    +0.000 N 
ATOM      2  C   UNL     1       2.195   6.440  20.200  0.00  0.00    +0.000 A 
ATOM      3  N   UNL     1       2.553   7.037  19.088  0.00  0.00    +0.000 NA
ATOM      4  C   UNL     1       3.447   6.415  18.193  0.00  0.00    +0.000 A 
ATOM      5  C   UNL     1       4.053   7.141  17.181  0.00  0.00    +0.000 A 
ATOM      6  C   UNL     1       5.075   6.563  16.404  0.00  0.00    +0.000 A 
ATOM      7  C   UNL     1       5.505   5.248  16.635  0.00  0.00    +0.000 A 
ATOM      8  C   UNL     1       4.824   4.475  17.584  0.00  0.00    +0.000 A 
ATOM      9  C   UNL     1       3.787   5.068  18.303  0.00  0.00    +0.000 A 
ATOM     10  N   UNL     1       3.165   4.395  19.347  0.00  0.00    +0.000 N 
ATOM     11  C   UNL     1       2.239   3.385  19.285  0.00  0.00    +0.000 A 
ATOM     12  N   UNL     1       1.891   3.091  20.524  0.00  0.00    +0.000 NA
ATOM     13  N   UNL     1       2.264   4.183  21.302  0.00  0.00    +0.000 NA
ATOM     14  C   UNL     1       2.693   5.080  20.429  0.00  0.00    +0.000 A 
ATOM     15  H   UNL     1       0.657   6.339  21.531  0.00  0.00    +0.000 HD
ENDROOT
BRANCH   1  19
ATOM     16  C   UNL     1       0.240  11.091  21.398  0.00  0.00    +0.000 A 
ATOM     17  C   UNL     1       0.675  10.568  20.175  0.00  0.00    +0.000 A 
ATOM     18  C   UNL     1       0.992   9.205  20.059  0.00  0.00    +0.000 A 
ATOM     19  C   UNL     1       0.923   8.352  21.169  0.00  0.00    +0.000 A 
ATOM     20  C   UNL     1       0.547   8.909  22.399  0.00  0.00    +0.000 A 
ATOM     21  C   UNL     1       0.177  10.251  22.511  0.00  0.00    +0.000 A 
BRANCH  16  22
ATOM     22  C   UNL     1      -0.153  12.507  21.505  0.00  0.00    +0.000 C 
ATOM     23  O   UNL     1       0.621  13.407  21.884  0.00  0.00    +0.000 OA
BRANCH  22  24
ATOM     24  O   UNL     1      -1.456  12.676  21.200  0.00  0.00    +0.000 OA
BRANCH  24  25
ATOM     25  C   UNL     1      -2.257  13.094  22.312  0.00  0.00    +0.000 C 
BRANCH  25  26
ATOM     26  C   UNL     1      -3.719  12.744  22.088  0.00  0.00    +0.000 C 
BRANCH  26  28
ATOM     27  C   UNL     1      -4.821  12.511  19.822  0.00  0.00    +0.000 C 
ATOM     28  C   UNL     1      -4.268  13.472  20.861  0.00  0.00    +0.000 C 
ENDBRANCH  26  28
ENDBRANCH  25  26
ENDBRANCH  24  25
ENDBRANCH  22  24
ENDBRANCH  16  22
ENDBRANCH   1  19
BRANCH   7  29
ATOM     29  C   UNL     1       6.749   4.757  15.956  0.00  0.00    +0.000 C 
ATOM     30  O   UNL     1       7.731   4.436  16.622  0.00  0.00    +0.000 OA
BRANCH  29  31
ATOM     31  C   UNL     1       6.788   4.590  14.480  0.00  0.00    +0.000 A 
ATOM     32  C   UNL     1       7.709   5.323  13.715  0.00  0.00    +0.000 A 
ATOM     33  C   UNL     1       7.809   5.087  12.344  0.00  0.00    +0.000 A 
ATOM     34  C   UNL     1       6.998   4.124  11.740  0.00  0.00    +0.000 A 
ATOM     35  C   UNL     1       6.064   3.418  12.493  0.00  0.00    +0.000 A 
ATOM     36  C   UNL     1       5.941   3.668  13.857  0.00  0.00    +0.000 A 
ENDBRANCH  29  31
ENDBRANCH   7  29
TORSDOF 8
ENDMDL
MODEL 9
REMARK VINA RESULT:      -8.6      0.603      1.129
REMARK  Name = 
REMARK  9 active torsions:
REMARK  status: ('A' for Active; 'I' for Inactive)
REMARK    1  A    between atoms: C_1  and  C_2
REMARK    2  A    between atoms: C_2  and  C_3
REMARK    3  A    between atoms: C_3  and  C_4
REMARK    4  A    between atoms: C_4  and  O_5
REMARK    5  A    between atoms: O_5  and  C_6
REMARK    6  A    between atoms: C_6  and  C_8
REMARK    7  A    between atoms: C_11  and  N_12
REMARK    8  A    between atoms: C_18  and  C_19
REMARK    9  A    between atoms: C_19  and  C_21
REMARK                            x       y       z     vdW  Elec       q    Type
REMARK                         _______ _______ _______ _____ _____    ______ ____
ROOT
ATOM      1  N   UNL     1       1.699   8.959  20.004  0.00  0.00    +0.000 N 
ATOM      2  C   UNL     1       0.498   9.592  19.771  0.00  0.00    +0.000 A 
ATOM      3  N   UNL     1      -0.055   9.567  18.582  0.00  0.00    +0.000 NA
ATOM      4  C   UNL     1      -1.226  10.306  18.317  0.00  0.00    +0.000 A 
ATOM      5  C   UNL     1      -1.973  10.063  17.176  0.00  0.00    +0.000 A 
ATOM      6  C   UNL     1      -3.229  10.674  17.003  0.00  0.00    +0.000 A 
ATOM      7  C   UNL     1      -3.754  11.537  17.977  0.00  0.00    +0.000 A 
ATOM      8  C   UNL     1      -2.958  11.870  19.080  0.00  0.00    +0.000 A 
ATOM      9  C   UNL     1      -1.700  11.279  19.195  0.00  0.00    +0.000 A 
ATOM     10  N   UNL     1      -0.923  11.467  20.330  0.00  0.00    +0.000 N 
ATOM     11  C   UNL     1      -0.187  12.567  20.693  0.00  0.00    +0.000 A 
ATOM     12  N   UNL     1       0.429  12.274  21.823  0.00  0.00    +0.000 NA
ATOM     13  N   UNL     1       0.420  10.886  21.923  0.00  0.00    +0.000 NA
ATOM     14  C   UNL     1      -0.098  10.475  20.777  0.00  0.00    +0.000 A 
ATOM     15  H   UNL     1       2.303   9.393  20.694  0.00  0.00    +0.000 HD
ENDROOT
BRANCH   1  19
ATOM     16  C   UNL     1       3.209   5.550  17.999  0.00  0.00    +0.000 A 
ATOM     17  C   UNL     1       2.619   5.436  19.263  0.00  0.00    +0.000 A 
ATOM     18  C   UNL     1       2.110   6.571  19.913  0.00  0.00    +0.000 A 
ATOM     19  C   UNL     1       2.220   7.843  19.335  0.00  0.00    +0.000 A 
ATOM     20  C   UNL     1       2.872   7.944  18.097  0.00  0.00    +0.000 A 
ATOM     21  C   UNL     1       3.331   6.813  17.419  0.00  0.00    +0.000 A 
BRANCH  16  22
ATOM     22  C   UNL     1       3.686   4.350  17.288  0.00  0.00    +0.000 C 
ATOM     23  O   UNL     1       3.264   3.202  17.523  0.00  0.00    +0.000 OA
BRANCH  22  24
ATOM     24  O   UNL     1       4.665   4.658  16.413  0.00  0.00    +0.000 OA
BRANCH  24  25
ATOM     25  C   UNL     1       5.982   4.376  16.902  0.00  0.00    +0.000 C 
BRANCH  25  26
ATOM     26  C   UNL     1       6.864   5.612  16.826  0.00  0.00    +0.000 C 
BRANCH  26  28
ATOM     27  C   UNL     1       6.676   5.476  19.346  0.00  0.00    +0.000 C 
ATOM     28  C   UNL     1       7.549   5.871  18.167  0.00  0.00    +0.000 C 
ENDBRANCH  26  28
ENDBRANCH  25  26
ENDBRANCH  24  25
ENDBRANCH  22  24
ENDBRANCH  16  22
ENDBRANCH   1  19
BRANCH   7  29
ATOM     29  C   UNL     1      -5.185  11.971  17.871  0.00  0.00    +0.000 C 
ATOM     30  O   UNL     1      -5.685  12.194  16.769  0.00  0.00    +0.000 OA
BRANCH  29  31
ATOM     31  C   UNL     1      -6.036  12.074  19.085  0.00  0.00    +0.000 A 
ATOM     32  C   UNL     1      -6.302  13.330  19.652  0.00  0.00    +0.000 A 
ATOM     33  C   UNL     1      -7.181  13.428  20.730  0.00  0.00    +0.000 A 
ATOM     34  C   UNL     1      -7.794  12.280  21.239  0.00  0.00    +0.000 A 
ATOM     35  C   UNL     1      -7.508  11.030  20.696  0.00  0.00    +0.000 A 
ATOM     36  C   UNL     1      -6.610  10.924  19.637  0.00  0.00    +0.000 A 
ENDBRANCH  29  31
ENDBRANCH   7  29
TORSDOF 8
ENDMDL
