MODEL 1
REMARK VINA RESULT:      -7.4      0.000      0.000
REMARK  Name = 
REMARK  17 active torsions:
REMARK  status: ('A' for Active; 'I' for Inactive)
REMARK    1  A    between atoms: C_1  and  C_2
REMARK    2  A    between atoms: C_3  and  O_4
REMARK    3  A    between atoms: C_6  and  C_7
REMARK    4  A    between atoms: C_7  and  C_8
REMARK    5  A    between atoms: C_7  and  C_9
REMARK    6  A    between atoms: C_9  and  C_10
REMARK    7  A    between atoms: C_10  and  C_11
REMARK    8  A    between atoms: C_12  and  C_13
REMARK    9  A    between atoms: C_12  and  C_14
REMARK   10  A    between atoms: C_14  and  C_15
REMARK   11  A    between atoms: C_15  and  C_16
REMARK   12  A    between atoms: C_17  and  C_18
REMARK   13  A    between atoms: C_17  and  C_19
REMARK   14  A    between atoms: C_19  and  C_20
REMARK   15  A    between atoms: C_20  and  C_21
REMARK   16  A    between atoms: C_21  and  C_22
REMARK   17  A    between atoms: C_24  and  O_25
REMARK                            x       y       z     vdW  Elec       q    Type
REMARK                         _______ _______ _______ _____ _____    ______ ____
ROOT
ATOM      1  C   UNL     1       1.549   9.182  18.199  0.00  0.00    +0.000 C 
ATOM      2  C   UNL     1       2.251   8.071  18.510  0.00  0.00    +0.000 C 
ATOM      3  C   UNL     1       3.357   7.631  17.594  0.00  0.00    +0.000 C 
ENDROOT
BRANCH   1   4
ATOM      4  C   UNL     1       0.510   9.782  19.098  0.00  0.00    +0.000 C 
BRANCH   4   5
ATOM      5  C   UNL     1      -0.705  10.363  18.370  0.00  0.00    +0.000 C 
BRANCH   5   6
ATOM      6  C   UNL     1      -1.007  11.788  18.880  0.00  0.00    +0.000 C 
ATOM      7  C   UNL     1      -2.495  11.981  19.201  0.00  0.00    +0.000 C 
BRANCH   6  12
ATOM      8  C   UNL     1       0.732  17.029  20.480  0.00  0.00    +0.000 C 
ATOM      9  C   UNL     1       0.575  15.572  20.657  0.00  0.00    +0.000 C 
ATOM     10  C   UNL     1       0.030  14.624  19.901  0.00  0.00    +0.000 C 
ATOM     11  C   UNL     1       0.198  13.343  20.505  0.00  0.00    +0.000 C 
ATOM     12  C   UNL     1      -0.181  12.123  20.098  0.00  0.00    +0.000 C 
ATOM     13  O   UNL     1       0.894  13.501  21.703  0.00  0.00    +0.000 OA
ATOM     14  C   UNL     1       1.110  14.850  21.818  0.00  0.00    +0.000 C 
ATOM     15  O   UNL     1       1.682  15.388  22.752  0.00  0.00    +0.000 OA
BRANCH  10  16
ATOM     16  O   UNL     1      -0.570  14.766  18.686  0.00  0.00    +0.000 OA
ATOM     17  H   UNL     1      -0.180  14.130  18.062  0.00  0.00    +0.000 HD
ENDBRANCH  10  16
ENDBRANCH   6  12
ENDBRANCH   5   6
ENDBRANCH   4   5
ENDBRANCH   1   4
BRANCH   2  18
ATOM     18  C   UNL     1       2.013   7.285  19.800  0.00  0.00    +0.000 C 
BRANCH  18  19
ATOM     19  C   UNL     1       2.775   5.961  19.999  0.00  0.00    +0.000 C 
BRANCH  19  20
ATOM     20  C   UNL     1       1.869   4.758  19.991  0.00  0.00    +0.000 C 
ATOM     21  C   UNL     1       1.522   3.970  18.958  0.00  0.00    +0.000 C 
ATOM     22  C   UNL     1       0.499   2.876  19.170  0.00  0.00    +0.000 C 
BRANCH  21  23
ATOM     23  C   UNL     1       2.072   4.121  17.562  0.00  0.00    +0.000 C 
BRANCH  23  24
ATOM     24  C   UNL     1       3.256   3.181  17.294  0.00  0.00    +0.000 C 
BRANCH  24  25
ATOM     25  C   UNL     1       4.460   3.489  18.188  0.00  0.00    +0.000 C 
BRANCH  25  26
ATOM     26  C   UNL     1       5.443   4.408  17.565  0.00  0.00    +0.000 C 
ATOM     27  C   UNL     1       5.534   4.805  16.300  0.00  0.00    +0.000 C 
ATOM     28  C   UNL     1       6.630   5.772  16.139  0.00  0.00    +0.000 C 
ATOM     29  O   UNL     1       7.193   5.904  17.433  0.00  0.00    +0.000 OA
ATOM     30  C   UNL     1       6.493   5.121  18.299  0.00  0.00    +0.000 C 
ATOM     31  O   UNL     1       6.713   5.018  19.491  0.00  0.00    +0.000 OA
BRANCH  28  32
ATOM     32  O   UNL     1       7.586   5.274  15.230  0.00  0.00    +0.000 OA
ATOM     33  H   UNL     1       7.319   4.362  15.032  0.00  0.00    +0.000 HD
ENDBRANCH  28  32
ENDBRANCH  25  26
ENDBRANCH  24  25
ENDBRANCH  23  24
ENDBRANCH  21  23
ENDBRANCH  19  20
ENDBRANCH  18  19
ENDBRANCH   2  18
TORSDOF 13
ENDMDL
MODEL 2
REMARK VINA RESULT:      -7.4      2.507      4.099
REMARK  Name = 
REMARK  17 active torsions:
REMARK  status: ('A' for Active; 'I' for Inactive)
REMARK    1  A    between atoms: C_1  and  C_2
REMARK    2  A    between atoms: C_3  and  O_4
REMARK    3  A    between atoms: C_6  and  C_7
REMARK    4  A    between atoms: C_7  and  C_8
REMARK    5  A    between atoms: C_7  and  C_9
REMARK    6  A    between atoms: C_9  and  C_10
REMARK    7  A    between atoms: C_10  and  C_11
REMARK    8  A    between atoms: C_12  and  C_13
REMARK    9  A    between atoms: C_12  and  C_14
REMARK   10  A    between atoms: C_14  and  C_15
REMARK   11  A    between atoms: C_15  and  C_16
REMARK   12  A    between atoms: C_17  and  C_18
REMARK   13  A    between atoms: C_17  and  C_19
REMARK   14  A    between atoms: C_19  and  C_20
REMARK   15  A    between atoms: C_20  and  C_21
REMARK   16  A    between atoms: C_21  and  C_22
REMARK   17  A    between atoms: C_24  and  O_25
REMARK                            x       y       z     vdW  Elec       q    Type
REMARK                         _______ _______ _______ _____ _____    ______ ____
ROOT
ATOM      1  C   UNL     1       1.476   6.531  20.966  0.00  0.00    +0.000 C 
ATOM      2  C   UNL     1       1.828   5.522  20.141  0.00  0.00    +0.000 C 
ATOM      3  C   UNL     1       1.613   4.105  20.592  0.00  0.00    +0.000 C 
ENDROOT
BRANCH   1   4
ATOM      4  C   UNL     1       1.530   7.977  20.574  0.00  0.00    +0.000 C 
BRANCH   4   5
ATOM      5  C   UNL     1       1.187   8.957  21.698  0.00  0.00    +0.000 C 
BRANCH   5   6
ATOM      6  C   UNL     1       0.410  10.168  21.140  0.00  0.00    +0.000 C 
ATOM      7  C   UNL     1      -0.092   9.918  19.711  0.00  0.00    +0.000 C 
BRANCH   6  12
ATOM      8  C   UNL     1      -0.807  15.399  23.190  0.00  0.00    +0.000 C 
ATOM      9  C   UNL     1      -1.077  13.964  22.970  0.00  0.00    +0.000 C 
ATOM     10  C   UNL     1      -0.400  13.003  22.350  0.00  0.00    +0.000 C 
ATOM     11  C   UNL     1      -1.074  11.752  22.480  0.00  0.00    +0.000 C 
ATOM     12  C   UNL     1      -0.754  10.531  22.027  0.00  0.00    +0.000 C 
ATOM     13  O   UNL     1      -2.234  11.945  23.229  0.00  0.00    +0.000 OA
ATOM     14  C   UNL     1      -2.259  13.285  23.515  0.00  0.00    +0.000 C 
ATOM     15  O   UNL     1      -3.138  13.848  24.148  0.00  0.00    +0.000 OA
BRANCH  10  16
ATOM     16  O   UNL     1       0.799  13.103  21.711  0.00  0.00    +0.000 OA
ATOM     17  H   UNL     1       1.373  13.713  22.204  0.00  0.00    +0.000 HD
ENDBRANCH  10  16
ENDBRANCH   6  12
ENDBRANCH   5   6
ENDBRANCH   4   5
ENDBRANCH   1   4
BRANCH   2  18
ATOM     18  C   UNL     1       2.366   5.766  18.730  0.00  0.00    +0.000 C 
BRANCH  18  19
ATOM     19  C   UNL     1       3.405   4.779  18.165  0.00  0.00    +0.000 C 
BRANCH  19  20
ATOM     20  C   UNL     1       4.768   4.945  18.786  0.00  0.00    +0.000 C 
ATOM     21  C   UNL     1       5.781   5.737  18.395  0.00  0.00    +0.000 C 
ATOM     22  C   UNL     1       7.110   5.652  19.114  0.00  0.00    +0.000 C 
BRANCH  21  23
ATOM     23  C   UNL     1       5.696   6.708  17.245  0.00  0.00    +0.000 C 
BRANCH  23  24
ATOM     24  C   UNL     1       5.553   6.001  15.889  0.00  0.00    +0.000 C 
BRANCH  24  25
ATOM     25  C   UNL     1       6.775   5.146  15.546  0.00  0.00    +0.000 C 
BRANCH  25  26
ATOM     26  C   UNL     1       6.757   4.612  14.162  0.00  0.00    +0.000 C 
ATOM     27  C   UNL     1       5.921   3.738  13.612  0.00  0.00    +0.000 C 
ATOM     28  C   UNL     1       6.239   3.541  12.191  0.00  0.00    +0.000 C 
ATOM     29  O   UNL     1       7.358   4.376  11.948  0.00  0.00    +0.000 OA
ATOM     30  C   UNL     1       7.671   5.036  13.097  0.00  0.00    +0.000 C 
ATOM     31  O   UNL     1       8.575   5.841  13.223  0.00  0.00    +0.000 OA
BRANCH  28  32
ATOM     32  O   UNL     1       6.565   2.190  11.950  0.00  0.00    +0.000 OA
ATOM     33  H   UNL     1       5.757   1.683  12.130  0.00  0.00    +0.000 HD
ENDBRANCH  28  32
ENDBRANCH  25  26
ENDBRANCH  24  25
ENDBRANCH  23  24
ENDBRANCH  21  23
ENDBRANCH  19  20
ENDBRANCH  18  19
ENDBRANCH   2  18
TORSDOF 13
ENDMDL
MODEL 3
REMARK VINA RESULT:      -7.3      2.798      5.280
REMARK  Name = 
REMARK  17 active torsions:
REMARK  status: ('A' for Active; 'I' for Inactive)
REMARK    1  A    between atoms: C_1  and  C_2
REMARK    2  A    between atoms: C_3  and  O_4
REMARK    3  A    between atoms: C_6  and  C_7
REMARK    4  A    between atoms: C_7  and  C_8
REMARK    5  A    between atoms: C_7  and  C_9
REMARK    6  A    between atoms: C_9  and  C_10
REMARK    7  A    between atoms: C_10  and  C_11
REMARK    8  A    between atoms: C_12  and  C_13
REMARK    9  A    between atoms: C_12  and  C_14
REMARK   10  A    between atoms: C_14  and  C_15
REMARK   11  A    between atoms: C_15  and  C_16
REMARK   12  A    between atoms: C_17  and  C_18
REMARK   13  A    between atoms: C_17  and  C_19
REMARK   14  A    between atoms: C_19  and  C_20
REMARK   15  A    between atoms: C_20  and  C_21
REMARK   16  A    between atoms: C_21  and  C_22
REMARK   17  A    between atoms: C_24  and  O_25
REMARK                            x       y       z     vdW  Elec       q    Type
REMARK                         _______ _______ _______ _____ _____    ______ ____
ROOT
ATOM      1  C   UNL     1       5.672   7.671  17.080  0.00  0.00    +0.000 C 
ATOM      2  C   UNL     1       6.769   7.119  17.639  0.00  0.00    +0.000 C 
ATOM      3  C   UNL     1       8.067   7.875  17.592  0.00  0.00    +0.000 C 
ENDROOT
BRANCH   1   4
ATOM      4  C   UNL     1       4.303   7.066  17.175  0.00  0.00    +0.000 C 
BRANCH   4   5
ATOM      5  C   UNL     1       3.197   8.048  17.570  0.00  0.00    +0.000 C 
BRANCH   5   6
ATOM      6  C   UNL     1       2.110   7.330  18.397  0.00  0.00    +0.000 C 
ATOM      7  C   UNL     1       2.393   5.828  18.539  0.00  0.00    +0.000 C 
BRANCH   6  12
ATOM      8  C   UNL     1      -0.936  12.026  19.711  0.00  0.00    +0.000 C 
ATOM      9  C   UNL     1      -0.107  10.848  20.036  0.00  0.00    +0.000 C 
ATOM     10  C   UNL     1       0.466   9.913  19.286  0.00  0.00    +0.000 C 
ATOM     11  C   UNL     1       1.226   9.017  20.096  0.00  0.00    +0.000 C 
ATOM     12  C   UNL     1       1.965   7.947  19.766  0.00  0.00    +0.000 C 
ATOM     13  O   UNL     1       1.127   9.423  21.426  0.00  0.00    +0.000 OA
ATOM     14  C   UNL     1       0.304  10.518  21.407  0.00  0.00    +0.000 C 
ATOM     15  O   UNL     1      -0.038  11.152  22.393  0.00  0.00    +0.000 OA
BRANCH  10  16
ATOM     16  O   UNL     1       0.430   9.790  17.929  0.00  0.00    +0.000 OA
ATOM     17  H   UNL     1       1.332   9.867  17.578  0.00  0.00    +0.000 HD
ENDBRANCH  10  16
ENDBRANCH   6  12
ENDBRANCH   5   6
ENDBRANCH   4   5
ENDBRANCH   1   4
BRANCH   2  18
ATOM     18  C   UNL     1       6.727   5.787  18.389  0.00  0.00    +0.000 C 
BRANCH  18  19
ATOM     19  C   UNL     1       7.346   4.549  17.712  0.00  0.00    +0.000 C 
BRANCH  19  20
ATOM     20  C   UNL     1       7.092   4.505  16.227  0.00  0.00    +0.000 C 
ATOM     21  C   UNL     1       5.957   4.198  15.575  0.00  0.00    +0.000 C 
ATOM     22  C   UNL     1       5.970   4.109  14.065  0.00  0.00    +0.000 C 
BRANCH  21  23
ATOM     23  C   UNL     1       4.647   3.900  16.259  0.00  0.00    +0.000 C 
BRANCH  23  24
ATOM     24  C   UNL     1       4.812   2.957  17.459  0.00  0.00    +0.000 C 
BRANCH  24  25
ATOM     25  C   UNL     1       3.591   2.056  17.666  0.00  0.00    +0.000 C 
BRANCH  25  26
ATOM     26  C   UNL     1       2.906   2.271  18.963  0.00  0.00    +0.000 C 
ATOM     27  C   UNL     1       1.605   2.362  19.218  0.00  0.00    +0.000 C 
ATOM     28  C   UNL     1       1.371   2.517  20.661  0.00  0.00    +0.000 C 
ATOM     29  O   UNL     1       2.663   2.520  21.243  0.00  0.00    +0.000 OA
ATOM     30  C   UNL     1       3.589   2.355  20.258  0.00  0.00    +0.000 C 
ATOM     31  O   UNL     1       4.793   2.301  20.424  0.00  0.00    +0.000 OA
BRANCH  28  32
ATOM     32  O   UNL     1       0.707   3.734  20.917  0.00  0.00    +0.000 OA
ATOM     33  H   UNL     1       0.885   4.303  20.150  0.00  0.00    +0.000 HD
ENDBRANCH  28  32
ENDBRANCH  25  26
ENDBRANCH  24  25
ENDBRANCH  23  24
ENDBRANCH  21  23
ENDBRANCH  19  20
ENDBRANCH  18  19
ENDBRANCH   2  18
TORSDOF 13
ENDMDL
MODEL 4
REMARK VINA RESULT:      -7.3      1.864      2.358
REMARK  Name = 
REMARK  17 active torsions:
REMARK  status: ('A' for Active; 'I' for Inactive)
REMARK    1  A    between atoms: C_1  and  C_2
REMARK    2  A    between atoms: C_3  and  O_4
REMARK    3  A    between atoms: C_6  and  C_7
REMARK    4  A    between atoms: C_7  and  C_8
REMARK    5  A    between atoms: C_7  and  C_9
REMARK    6  A    between atoms: C_9  and  C_10
REMARK    7  A    between atoms: C_10  and  C_11
REMARK    8  A    between atoms: C_12  and  C_13
REMARK    9  A    between atoms: C_12  and  C_14
REMARK   10  A    between atoms: C_14  and  C_15
REMARK   11  A    between atoms: C_15  and  C_16
REMARK   12  A    between atoms: C_17  and  C_18
REMARK   13  A    between atoms: C_17  and  C_19
REMARK   14  A    between atoms: C_19  and  C_20
REMARK   15  A    between atoms: C_20  and  C_21
REMARK   16  A    between atoms: C_21  and  C_22
REMARK   17  A    between atoms: C_24  and  O_25
REMARK                            x       y       z     vdW  Elec       q    Type
REMARK                         _______ _______ _______ _____ _____    ______ ____
ROOT
ATOM      1  C   UNL     1       1.431   8.953  18.017  0.00  0.00    +0.000 C 
ATOM      2  C   UNL     1       2.305   8.039  18.492  0.00  0.00    +0.000 C 
ATOM      3  C   UNL     1       3.419   7.568  17.601  0.00  0.00    +0.000 C 
ENDROOT
BRANCH   1   4
ATOM      4  C   UNL     1       0.359   9.583  18.854  0.00  0.00    +0.000 C 
BRANCH   4   5
ATOM      5  C   UNL     1       0.695  10.982  19.376  0.00  0.00    +0.000 C 
BRANCH   5   6
ATOM      6  C   UNL     1       0.056  11.208  20.762  0.00  0.00    +0.000 C 
ATOM      7  C   UNL     1       0.488  10.139  21.775  0.00  0.00    +0.000 C 
BRANCH   6  12
ATOM      8  C   UNL     1      -3.118  14.263  24.455  0.00  0.00    +0.000 C 
ATOM      9  C   UNL     1      -1.920  14.007  23.631  0.00  0.00    +0.000 C 
ATOM     10  C   UNL     1      -1.587  13.021  22.805  0.00  0.00    +0.000 C 
ATOM     11  C   UNL     1      -0.324  13.285  22.194  0.00  0.00    +0.000 C 
ATOM     12  C   UNL     1       0.385  12.577  21.303  0.00  0.00    +0.000 C 
ATOM     13  O   UNL     1       0.152  14.509  22.663  0.00  0.00    +0.000 OA
ATOM     14  C   UNL     1      -0.795  14.947  23.550  0.00  0.00    +0.000 C 
ATOM     15  O   UNL     1      -0.729  15.988  24.186  0.00  0.00    +0.000 OA
BRANCH  10  16
ATOM     16  O   UNL     1      -2.315  11.914  22.487  0.00  0.00    +0.000 OA
ATOM     17  H   UNL     1      -1.733  11.262  22.063  0.00  0.00    +0.000 HD
ENDBRANCH  10  16
ENDBRANCH   6  12
ENDBRANCH   5   6
ENDBRANCH   4   5
ENDBRANCH   1   4
BRANCH   2  18
ATOM     18  C   UNL     1       2.250   7.521  19.930  0.00  0.00    +0.000 C 
BRANCH  18  19
ATOM     19  C   UNL     1       1.253   6.395  20.262  0.00  0.00    +0.000 C 
BRANCH  19  20
ATOM     20  C   UNL     1       1.926   5.151  20.779  0.00  0.00    +0.000 C 
ATOM     21  C   UNL     1       1.968   3.925  20.229  0.00  0.00    +0.000 C 
ATOM     22  C   UNL     1       2.615   2.790  20.992  0.00  0.00    +0.000 C 
BRANCH  21  23
ATOM     23  C   UNL     1       1.378   3.584  18.884  0.00  0.00    +0.000 C 
BRANCH  23  24
ATOM     24  C   UNL     1       2.182   4.184  17.722  0.00  0.00    +0.000 C 
BRANCH  24  25
ATOM     25  C   UNL     1       3.357   3.295  17.305  0.00  0.00    +0.000 C 
BRANCH  25  26
ATOM     26  C   UNL     1       4.631   4.034  17.137  0.00  0.00    +0.000 C 
ATOM     27  C   UNL     1       5.129   4.609  16.047  0.00  0.00    +0.000 C 
ATOM     28  C   UNL     1       6.398   5.285  16.352  0.00  0.00    +0.000 C 
ATOM     29  O   UNL     1       6.616   5.046  17.732  0.00  0.00    +0.000 OA
ATOM     30  C   UNL     1       5.572   4.324  18.223  0.00  0.00    +0.000 C 
ATOM     31  O   UNL     1       5.447   3.964  19.379  0.00  0.00    +0.000 OA
BRANCH  28  32
ATOM     32  O   UNL     1       7.440   4.731  15.581  0.00  0.00    +0.000 OA
ATOM     33  H   UNL     1       8.127   5.415  15.527  0.00  0.00    +0.000 HD
ENDBRANCH  28  32
ENDBRANCH  25  26
ENDBRANCH  24  25
ENDBRANCH  23  24
ENDBRANCH  21  23
ENDBRANCH  19  20
ENDBRANCH  18  19
ENDBRANCH   2  18
TORSDOF 13
ENDMDL
MODEL 5
REMARK VINA RESULT:      -7.2      3.483      5.413
REMARK  Name = 
REMARK  17 active torsions:
REMARK  status: ('A' for Active; 'I' for Inactive)
REMARK    1  A    between atoms: C_1  and  C_2
REMARK    2  A    between atoms: C_3  and  O_4
REMARK    3  A    between atoms: C_6  and  C_7
REMARK    4  A    between atoms: C_7  and  C_8
REMARK    5  A    between atoms: C_7  and  C_9
REMARK    6  A    between atoms: C_9  and  C_10
REMARK    7  A    between atoms: C_10  and  C_11
REMARK    8  A    between atoms: C_12  and  C_13
REMARK    9  A    between atoms: C_12  and  C_14
REMARK   10  A    between atoms: C_14  and  C_15
REMARK   11  A    between atoms: C_15  and  C_16
REMARK   12  A    between atoms: C_17  and  C_18
REMARK   13  A    between atoms: C_17  and  C_19
REMARK   14  A    between atoms: C_19  and  C_20
REMARK   15  A    between atoms: C_20  and  C_21
REMARK   16  A    between atoms: C_21  and  C_22
REMARK   17  A    between atoms: C_24  and  O_25
REMARK                            x       y       z     vdW  Elec       q    Type
REMARK                         _______ _______ _______ _____ _____    ______ ____
ROOT
ATOM      1  C   UNL     1       1.751   8.547  18.495  0.00  0.00    +0.000 C 
ATOM      2  C   UNL     1       2.529   7.567  17.987  0.00  0.00    +0.000 C 
ATOM      3  C   UNL     1       2.199   6.137  18.310  0.00  0.00    +0.000 C 
ENDROOT
BRANCH   1   4
ATOM      4  C   UNL     1       1.911   9.995  18.142  0.00  0.00    +0.000 C 
BRANCH   4   5
ATOM      5  C   UNL     1       1.071  10.955  18.987  0.00  0.00    +0.000 C 
BRANCH   5   6
ATOM      6  C   UNL     1      -0.169  10.231  19.552  0.00  0.00    +0.000 C 
ATOM      7  C   UNL     1      -0.007   9.887  21.039  0.00  0.00    +0.000 C 
BRANCH   6  12
ATOM      8  C   UNL     1      -3.603  10.167  14.942  0.00  0.00    +0.000 C 
ATOM      9  C   UNL     1      -3.223  10.579  16.308  0.00  0.00    +0.000 C 
ATOM     10  C   UNL     1      -2.171  10.308  17.072  0.00  0.00    +0.000 C 
ATOM     11  C   UNL     1      -2.253  11.018  18.307  0.00  0.00    +0.000 C 
ATOM     12  C   UNL     1      -1.420  11.051  19.358  0.00  0.00    +0.000 C 
ATOM     13  O   UNL     1      -3.420  11.781  18.307  0.00  0.00    +0.000 OA
ATOM     14  C   UNL     1      -4.029  11.507  17.111  0.00  0.00    +0.000 C 
ATOM     15  O   UNL     1      -5.094  11.978  16.745  0.00  0.00    +0.000 OA
BRANCH  10  16
ATOM     16  O   UNL     1      -1.099   9.523  16.772  0.00  0.00    +0.000 OA
ATOM     17  H   UNL     1      -0.779   9.095  17.584  0.00  0.00    +0.000 HD
ENDBRANCH  10  16
ENDBRANCH   6  12
ENDBRANCH   5   6
ENDBRANCH   4   5
ENDBRANCH   1   4
BRANCH   2  18
ATOM     18  C   UNL     1       3.687   7.851  17.031  0.00  0.00    +0.000 C 
BRANCH  18  19
ATOM     19  C   UNL     1       5.024   7.124  17.268  0.00  0.00    +0.000 C 
BRANCH  19  20
ATOM     20  C   UNL     1       5.218   5.943  16.352  0.00  0.00    +0.000 C 
ATOM     21  C   UNL     1       5.811   4.764  16.611  0.00  0.00    +0.000 C 
ATOM     22  C   UNL     1       5.991   3.762  15.492  0.00  0.00    +0.000 C 
BRANCH  21  23
ATOM     23  C   UNL     1       6.348   4.370  17.964  0.00  0.00    +0.000 C 
BRANCH  23  24
ATOM     24  C   UNL     1       5.264   4.381  19.051  0.00  0.00    +0.000 C 
BRANCH  24  25
ATOM     25  C   UNL     1       4.690   2.986  19.317  0.00  0.00    +0.000 C 
BRANCH  25  26
ATOM     26  C   UNL     1       3.268   2.998  19.735  0.00  0.00    +0.000 C 
ATOM     27  C   UNL     1       2.725   3.483  20.846  0.00  0.00    +0.000 C 
ATOM     28  C   UNL     1       1.263   3.333  20.817  0.00  0.00    +0.000 C 
ATOM     29  O   UNL     1       0.986   2.698  19.580  0.00  0.00    +0.000 OA
ATOM     30  C   UNL     1       2.157   2.508  18.912  0.00  0.00    +0.000 C 
ATOM     31  O   UNL     1       2.266   1.999  17.812  0.00  0.00    +0.000 OA
BRANCH  28  32
ATOM     32  O   UNL     1       0.836   2.529  21.894  0.00  0.00    +0.000 OA
ATOM     33  H   UNL     1       0.137   1.956  21.540  0.00  0.00    +0.000 HD
ENDBRANCH  28  32
ENDBRANCH  25  26
ENDBRANCH  24  25
ENDBRANCH  23  24
ENDBRANCH  21  23
ENDBRANCH  19  20
ENDBRANCH  18  19
ENDBRANCH   2  18
TORSDOF 13
ENDMDL
MODEL 6
REMARK VINA RESULT:      -7.2      5.802      7.878
REMARK  Name = 
REMARK  17 active torsions:
REMARK  status: ('A' for Active; 'I' for Inactive)
REMARK    1  A    between atoms: C_1  and  C_2
REMARK    2  A    between atoms: C_3  and  O_4
REMARK    3  A    between atoms: C_6  and  C_7
REMARK    4  A    between atoms: C_7  and  C_8
REMARK    5  A    between atoms: C_7  and  C_9
REMARK    6  A    between atoms: C_9  and  C_10
REMARK    7  A    between atoms: C_10  and  C_11
REMARK    8  A    between atoms: C_12  and  C_13
REMARK    9  A    between atoms: C_12  and  C_14
REMARK   10  A    between atoms: C_14  and  C_15
REMARK   11  A    between atoms: C_15  and  C_16
REMARK   12  A    between atoms: C_17  and  C_18
REMARK   13  A    between atoms: C_17  and  C_19
REMARK   14  A    between atoms: C_19  and  C_20
REMARK   15  A    between atoms: C_20  and  C_21
REMARK   16  A    between atoms: C_21  and  C_22
REMARK   17  A    between atoms: C_24  and  O_25
REMARK                            x       y       z     vdW  Elec       q    Type
REMARK                         _______ _______ _______ _____ _____    ______ ____
ROOT
ATOM      1  C   UNL     1       8.049   7.322  18.726  0.00  0.00    +0.000 C 
ATOM      2  C   UNL     1       7.420   6.198  18.322  0.00  0.00    +0.000 C 
ATOM      3  C   UNL     1       6.845   5.275  19.359  0.00  0.00    +0.000 C 
ENDROOT
BRANCH   1   4
ATOM      4  C   UNL     1       8.552   8.373  17.782  0.00  0.00    +0.000 C 
BRANCH   4   5
ATOM      5  C   UNL     1       7.818   9.713  17.870  0.00  0.00    +0.000 C 
BRANCH   5   6
ATOM      6  C   UNL     1       8.671  10.744  18.640  0.00  0.00    +0.000 C 
ATOM      7  C   UNL     1       9.472  10.094  19.776  0.00  0.00    +0.000 C 
BRANCH   6  12
ATOM      8  C   UNL     1      10.551  16.139  19.283  0.00  0.00    +0.000 C 
ATOM      9  C   UNL     1      10.507  14.818  18.624  0.00  0.00    +0.000 C 
ATOM     10  C   UNL     1       9.804  13.716  18.857  0.00  0.00    +0.000 C 
ATOM     11  C   UNL     1      10.090  12.722  17.874  0.00  0.00    +0.000 C 
ATOM     12  C   UNL     1       9.611  11.479  17.717  0.00  0.00    +0.000 C 
ATOM     13  O   UNL     1      11.019  13.239  16.973  0.00  0.00    +0.000 OA
ATOM     14  C   UNL     1      11.298  14.501  17.428  0.00  0.00    +0.000 C 
ATOM     15  O   UNL     1      12.088  15.273  16.907  0.00  0.00    +0.000 OA
BRANCH  10  16
ATOM     16  O   UNL     1       8.880  13.504  19.836  0.00  0.00    +0.000 OA
ATOM     17  H   UNL     1       8.308  14.286  19.909  0.00  0.00    +0.000 HD
ENDBRANCH  10  16
ENDBRANCH   6  12
ENDBRANCH   5   6
ENDBRANCH   4   5
ENDBRANCH   1   4
BRANCH   2  18
ATOM     18  C   UNL     1       7.201   5.866  16.846  0.00  0.00    +0.000 C 
BRANCH  18  19
ATOM     19  C   UNL     1       5.913   6.371  16.168  0.00  0.00    +0.000 C 
BRANCH  19  20
ATOM     20  C   UNL     1       4.772   6.547  17.137  0.00  0.00    +0.000 C 
ATOM     21  C   UNL     1       3.789   5.684  17.447  0.00  0.00    +0.000 C 
ATOM     22  C   UNL     1       2.677   6.126  18.373  0.00  0.00    +0.000 C 
BRANCH  21  23
ATOM     23  C   UNL     1       3.697   4.281  16.903  0.00  0.00    +0.000 C 
BRANCH  23  24
ATOM     24  C   UNL     1       4.436   3.261  17.781  0.00  0.00    +0.000 C 
BRANCH  24  25
ATOM     25  C   UNL     1       3.516   2.141  18.275  0.00  0.00    +0.000 C 
BRANCH  25  26
ATOM     26  C   UNL     1       2.633   2.548  19.394  0.00  0.00    +0.000 C 
ATOM     27  C   UNL     1       2.940   2.760  20.669  0.00  0.00    +0.000 C 
ATOM     28  C   UNL     1       1.757   3.209  21.419  0.00  0.00    +0.000 C 
ATOM     29  O   UNL     1       0.708   3.232  20.466  0.00  0.00    +0.000 OA
ATOM     30  C   UNL     1       1.207   2.864  19.254  0.00  0.00    +0.000 C 
ATOM     31  O   UNL     1       0.569   2.794  18.221  0.00  0.00    +0.000 OA
BRANCH  28  32
ATOM     32  O   UNL     1       1.466   2.299  22.456  0.00  0.00    +0.000 OA
ATOM     33  H   UNL     1       2.193   2.379  23.095  0.00  0.00    +0.000 HD
ENDBRANCH  28  32
ENDBRANCH  25  26
ENDBRANCH  24  25
ENDBRANCH  23  24
ENDBRANCH  21  23
ENDBRANCH  19  20
ENDBRANCH  18  19
ENDBRANCH   2  18
TORSDOF 13
ENDMDL
MODEL 7
REMARK VINA RESULT:      -7.2      5.626      7.449
REMARK  Name = 
REMARK  17 active torsions:
REMARK  status: ('A' for Active; 'I' for Inactive)
REMARK    1  A    between atoms: C_1  and  C_2
REMARK    2  A    between atoms: C_3  and  O_4
REMARK    3  A    between atoms: C_6  and  C_7
REMARK    4  A    between atoms: C_7  and  C_8
REMARK    5  A    between atoms: C_7  and  C_9
REMARK    6  A    between atoms: C_9  and  C_10
REMARK    7  A    between atoms: C_10  and  C_11
REMARK    8  A    between atoms: C_12  and  C_13
REMARK    9  A    between atoms: C_12  and  C_14
REMARK   10  A    between atoms: C_14  and  C_15
REMARK   11  A    between atoms: C_15  and  C_16
REMARK   12  A    between atoms: C_17  and  C_18
REMARK   13  A    between atoms: C_17  and  C_19
REMARK   14  A    between atoms: C_19  and  C_20
REMARK   15  A    between atoms: C_20  and  C_21
REMARK   16  A    between atoms: C_21  and  C_22
REMARK   17  A    between atoms: C_24  and  O_25
REMARK                            x       y       z     vdW  Elec       q    Type
REMARK                         _______ _______ _______ _____ _____    ______ ____
ROOT
ATOM      1  C   UNL     1       7.746   8.079  17.250  0.00  0.00    +0.000 C 
ATOM      2  C   UNL     1       7.396   6.795  17.476  0.00  0.00    +0.000 C 
ATOM      3  C   UNL     1       7.122   5.899  16.302  0.00  0.00    +0.000 C 
ENDROOT
BRANCH   1   4
ATOM      4  C   UNL     1       8.160   9.027  18.336  0.00  0.00    +0.000 C 
BRANCH   4   5
ATOM      5  C   UNL     1       9.404   9.860  18.016  0.00  0.00    +0.000 C 
BRANCH   5   6
ATOM      6  C   UNL     1       9.302  11.253  18.673  0.00  0.00    +0.000 C 
ATOM      7  C   UNL     1       9.625  11.207  20.173  0.00  0.00    +0.000 C 
BRANCH   6  12
ATOM      8  C   UNL     1       8.396  16.910  18.198  0.00  0.00    +0.000 C 
ATOM      9  C   UNL     1       9.189  15.676  18.038  0.00  0.00    +0.000 C 
ATOM     10  C   UNL     1       8.946  14.402  18.329  0.00  0.00    +0.000 C 
ATOM     11  C   UNL     1      10.030  13.576  17.909  0.00  0.00    +0.000 C 
ATOM     12  C   UNL     1      10.208  12.249  17.993  0.00  0.00    +0.000 C 
ATOM     13  O   UNL     1      11.001  14.381  17.315  0.00  0.00    +0.000 OA
ATOM     14  C   UNL     1      10.514  15.658  17.406  0.00  0.00    +0.000 C 
ATOM     15  O   UNL     1      11.092  16.657  17.005  0.00  0.00    +0.000 OA
BRANCH  10  16
ATOM     16  O   UNL     1       7.825  13.873  18.894  0.00  0.00    +0.000 OA
ATOM     17  H   UNL     1       7.086  13.948  18.268  0.00  0.00    +0.000 HD
ENDBRANCH  10  16
ENDBRANCH   6  12
ENDBRANCH   5   6
ENDBRANCH   4   5
ENDBRANCH   1   4
BRANCH   2  18
ATOM     18  C   UNL     1       7.342   6.195  18.882  0.00  0.00    +0.000 C 
BRANCH  18  19
ATOM     19  C   UNL     1       6.304   5.093  19.165  0.00  0.00    +0.000 C 
BRANCH  19  20
ATOM     20  C   UNL     1       4.900   5.629  19.284  0.00  0.00    +0.000 C 
ATOM     21  C   UNL     1       3.883   5.528  18.411  0.00  0.00    +0.000 C 
ATOM     22  C   UNL     1       2.584   6.249  18.698  0.00  0.00    +0.000 C 
BRANCH  21  23
ATOM     23  C   UNL     1       3.954   4.751  17.121  0.00  0.00    +0.000 C 
BRANCH  23  24
ATOM     24  C   UNL     1       4.596   3.368  17.303  0.00  0.00    +0.000 C 
BRANCH  24  25
ATOM     25  C   UNL     1       3.560   2.277  17.588  0.00  0.00    +0.000 C 
BRANCH  25  26
ATOM     26  C   UNL     1       2.865   2.442  18.886  0.00  0.00    +0.000 C 
ATOM     27  C   UNL     1       1.571   2.625  19.127  0.00  0.00    +0.000 C 
ATOM     28  C   UNL     1       1.315   2.679  20.573  0.00  0.00    +0.000 C 
ATOM     29  O   UNL     1       2.589   2.522  21.175  0.00  0.00    +0.000 OA
ATOM     30  C   UNL     1       3.520   2.359  20.196  0.00  0.00    +0.000 C 
ATOM     31  O   UNL     1       4.711   2.186  20.378  0.00  0.00    +0.000 OA
BRANCH  28  32
ATOM     32  O   UNL     1       0.752   3.925  20.920  0.00  0.00    +0.000 OA
ATOM     33  H   UNL     1       0.598   4.392  20.083  0.00  0.00    +0.000 HD
ENDBRANCH  28  32
ENDBRANCH  25  26
ENDBRANCH  24  25
ENDBRANCH  23  24
ENDBRANCH  21  23
ENDBRANCH  19  20
ENDBRANCH  18  19
ENDBRANCH   2  18
TORSDOF 13
ENDMDL
MODEL 8
REMARK VINA RESULT:      -7.2      1.887      9.115
REMARK  Name = 
REMARK  17 active torsions:
REMARK  status: ('A' for Active; 'I' for Inactive)
REMARK    1  A    between atoms: C_1  and  C_2
REMARK    2  A    between atoms: C_3  and  O_4
REMARK    3  A    between atoms: C_6  and  C_7
REMARK    4  A    between atoms: C_7  and  C_8
REMARK    5  A    between atoms: C_7  and  C_9
REMARK    6  A    between atoms: C_9  and  C_10
REMARK    7  A    between atoms: C_10  and  C_11
REMARK    8  A    between atoms: C_12  and  C_13
REMARK    9  A    between atoms: C_12  and  C_14
REMARK   10  A    between atoms: C_14  and  C_15
REMARK   11  A    between atoms: C_15  and  C_16
REMARK   12  A    between atoms: C_17  and  C_18
REMARK   13  A    between atoms: C_17  and  C_19
REMARK   14  A    between atoms: C_19  and  C_20
REMARK   15  A    between atoms: C_20  and  C_21
REMARK   16  A    between atoms: C_21  and  C_22
REMARK   17  A    between atoms: C_24  and  O_25
REMARK                            x       y       z     vdW  Elec       q    Type
REMARK                         _______ _______ _______ _____ _____    ______ ____
ROOT
ATOM      1  C   UNL     1       0.800   2.855  19.857  0.00  0.00    +0.000 C 
ATOM      2  C   UNL     1       1.437   3.223  20.989  0.00  0.00    +0.000 C 
ATOM      3  C   UNL     1       1.274   2.379  22.221  0.00  0.00    +0.000 C 
ENDROOT
BRANCH   1   4
ATOM      4  C   UNL     1       0.986   3.549  18.541  0.00  0.00    +0.000 C 
BRANCH   4   5
ATOM      5  C   UNL     1       1.853   2.788  17.535  0.00  0.00    +0.000 C 
BRANCH   5   6
ATOM      6  C   UNL     1       3.345   2.905  17.914  0.00  0.00    +0.000 C 
ATOM      7  C   UNL     1       4.030   1.533  17.980  0.00  0.00    +0.000 C 
BRANCH   6  12
ATOM      8  C   UNL     1       7.965   6.112  19.107  0.00  0.00    +0.000 C 
ATOM      9  C   UNL     1       6.948   5.533  18.206  0.00  0.00    +0.000 C 
ATOM     10  C   UNL     1       5.909   4.732  18.415  0.00  0.00    +0.000 C 
ATOM     11  C   UNL     1       5.191   4.516  17.201  0.00  0.00    +0.000 C 
ATOM     12  C   UNL     1       4.089   3.794  16.948  0.00  0.00    +0.000 C 
ATOM     13  O   UNL     1       5.816   5.229  16.179  0.00  0.00    +0.000 OA
ATOM     14  C   UNL     1       6.895   5.833  16.770  0.00  0.00    +0.000 C 
ATOM     15  O   UNL     1       7.704   6.540  16.190  0.00  0.00    +0.000 OA
BRANCH  10  16
ATOM     16  O   UNL     1       5.487   4.199  19.596  0.00  0.00    +0.000 OA
ATOM     17  H   UNL     1       5.618   3.237  19.576  0.00  0.00    +0.000 HD
ENDBRANCH  10  16
ENDBRANCH   6  12
ENDBRANCH   5   6
ENDBRANCH   4   5
ENDBRANCH   1   4
BRANCH   2  18
ATOM     18  C   UNL     1       2.382   4.424  21.045  0.00  0.00    +0.000 C 
BRANCH  18  19
ATOM     19  C   UNL     1       1.831   5.804  20.638  0.00  0.00    +0.000 C 
BRANCH  19  20
ATOM     20  C   UNL     1       2.533   6.383  19.437  0.00  0.00    +0.000 C 
ATOM     21  C   UNL     1       2.421   7.614  18.908  0.00  0.00    +0.000 C 
ATOM     22  C   UNL     1       3.146   7.937  17.620  0.00  0.00    +0.000 C 
BRANCH  21  23
ATOM     23  C   UNL     1       1.581   8.715  19.505  0.00  0.00    +0.000 C 
BRANCH  23  24
ATOM     24  C   UNL     1       1.066   8.364  20.908  0.00  0.00    +0.000 C 
BRANCH  24  25
ATOM     25  C   UNL     1       0.207   9.479  21.510  0.00  0.00    +0.000 C 
BRANCH  25  26
ATOM     26  C   UNL     1      -0.116  10.564  20.552  0.00  0.00    +0.000 C 
ATOM     27  C   UNL     1      -1.088  10.622  19.649  0.00  0.00    +0.000 C 
ATOM     28  C   UNL     1      -1.072  11.917  18.953  0.00  0.00    +0.000 C 
ATOM     29  O   UNL     1       0.016  12.624  19.524  0.00  0.00    +0.000 OA
ATOM     30  C   UNL     1       0.585  11.850  20.488  0.00  0.00    +0.000 C 
ATOM     31  O   UNL     1       1.535  12.170  21.177  0.00  0.00    +0.000 OA
BRANCH  28  32
ATOM     32  O   UNL     1      -0.869  11.723  17.571  0.00  0.00    +0.000 OA
ATOM     33  H   UNL     1      -0.623  10.790  17.465  0.00  0.00    +0.000 HD
ENDBRANCH  28  32
ENDBRANCH  25  26
ENDBRANCH  24  25
ENDBRANCH  23  24
ENDBRANCH  21  23
ENDBRANCH  19  20
ENDBRANCH  18  19
ENDBRANCH   2  18
TORSDOF 13
ENDMDL
MODEL 9
REMARK VINA RESULT:      -7.2      2.836      5.223
REMARK  Name = 
REMARK  17 active torsions:
REMARK  status: ('A' for Active; 'I' for Inactive)
REMARK    1  A    between atoms: C_1  and  C_2
REMARK    2  A    between atoms: C_3  and  O_4
REMARK    3  A    between atoms: C_6  and  C_7
REMARK    4  A    between atoms: C_7  and  C_8
REMARK    5  A    between atoms: C_7  and  C_9
REMARK    6  A    between atoms: C_9  and  C_10
REMARK    7  A    between atoms: C_10  and  C_11
REMARK    8  A    between atoms: C_12  and  C_13
REMARK    9  A    between atoms: C_12  and  C_14
REMARK   10  A    between atoms: C_14  and  C_15
REMARK   11  A    between atoms: C_15  and  C_16
REMARK   12  A    between atoms: C_17  and  C_18
REMARK   13  A    between atoms: C_17  and  C_19
REMARK   14  A    between atoms: C_19  and  C_20
REMARK   15  A    between atoms: C_20  and  C_21
REMARK   16  A    between atoms: C_21  and  C_22
REMARK   17  A    between atoms: C_24  and  O_25
REMARK                            x       y       z     vdW  Elec       q    Type
REMARK                         _______ _______ _______ _____ _____    ______ ____
ROOT
ATOM      1  C   UNL     1       1.401   3.961  18.351  0.00  0.00    +0.000 C 
ATOM      2  C   UNL     1       1.823   3.105  19.306  0.00  0.00    +0.000 C 
ATOM      3  C   UNL     1       1.107   1.795  19.474  0.00  0.00    +0.000 C 
ENDROOT
BRANCH   1   4
ATOM      4  C   UNL     1       2.113   5.237  18.012  0.00  0.00    +0.000 C 
BRANCH   4   5
ATOM      5  C   UNL     1       1.940   6.357  19.041  0.00  0.00    +0.000 C 
BRANCH   5   6
ATOM      6  C   UNL     1       2.687   7.628  18.583  0.00  0.00    +0.000 C 
ATOM      7  C   UNL     1       3.695   7.331  17.464  0.00  0.00    +0.000 C 
BRANCH   6  12
ATOM      8  C   UNL     1      -0.530  10.989  21.959  0.00  0.00    +0.000 C 
ATOM      9  C   UNL     1       0.011  10.543  20.660  0.00  0.00    +0.000 C 
ATOM     10  C   UNL     1       0.844   9.566  20.317  0.00  0.00    +0.000 C 
ATOM     11  C   UNL     1       0.999   9.514  18.900  0.00  0.00    +0.000 C 
ATOM     12  C   UNL     1       1.726   8.696  18.125  0.00  0.00    +0.000 C 
ATOM     13  O   UNL     1       0.211  10.512  18.328  0.00  0.00    +0.000 OA
ATOM     14  C   UNL     1      -0.376  11.157  19.384  0.00  0.00    +0.000 C 
ATOM     15  O   UNL     1      -1.134  12.110  19.288  0.00  0.00    +0.000 OA
BRANCH  10  16
ATOM     16  O   UNL     1       1.458   8.665  21.134  0.00  0.00    +0.000 OA
ATOM     17  H   UNL     1       2.114   9.126  21.682  0.00  0.00    +0.000 HD
ENDBRANCH  10  16
ENDBRANCH   6  12
ENDBRANCH   5   6
ENDBRANCH   4   5
ENDBRANCH   1   4
BRANCH   2  18
ATOM     18  C   UNL     1       3.051   3.383  20.173  0.00  0.00    +0.000 C 
BRANCH  18  19
ATOM     19  C   UNL     1       4.441   3.054  19.597  0.00  0.00    +0.000 C 
BRANCH  19  20
ATOM     20  C   UNL     1       5.336   4.262  19.502  0.00  0.00    +0.000 C 
ATOM     21  C   UNL     1       6.070   4.687  18.458  0.00  0.00    +0.000 C 
ATOM     22  C   UNL     1       6.989   5.876  18.632  0.00  0.00    +0.000 C 
BRANCH  21  23
ATOM     23  C   UNL     1       6.062   4.031  17.100  0.00  0.00    +0.000 C 
BRANCH  23  24
ATOM     24  C   UNL     1       6.896   4.806  16.070  0.00  0.00    +0.000 C 
BRANCH  24  25
ATOM     25  C   UNL     1       6.047   5.338  14.913  0.00  0.00    +0.000 C 
BRANCH  25  26
ATOM     26  C   UNL     1       6.211   4.572  13.654  0.00  0.00    +0.000 C 
ATOM     27  C   UNL     1       5.428   3.631  13.137  0.00  0.00    +0.000 C 
ATOM     28  C   UNL     1       5.946   3.183  11.836  0.00  0.00    +0.000 C 
ATOM     29  O   UNL     1       7.125   3.943  11.631  0.00  0.00    +0.000 OA
ATOM     30  C   UNL     1       7.292   4.788  12.686  0.00  0.00    +0.000 C 
ATOM     31  O   UNL     1       8.201   5.585  12.812  0.00  0.00    +0.000 OA
BRANCH  28  32
ATOM     32  O   UNL     1       6.244   1.806  11.881  0.00  0.00    +0.000 OA
ATOM     33  H   UNL     1       5.443   1.348  11.578  0.00  0.00    +0.000 HD
ENDBRANCH  28  32
ENDBRANCH  25  26
ENDBRANCH  24  25
ENDBRANCH  23  24
ENDBRANCH  21  23
ENDBRANCH  19  20
ENDBRANCH  18  19
ENDBRANCH   2  18
TORSDOF 13
ENDMDL
