MODEL 1
REMARK VINA RESULT:      -7.0      0.000      0.000
REMARK  Name = 
REMARK  6 active torsions:
REMARK  status: ('A' for Active; 'I' for Inactive)
REMARK    1  A    between atoms: C_1  and  N_2
REMARK    2  A    between atoms: N_2  and  C_3
REMARK    3  A    between atoms: N_2  and  C_4
REMARK    4  A    between atoms: C_4  and  C_5
REMARK    5  A    between atoms: C_8  and  C_9
REMARK    6  A    between atoms: C_15  and  N_16
REMARK                            x       y       z     vdW  Elec       q    Type
REMARK                         _______ _______ _______ _____ _____    ______ ____
ROOT
ATOM      1  C   UNL     1       0.828   9.980  20.697  0.00  0.00    +0.000 C 
ATOM      2  O   UNL     1       1.130  10.144  21.875  0.00  0.00    +0.000 OA
ATOM      3  N   UNL     1      -0.050  10.836  20.019  0.00  0.00    +0.000 N 
ATOM      4  C   UNL     1      -0.374  12.125  20.623  0.00  0.00    +0.000 C 
ATOM      5  C   UNL     1      -1.883  12.311  20.742  0.00  0.00    +0.000 C 
ATOM      6  C   UNL     1      -2.567  12.150  19.385  0.00  0.00    +0.000 C 
ATOM      7  C   UNL     1      -2.194  10.810  18.735  0.00  0.00    +0.000 C 
ATOM      8  C   UNL     1      -0.677  10.588  18.712  0.00  0.00    +0.000 C 
ENDROOT
BRANCH   1  12
ATOM      9  C   UNL     1       2.487   6.564  18.674  0.00  0.00    +0.000 A 
ATOM     10  C   UNL     1       2.131   6.495  20.030  0.00  0.00    +0.000 A 
ATOM     11  C   UNL     1       1.604   7.613  20.682  0.00  0.00    +0.000 A 
ATOM     12  C   UNL     1       1.433   8.817  19.988  0.00  0.00    +0.000 A 
ATOM     13  C   UNL     1       1.889   8.916  18.670  0.00  0.00    +0.000 A 
ATOM     14  C   UNL     1       2.377   7.792  18.006  0.00  0.00    +0.000 A 
BRANCH   9  15
ATOM     15  C   UNL     1       2.982   5.343  17.929  0.00  0.00    +0.000 C 
BRANCH  15  17
ATOM     16  C   UNL     1       1.845   3.194  18.126  0.00  0.00    +0.000 C 
ATOM     17  N   UNL     1       2.860   4.087  18.692  0.00  0.00    +0.000 NA
ATOM     18  C   UNL     1       4.154   3.398  18.713  0.00  0.00    +0.000 C 
ENDBRANCH  15  17
ENDBRANCH   9  15
ENDBRANCH   1  12
BRANCH   7  19
ATOM     19  N   UNL     1      -2.741  10.680  17.389  0.00  0.00    +0.000 N 
ATOM     20  C   UNL     1      -2.239   9.920  16.371  0.00  0.00    +0.000 A 
ATOM     21  C   UNL     1      -3.067  10.131  15.294  0.00  0.00    +0.000 A 
ATOM     22  C   UNL     1      -4.027  11.048  15.755  0.00  0.00    +0.000 A 
ATOM     23  N   UNL     1      -3.822  11.399  17.026  0.00  0.00    +0.000 NA
ENDBRANCH   7  19
TORSDOF 4
ENDMDL
MODEL 2
REMARK VINA RESULT:      -6.9      0.773      1.049
REMARK  Name = 
REMARK  6 active torsions:
REMARK  status: ('A' for Active; 'I' for Inactive)
REMARK    1  A    between atoms: C_1  and  N_2
REMARK    2  A    between atoms: N_2  and  C_3
REMARK    3  A    between atoms: N_2  and  C_4
REMARK    4  A    between atoms: C_4  and  C_5
REMARK    5  A    between atoms: C_8  and  C_9
REMARK    6  A    between atoms: C_15  and  N_16
REMARK                            x       y       z     vdW  Elec       q    Type
REMARK                         _______ _______ _______ _____ _____    ______ ____
ROOT
ATOM      1  C   UNL     1       0.843   9.990  20.697  0.00  0.00    +0.000 C 
ATOM      2  O   UNL     1       1.141  10.179  21.872  0.00  0.00    +0.000 OA
ATOM      3  N   UNL     1      -0.023  10.838  19.995  0.00  0.00    +0.000 N 
ATOM      4  C   UNL     1      -0.336  12.145  20.567  0.00  0.00    +0.000 C 
ATOM      5  C   UNL     1      -1.843  12.350  20.674  0.00  0.00    +0.000 C 
ATOM      6  C   UNL     1      -2.523  12.164  19.318  0.00  0.00    +0.000 C 
ATOM      7  C   UNL     1      -2.162  10.805  18.702  0.00  0.00    +0.000 C 
ATOM      8  C   UNL     1      -0.646  10.566  18.691  0.00  0.00    +0.000 C 
ENDROOT
BRANCH   1  12
ATOM      9  C   UNL     1       2.472   6.510  18.760  0.00  0.00    +0.000 A 
ATOM     10  C   UNL     1       2.064   6.463  20.103  0.00  0.00    +0.000 A 
ATOM     11  C   UNL     1       1.547   7.600  20.727  0.00  0.00    +0.000 A 
ATOM     12  C   UNL     1       1.438   8.804  20.019  0.00  0.00    +0.000 A 
ATOM     13  C   UNL     1       1.946   8.879  18.718  0.00  0.00    +0.000 A 
ATOM     14  C   UNL     1       2.425   7.736  18.081  0.00  0.00    +0.000 A 
BRANCH   9  15
ATOM     15  C   UNL     1       2.958   5.269  18.042  0.00  0.00    +0.000 C 
BRANCH  15  17
ATOM     16  C   UNL     1       5.216   4.877  18.873  0.00  0.00    +0.000 C 
ATOM     17  N   UNL     1       4.398   5.286  17.727  0.00  0.00    +0.000 NA
ATOM     18  C   UNL     1       4.665   4.390  16.597  0.00  0.00    +0.000 C 
ENDBRANCH  15  17
ENDBRANCH   9  15
ENDBRANCH   1  12
BRANCH   7  19
ATOM     19  N   UNL     1      -2.704  10.648  17.357  0.00  0.00    +0.000 N 
ATOM     20  C   UNL     1      -2.197   9.871  16.355  0.00  0.00    +0.000 A 
ATOM     21  C   UNL     1      -3.021  10.060  15.271  0.00  0.00    +0.000 A 
ATOM     22  C   UNL     1      -3.985  10.983  15.712  0.00  0.00    +0.000 A 
ATOM     23  N   UNL     1      -3.785  11.358  16.977  0.00  0.00    +0.000 NA
ENDBRANCH   7  19
TORSDOF 4
ENDMDL
MODEL 3
REMARK VINA RESULT:      -6.9      0.645      1.285
REMARK  Name = 
REMARK  6 active torsions:
REMARK  status: ('A' for Active; 'I' for Inactive)
REMARK    1  A    between atoms: C_1  and  N_2
REMARK    2  A    between atoms: N_2  and  C_3
REMARK    3  A    between atoms: N_2  and  C_4
REMARK    4  A    between atoms: C_4  and  C_5
REMARK    5  A    between atoms: C_8  and  C_9
REMARK    6  A    between atoms: C_15  and  N_16
REMARK                            x       y       z     vdW  Elec       q    Type
REMARK                         _______ _______ _______ _____ _____    ______ ____
ROOT
ATOM      1  C   UNL     1       0.814  10.005  20.801  0.00  0.00    +0.000 C 
ATOM      2  O   UNL     1       1.104  10.218  21.974  0.00  0.00    +0.000 OA
ATOM      3  N   UNL     1      -0.020  10.856  20.066  0.00  0.00    +0.000 N 
ATOM      4  C   UNL     1      -0.304  12.186  20.598  0.00  0.00    +0.000 C 
ATOM      5  C   UNL     1      -1.807  12.434  20.682  0.00  0.00    +0.000 C 
ATOM      6  C   UNL     1      -2.476  12.229  19.323  0.00  0.00    +0.000 C 
ATOM      7  C   UNL     1      -2.145  10.844  18.749  0.00  0.00    +0.000 C 
ATOM      8  C   UNL     1      -0.637  10.564  18.762  0.00  0.00    +0.000 C 
ENDROOT
BRANCH   1  12
ATOM      9  C   UNL     1       2.552   6.534  18.943  0.00  0.00    +0.000 A 
ATOM     10  C   UNL     1       2.428   7.743  18.239  0.00  0.00    +0.000 A 
ATOM     11  C   UNL     1       1.853   8.862  18.846  0.00  0.00    +0.000 A 
ATOM     12  C   UNL     1       1.385   8.785  20.164  0.00  0.00    +0.000 A 
ATOM     13  C   UNL     1       1.408   7.552  20.826  0.00  0.00    +0.000 A 
ATOM     14  C   UNL     1       2.018   6.447  20.237  0.00  0.00    +0.000 A 
BRANCH   9  15
ATOM     15  C   UNL     1       3.247   5.336  18.333  0.00  0.00    +0.000 C 
BRANCH  15  17
ATOM     16  C   UNL     1       4.211   3.202  19.010  0.00  0.00    +0.000 C 
ATOM     17  N   UNL     1       4.169   4.646  19.254  0.00  0.00    +0.000 NA
ATOM     18  C   UNL     1       5.517   5.203  19.107  0.00  0.00    +0.000 C 
ENDBRANCH  15  17
ENDBRANCH   9  15
ENDBRANCH   1  12
BRANCH   7  19
ATOM     19  N   UNL     1      -2.676  10.665  17.402  0.00  0.00    +0.000 N 
ATOM     20  C   UNL     1      -2.195   9.826  16.437  0.00  0.00    +0.000 A 
ATOM     21  C   UNL     1      -2.995  10.015  15.335  0.00  0.00    +0.000 A 
ATOM     22  C   UNL     1      -3.917  11.001  15.727  0.00  0.00    +0.000 A 
ATOM     23  N   UNL     1      -3.716  11.412  16.980  0.00  0.00    +0.000 NA
ENDBRANCH   7  19
TORSDOF 4
ENDMDL
MODEL 4
REMARK VINA RESULT:      -6.9      0.513      1.322
REMARK  Name = 
REMARK  6 active torsions:
REMARK  status: ('A' for Active; 'I' for Inactive)
REMARK    1  A    between atoms: C_1  and  N_2
REMARK    2  A    between atoms: N_2  and  C_3
REMARK    3  A    between atoms: N_2  and  C_4
REMARK    4  A    between atoms: C_4  and  C_5
REMARK    5  A    between atoms: C_8  and  C_9
REMARK    6  A    between atoms: C_15  and  N_16
REMARK                            x       y       z     vdW  Elec       q    Type
REMARK                         _______ _______ _______ _____ _____    ______ ____
ROOT
ATOM      1  C   UNL     1       0.809  10.084  20.627  0.00  0.00    +0.000 C 
ATOM      2  O   UNL     1       1.101  10.244  21.808  0.00  0.00    +0.000 OA
ATOM      3  N   UNL     1      -0.087  10.923  19.953  0.00  0.00    +0.000 N 
ATOM      4  C   UNL     1      -0.445  12.199  20.568  0.00  0.00    +0.000 C 
ATOM      5  C   UNL     1      -1.959  12.347  20.683  0.00  0.00    +0.000 C 
ATOM      6  C   UNL     1      -2.634  12.182  19.322  0.00  0.00    +0.000 C 
ATOM      7  C   UNL     1      -2.226  10.857  18.661  0.00  0.00    +0.000 C 
ATOM      8  C   UNL     1      -0.703  10.672  18.641  0.00  0.00    +0.000 C 
ENDROOT
BRANCH   1  12
ATOM      9  C   UNL     1       2.730   6.848  18.539  0.00  0.00    +0.000 A 
ATOM     10  C   UNL     1       2.471   8.069  17.895  0.00  0.00    +0.000 A 
ATOM     11  C   UNL     1       1.837   9.110  18.577  0.00  0.00    +0.000 A 
ATOM     12  C   UNL     1       1.445   8.942  19.911  0.00  0.00    +0.000 A 
ATOM     13  C   UNL     1       1.603   7.691  20.517  0.00  0.00    +0.000 A 
ATOM     14  C   UNL     1       2.271   6.665  19.852  0.00  0.00    +0.000 A 
BRANCH   9  15
ATOM     15  C   UNL     1       3.489   5.738  17.845  0.00  0.00    +0.000 C 
BRANCH  15  17
ATOM     16  C   UNL     1       2.603   3.487  17.535  0.00  0.00    +0.000 C 
ATOM     17  N   UNL     1       3.287   4.408  18.448  0.00  0.00    +0.000 NA
ATOM     18  C   UNL     1       4.584   3.839  18.828  0.00  0.00    +0.000 C 
ENDBRANCH  15  17
ENDBRANCH   9  15
ENDBRANCH   1  12
BRANCH   7  19
ATOM     19  N   UNL     1      -2.764  10.726  17.311  0.00  0.00    +0.000 N 
ATOM     20  C   UNL     1      -3.903  11.302  16.825  0.00  0.00    +0.000 A 
ATOM     21  C   UNL     1      -4.019  10.876  15.522  0.00  0.00    +0.000 A 
ATOM     22  C   UNL     1      -2.913  10.033  15.322  0.00  0.00    +0.000 A 
ATOM     23  N   UNL     1      -2.155   9.924  16.415  0.00  0.00    +0.000 NA
ENDBRANCH   7  19
TORSDOF 4
ENDMDL
MODEL 5
REMARK VINA RESULT:      -6.8      0.868      1.218
REMARK  Name = 
REMARK  6 active torsions:
REMARK  status: ('A' for Active; 'I' for Inactive)
REMARK    1  A    between atoms: C_1  and  N_2
REMARK    2  A    between atoms: N_2  and  C_3
REMARK    3  A    between atoms: N_2  and  C_4
REMARK    4  A    between atoms: C_4  and  C_5
REMARK    5  A    between atoms: C_8  and  C_9
REMARK    6  A    between atoms: C_15  and  N_16
REMARK                            x       y       z     vdW  Elec       q    Type
REMARK                         _______ _______ _______ _____ _____    ______ ____
ROOT
ATOM      1  C   UNL     1       1.132   9.540  20.959  0.00  0.00    +0.000 C 
ATOM      2  O   UNL     1       1.476   9.650  22.131  0.00  0.00    +0.000 OA
ATOM      3  N   UNL     1       0.337  10.498  20.316  0.00  0.00    +0.000 N 
ATOM      4  C   UNL     1       0.171  11.805  20.947  0.00  0.00    +0.000 C 
ATOM      5  C   UNL     1      -1.305  12.153  21.106  0.00  0.00    +0.000 C 
ATOM      6  C   UNL     1      -2.034  12.091  19.765  0.00  0.00    +0.000 C 
ATOM      7  C   UNL     1      -1.826  10.730  19.086  0.00  0.00    +0.000 C 
ATOM      8  C   UNL     1      -0.343  10.343  19.021  0.00  0.00    +0.000 C 
ENDROOT
BRANCH   1  12
ATOM      9  C   UNL     1       2.354   6.000  18.840  0.00  0.00    +0.000 A 
ATOM     10  C   UNL     1       1.941   5.931  20.180  0.00  0.00    +0.000 A 
ATOM     11  C   UNL     1       1.557   7.087  20.864  0.00  0.00    +0.000 A 
ATOM     12  C   UNL     1       1.588   8.330  20.219  0.00  0.00    +0.000 A 
ATOM     13  C   UNL     1       2.103   8.413  18.921  0.00  0.00    +0.000 A 
ATOM     14  C   UNL     1       2.448   7.257  18.224  0.00  0.00    +0.000 A 
BRANCH   9  15
ATOM     15  C   UNL     1       2.694   4.751  18.057  0.00  0.00    +0.000 C 
BRANCH  15  17
ATOM     16  C   UNL     1       4.310   3.182  18.992  0.00  0.00    +0.000 C 
ATOM     17  N   UNL     1       4.114   4.360  18.143  0.00  0.00    +0.000 NA
ATOM     18  C   UNL     1       4.628   4.080  16.799  0.00  0.00    +0.000 C 
ENDBRANCH  15  17
ENDBRANCH   9  15
ENDBRANCH   1  12
BRANCH   7  19
ATOM     19  N   UNL     1      -2.416  10.683  17.753  0.00  0.00    +0.000 N 
ATOM     20  C   UNL     1      -3.495  11.394  17.309  0.00  0.00    +0.000 A 
ATOM     21  C   UNL     1      -3.697  11.006  16.005  0.00  0.00    +0.000 A 
ATOM     22  C   UNL     1      -2.701  10.044  15.760  0.00  0.00    +0.000 A 
ATOM     23  N   UNL     1      -1.929   9.832  16.828  0.00  0.00    +0.000 NA
ENDBRANCH   7  19
TORSDOF 4
ENDMDL
MODEL 6
REMARK VINA RESULT:      -6.8      0.940      1.699
REMARK  Name = 
REMARK  6 active torsions:
REMARK  status: ('A' for Active; 'I' for Inactive)
REMARK    1  A    between atoms: C_1  and  N_2
REMARK    2  A    between atoms: N_2  and  C_3
REMARK    3  A    between atoms: N_2  and  C_4
REMARK    4  A    between atoms: C_4  and  C_5
REMARK    5  A    between atoms: C_8  and  C_9
REMARK    6  A    between atoms: C_15  and  N_16
REMARK                            x       y       z     vdW  Elec       q    Type
REMARK                         _______ _______ _______ _____ _____    ______ ____
ROOT
ATOM      1  C   UNL     1       1.012   9.750  20.858  0.00  0.00    +0.000 C 
ATOM      2  O   UNL     1       1.352   9.915  22.026  0.00  0.00    +0.000 OA
ATOM      3  N   UNL     1       0.207  10.668  20.172  0.00  0.00    +0.000 N 
ATOM      4  C   UNL     1       0.022  11.999  20.745  0.00  0.00    +0.000 C 
ATOM      5  C   UNL     1      -1.459  12.334  20.885  0.00  0.00    +0.000 C 
ATOM      6  C   UNL     1      -2.183  12.204  19.546  0.00  0.00    +0.000 C 
ATOM      7  C   UNL     1      -1.955  10.817  18.928  0.00  0.00    +0.000 C 
ATOM      8  C   UNL     1      -0.467  10.448  18.884  0.00  0.00    +0.000 C 
ENDROOT
BRANCH   1  12
ATOM      9  C   UNL     1       2.476   6.230  18.861  0.00  0.00    +0.000 A 
ATOM     10  C   UNL     1       2.414   7.464  18.194  0.00  0.00    +0.000 A 
ATOM     11  C   UNL     1       1.927   8.600  18.847  0.00  0.00    +0.000 A 
ATOM     12  C   UNL     1       1.487   8.515  20.173  0.00  0.00    +0.000 A 
ATOM     13  C   UNL     1       1.446   7.265  20.800  0.00  0.00    +0.000 A 
ATOM     14  C   UNL     1       1.969   6.140  20.165  0.00  0.00    +0.000 A 
BRANCH   9  15
ATOM     15  C   UNL     1       3.077   5.009  18.200  0.00  0.00    +0.000 C 
BRANCH  15  17
ATOM     16  C   UNL     1       5.408   5.114  18.908  0.00  0.00    +0.000 C 
ATOM     17  N   UNL     1       4.478   5.187  17.777  0.00  0.00    +0.000 NA
ATOM     18  C   UNL     1       4.829   4.157  16.794  0.00  0.00    +0.000 C 
ENDBRANCH  15  17
ENDBRANCH   9  15
ENDBRANCH   1  12
BRANCH   7  19
ATOM     19  N   UNL     1      -2.540  10.705  17.596  0.00  0.00    +0.000 N 
ATOM     20  C   UNL     1      -3.710  11.262  17.166  0.00  0.00    +0.000 A 
ATOM     21  C   UNL     1      -3.863  10.866  15.858  0.00  0.00    +0.000 A 
ATOM     22  C   UNL     1      -2.744  10.057  15.597  0.00  0.00    +0.000 A 
ATOM     23  N   UNL     1      -1.944   9.942  16.658  0.00  0.00    +0.000 NA
ENDBRANCH   7  19
TORSDOF 4
ENDMDL
MODEL 7
REMARK VINA RESULT:      -6.8      0.889      1.367
REMARK  Name = 
REMARK  6 active torsions:
REMARK  status: ('A' for Active; 'I' for Inactive)
REMARK    1  A    between atoms: C_1  and  N_2
REMARK    2  A    between atoms: N_2  and  C_3
REMARK    3  A    between atoms: N_2  and  C_4
REMARK    4  A    between atoms: C_4  and  C_5
REMARK    5  A    between atoms: C_8  and  C_9
REMARK    6  A    between atoms: C_15  and  N_16
REMARK                            x       y       z     vdW  Elec       q    Type
REMARK                         _______ _______ _______ _____ _____    ______ ____
ROOT
ATOM      1  C   UNL     1       1.266   9.286  21.076  0.00  0.00    +0.000 C 
ATOM      2  O   UNL     1       1.650   9.409  22.235  0.00  0.00    +0.000 OA
ATOM      3  N   UNL     1       0.539  10.283  20.415  0.00  0.00    +0.000 N 
ATOM      4  C   UNL     1       0.499  11.621  20.999  0.00  0.00    +0.000 C 
ATOM      5  C   UNL     1      -0.939  12.098  21.178  0.00  0.00    +0.000 C 
ATOM      6  C   UNL     1      -1.705  12.050  19.857  0.00  0.00    +0.000 C 
ATOM      7  C   UNL     1      -1.629  10.652  19.227  0.00  0.00    +0.000 C 
ATOM      8  C   UNL     1      -0.186  10.139  19.143  0.00  0.00    +0.000 C 
ENDROOT
BRANCH   1  12
ATOM      9  C   UNL     1       2.331   5.651  19.034  0.00  0.00    +0.000 A 
ATOM     10  C   UNL     1       2.472   6.899  18.405  0.00  0.00    +0.000 A 
ATOM     11  C   UNL     1       2.113   8.073  19.071  0.00  0.00    +0.000 A 
ATOM     12  C   UNL     1       1.601   8.015  20.373  0.00  0.00    +0.000 A 
ATOM     13  C   UNL     1       1.358   6.767  20.957  0.00  0.00    +0.000 A 
ATOM     14  C   UNL     1       1.753   5.597  20.310  0.00  0.00    +0.000 A 
BRANCH   9  15
ATOM     15  C   UNL     1       2.791   4.376  18.361  0.00  0.00    +0.000 C 
BRANCH  15  17
ATOM     16  C   UNL     1       1.382   2.402  18.616  0.00  0.00    +0.000 C 
ATOM     17  N   UNL     1       2.522   3.156  19.145  0.00  0.00    +0.000 NA
ATOM     18  C   UNL     1       3.712   2.299  19.145  0.00  0.00    +0.000 C 
ENDBRANCH  15  17
ENDBRANCH   9  15
ENDBRANCH   1  12
BRANCH   7  19
ATOM     19  N   UNL     1      -2.255  10.607  17.910  0.00  0.00    +0.000 N 
ATOM     20  C   UNL     1      -1.892   9.814  16.858  0.00  0.00    +0.000 A 
ATOM     21  C   UNL     1      -2.745  10.134  15.827  0.00  0.00    +0.000 A 
ATOM     22  C   UNL     1      -3.573  11.143  16.349  0.00  0.00    +0.000 A 
ATOM     23  N   UNL     1      -3.266  11.446  17.612  0.00  0.00    +0.000 NA
ENDBRANCH   7  19
TORSDOF 4
ENDMDL
MODEL 8
REMARK VINA RESULT:      -6.7      0.695      1.317
REMARK  Name = 
REMARK  6 active torsions:
REMARK  status: ('A' for Active; 'I' for Inactive)
REMARK    1  A    between atoms: C_1  and  N_2
REMARK    2  A    between atoms: N_2  and  C_3
REMARK    3  A    between atoms: N_2  and  C_4
REMARK    4  A    between atoms: C_4  and  C_5
REMARK    5  A    between atoms: C_8  and  C_9
REMARK    6  A    between atoms: C_15  and  N_16
REMARK                            x       y       z     vdW  Elec       q    Type
REMARK                         _______ _______ _______ _____ _____    ______ ____
ROOT
ATOM      1  C   UNL     1       0.847   9.971  21.030  0.00  0.00    +0.000 C 
ATOM      2  O   UNL     1       1.153  10.238  22.187  0.00  0.00    +0.000 OA
ATOM      3  N   UNL     1       0.075  10.832  20.238  0.00  0.00    +0.000 N 
ATOM      4  C   UNL     1      -0.110  12.210  20.683  0.00  0.00    +0.000 C 
ATOM      5  C   UNL     1      -1.590  12.573  20.746  0.00  0.00    +0.000 C 
ATOM      6  C   UNL     1      -2.275  12.330  19.402  0.00  0.00    +0.000 C 
ATOM      7  C   UNL     1      -2.047  10.891  18.919  0.00  0.00    +0.000 C 
ATOM      8  C   UNL     1      -0.563  10.503  18.955  0.00  0.00    +0.000 C 
ENDROOT
BRANCH   1  12
ATOM      9  C   UNL     1       2.326   6.266  19.415  0.00  0.00    +0.000 A 
ATOM     10  C   UNL     1       2.417   7.460  18.681  0.00  0.00    +0.000 A 
ATOM     11  C   UNL     1       1.924   8.657  19.209  0.00  0.00    +0.000 A 
ATOM     12  C   UNL     1       1.325   8.674  20.474  0.00  0.00    +0.000 A 
ATOM     13  C   UNL     1       1.135   7.467  21.156  0.00  0.00    +0.000 A 
ATOM     14  C   UNL     1       1.663   6.281  20.651  0.00  0.00    +0.000 A 
BRANCH   9  15
ATOM     15  C   UNL     1       2.927   4.978  18.898  0.00  0.00    +0.000 C 
BRANCH  15  17
ATOM     16  C   UNL     1       2.757   3.448  17.007  0.00  0.00    +0.000 C 
ATOM     17  N   UNL     1       2.024   4.204  18.026  0.00  0.00    +0.000 NA
ATOM     18  C   UNL     1       1.230   3.278  18.840  0.00  0.00    +0.000 C 
ENDBRANCH  15  17
ENDBRANCH   9  15
ENDBRANCH   1  12
BRANCH   7  19
ATOM     19  N   UNL     1      -2.592  10.664  17.585  0.00  0.00    +0.000 N 
ATOM     20  C   UNL     1      -2.093   9.826  16.628  0.00  0.00    +0.000 A 
ATOM     21  C   UNL     1      -2.918   9.962  15.535  0.00  0.00    +0.000 A 
ATOM     22  C   UNL     1      -3.871  10.919  15.924  0.00  0.00    +0.000 A 
ATOM     23  N   UNL     1      -3.667  11.362  17.166  0.00  0.00    +0.000 NA
ENDBRANCH   7  19
TORSDOF 4
ENDMDL
MODEL 9
REMARK VINA RESULT:      -6.5      3.076      8.031
REMARK  Name = 
REMARK  6 active torsions:
REMARK  status: ('A' for Active; 'I' for Inactive)
REMARK    1  A    between atoms: C_1  and  N_2
REMARK    2  A    between atoms: N_2  and  C_3
REMARK    3  A    between atoms: N_2  and  C_4
REMARK    4  A    between atoms: C_4  and  C_5
REMARK    5  A    between atoms: C_8  and  C_9
REMARK    6  A    between atoms: C_15  and  N_16
REMARK                            x       y       z     vdW  Elec       q    Type
REMARK                         _______ _______ _______ _____ _____    ______ ____
ROOT
ATOM      1  C   UNL     1       3.174   7.631  17.592  0.00  0.00    +0.000 C 
ATOM      2  O   UNL     1       3.509   8.104  16.511  0.00  0.00    +0.000 OA
ATOM      3  N   UNL     1       3.637   6.390  18.047  0.00  0.00    +0.000 N 
ATOM      4  C   UNL     1       4.781   5.783  17.372  0.00  0.00    +0.000 C 
ATOM      5  C   UNL     1       4.459   4.364  16.914  0.00  0.00    +0.000 C 
ATOM      6  C   UNL     1       3.986   3.502  18.084  0.00  0.00    +0.000 C 
ATOM      7  C   UNL     1       2.808   4.161  18.814  0.00  0.00    +0.000 C 
ATOM      8  C   UNL     1       3.105   5.620  19.181  0.00  0.00    +0.000 C 
ENDROOT
BRANCH   1  12
ATOM      9  C   UNL     1       0.387   9.926  19.936  0.00  0.00    +0.000 A 
ATOM     10  C   UNL     1       0.759  10.342  18.647  0.00  0.00    +0.000 A 
ATOM     11  C   UNL     1       1.674   9.597  17.897  0.00  0.00    +0.000 A 
ATOM     12  C   UNL     1       2.234   8.430  18.430  0.00  0.00    +0.000 A 
ATOM     13  C   UNL     1       1.948   8.076  19.753  0.00  0.00    +0.000 A 
ATOM     14  C   UNL     1       1.006   8.795  20.487  0.00  0.00    +0.000 A 
BRANCH   9  15
ATOM     15  C   UNL     1      -0.662  10.672  20.730  0.00  0.00    +0.000 C 
BRANCH  15  17
ATOM     16  C   UNL     1      -0.338  12.711  22.028  0.00  0.00    +0.000 C 
ATOM     17  N   UNL     1      -0.157  11.257  21.986  0.00  0.00    +0.000 NA
ATOM     18  C   UNL     1      -0.852  10.650  23.125  0.00  0.00    +0.000 C 
ENDBRANCH  15  17
ENDBRANCH   9  15
ENDBRANCH   1  12
BRANCH   7  19
ATOM     19  N   UNL     1       2.410   3.415  20.004  0.00  0.00    +0.000 N 
ATOM     20  C   UNL     1       1.178   3.411  20.594  0.00  0.00    +0.000 A 
ATOM     21  C   UNL     1       1.284   2.590  21.692  0.00  0.00    +0.000 A 
ATOM     22  C   UNL     1       2.623   2.162  21.689  0.00  0.00    +0.000 A 
ATOM     23  N   UNL     1       3.317   2.676  20.673  0.00  0.00    +0.000 NA
ENDBRANCH   7  19
TORSDOF 4
ENDMDL
