MODEL 1
REMARK VINA RESULT:      -8.0      0.000      0.000
REMARK  Name = 
REMARK  9 active torsions:
REMARK  status: ('A' for Active; 'I' for Inactive)
REMARK    1  A    between atoms: C_1  and  C_2
REMARK    2  A    between atoms: N_5  and  C_6
REMARK    3  A    between atoms: C_6  and  C_7
REMARK    4  A    between atoms: C_7  and  N_8
REMARK    5  A    between atoms: N_8  and  C_9
REMARK    6  A    between atoms: C_9  and  C_10
REMARK    7  A    between atoms: C_15  and  O_16
REMARK    8  A    between atoms: O_16  and  C_17
REMARK    9  A    between atoms: C_17  and  C_18
REMARK                            x       y       z     vdW  Elec       q    Type
REMARK                         _______ _______ _______ _____ _____    ______ ____
ROOT
ATOM      1  C   UNL     1       3.414   3.746  19.547  0.00  0.00    +0.000 A 
ATOM      2  C   UNL     1       3.454   2.757  20.559  0.00  0.00    +0.000 A 
ATOM      3  C   UNL     1       2.386   2.560  21.431  0.00  0.00    +0.000 A 
ATOM      4  C   UNL     1       1.263   3.359  21.320  0.00  0.00    +0.000 A 
ATOM      5  C   UNL     1       1.206   4.346  20.334  0.00  0.00    +0.000 A 
ATOM      6  C   UNL     1       2.247   4.529  19.407  0.00  0.00    +0.000 A 
ENDROOT
BRANCH   1   7
ATOM      7  C   UNL     1       4.629   3.857  18.657  0.00  0.00    +0.000 C 
BRANCH   7   8
ATOM      8  N   UNL     1       5.777   4.593  19.209  0.00  0.00    +0.000 NA
ATOM      9  H   UNL     1       5.414   5.212  19.935  0.00  0.00    +0.000 HD
BRANCH   8  10
ATOM     10  C   UNL     1       6.528   5.409  18.236  0.00  0.00    +0.000 C 
BRANCH  10  11
ATOM     11  C   UNL     1       7.371   4.490  17.340  0.00  0.00    +0.000 C 
BRANCH  11  16
ATOM     12  C   UNL     1       5.419   3.445  12.851  0.00  0.00    +0.000 C 
ATOM     13  C   UNL     1       6.194   4.053  13.955  0.00  0.00    +0.000 A 
ATOM     14  C   UNL     1       7.180   5.066  13.895  0.00  0.00    +0.000 A 
ATOM     15  N   UNL     1       7.692   5.365  15.093  0.00  0.00    +0.000 NA
ATOM     16  N   UNL     1       7.022   4.551  15.934  0.00  0.00    +0.000 N 
ATOM     17  C   UNL     1       6.120   3.746  15.295  0.00  0.00    +0.000 A 
ENDBRANCH  11  16
ENDBRANCH  10  11
ENDBRANCH   8  10
ENDBRANCH   7   8
ENDBRANCH   1   7
BRANCH   6  18
ATOM     18  O   UNL     1       2.170   5.426  18.357  0.00  0.00    +0.000 OA
BRANCH  18  19
ATOM     19  C   UNL     1       2.984   6.602  18.507  0.00  0.00    +0.000 C 
BRANCH  19  20
ATOM     20  C   UNL     1       2.234   7.872  18.806  0.00  0.00    +0.000 A 
ATOM     21  C   UNL     1       1.924   8.838  17.851  0.00  0.00    +0.000 A 
ATOM     22  C   UNL     1       1.072   9.888  18.189  0.00  0.00    +0.000 A 
ATOM     23  C   UNL     1       0.566   9.945  19.478  0.00  0.00    +0.000 A 
ATOM     24  N   UNL     1       0.876   9.056  20.444  0.00  0.00    +0.000 NA
ATOM     25  C   UNL     1       1.702   8.047  20.085  0.00  0.00    +0.000 A 
ENDBRANCH  19  20
ENDBRANCH  18  19
ENDBRANCH   6  18
TORSDOF 8
ENDMDL
MODEL 2
REMARK VINA RESULT:      -7.9      1.011      1.312
REMARK  Name = 
REMARK  9 active torsions:
REMARK  status: ('A' for Active; 'I' for Inactive)
REMARK    1  A    between atoms: C_1  and  C_2
REMARK    2  A    between atoms: N_5  and  C_6
REMARK    3  A    between atoms: C_6  and  C_7
REMARK    4  A    between atoms: C_7  and  N_8
REMARK    5  A    between atoms: N_8  and  C_9
REMARK    6  A    between atoms: C_9  and  C_10
REMARK    7  A    between atoms: C_15  and  O_16
REMARK    8  A    between atoms: O_16  and  C_17
REMARK    9  A    between atoms: C_17  and  C_18
REMARK                            x       y       z     vdW  Elec       q    Type
REMARK                         _______ _______ _______ _____ _____    ______ ____
ROOT
ATOM      1  C   UNL     1       3.484   3.644  19.270  0.00  0.00    +0.000 A 
ATOM      2  C   UNL     1       2.871   2.413  19.606  0.00  0.00    +0.000 A 
ATOM      3  C   UNL     1       1.852   2.338  20.552  0.00  0.00    +0.000 A 
ATOM      4  C   UNL     1       1.436   3.489  21.195  0.00  0.00    +0.000 A 
ATOM      5  C   UNL     1       2.033   4.713  20.885  0.00  0.00    +0.000 A 
ATOM      6  C   UNL     1       3.026   4.824  19.895  0.00  0.00    +0.000 A 
ENDROOT
BRANCH   1   7
ATOM      7  C   UNL     1       4.570   3.599  18.222  0.00  0.00    +0.000 C 
BRANCH   7   8
ATOM      8  N   UNL     1       5.930   3.928  18.676  0.00  0.00    +0.000 NA
ATOM      9  H   UNL     1       5.850   4.265  19.638  0.00  0.00    +0.000 HD
BRANCH   8  10
ATOM     10  C   UNL     1       6.628   4.957  17.881  0.00  0.00    +0.000 C 
BRANCH  10  11
ATOM     11  C   UNL     1       5.702   5.451  16.760  0.00  0.00    +0.000 C 
BRANCH  11  16
ATOM     12  C   UNL     1       6.023   3.273  12.265  0.00  0.00    +0.000 C 
ATOM     13  C   UNL     1       6.296   4.085  13.471  0.00  0.00    +0.000 A 
ATOM     14  C   UNL     1       7.450   4.839  13.792  0.00  0.00    +0.000 A 
ATOM     15  N   UNL     1       7.364   5.440  14.983  0.00  0.00    +0.000 NA
ATOM     16  N   UNL     1       6.140   5.085  15.427  0.00  0.00    +0.000 N 
ATOM     17  C   UNL     1       5.470   4.270  14.557  0.00  0.00    +0.000 A 
ENDBRANCH  11  16
ENDBRANCH  10  11
ENDBRANCH   8  10
ENDBRANCH   7   8
ENDBRANCH   1   7
BRANCH   6  18
ATOM     18  O   UNL     1       3.556   6.037  19.495  0.00  0.00    +0.000 OA
BRANCH  18  19
ATOM     19  C   UNL     1       2.821   6.703  18.454  0.00  0.00    +0.000 C 
BRANCH  19  20
ATOM     20  C   UNL     1       2.070   7.936  18.880  0.00  0.00    +0.000 A 
ATOM     21  C   UNL     1       1.544   8.126  20.156  0.00  0.00    +0.000 A 
ATOM     22  C   UNL     1       1.026   9.373  20.505  0.00  0.00    +0.000 A 
ATOM     23  C   UNL     1       1.039  10.386  19.559  0.00  0.00    +0.000 A 
ATOM     24  N   UNL     1       1.497  10.230  18.300  0.00  0.00    +0.000 NA
ATOM     25  C   UNL     1       1.997   9.011  17.992  0.00  0.00    +0.000 A 
ENDBRANCH  19  20
ENDBRANCH  18  19
ENDBRANCH   6  18
TORSDOF 8
ENDMDL
MODEL 3
REMARK VINA RESULT:      -7.7      1.394      1.780
REMARK  Name = 
REMARK  9 active torsions:
REMARK  status: ('A' for Active; 'I' for Inactive)
REMARK    1  A    between atoms: C_1  and  C_2
REMARK    2  A    between atoms: N_5  and  C_6
REMARK    3  A    between atoms: C_6  and  C_7
REMARK    4  A    between atoms: C_7  and  N_8
REMARK    5  A    between atoms: N_8  and  C_9
REMARK    6  A    between atoms: C_9  and  C_10
REMARK    7  A    between atoms: C_15  and  O_16
REMARK    8  A    between atoms: O_16  and  C_17
REMARK    9  A    between atoms: C_17  and  C_18
REMARK                            x       y       z     vdW  Elec       q    Type
REMARK                         _______ _______ _______ _____ _____    ______ ____
ROOT
ATOM      1  C   UNL     1       3.743   4.264  18.597  0.00  0.00    +0.000 A 
ATOM      2  C   UNL     1       3.473   3.117  17.813  0.00  0.00    +0.000 A 
ATOM      3  C   UNL     1       2.281   2.408  17.942  0.00  0.00    +0.000 A 
ATOM      4  C   UNL     1       1.343   2.821  18.869  0.00  0.00    +0.000 A 
ATOM      5  C   UNL     1       1.593   3.945  19.659  0.00  0.00    +0.000 A 
ATOM      6  C   UNL     1       2.764   4.709  19.511  0.00  0.00    +0.000 A 
ENDROOT
BRANCH   1   7
ATOM      7  C   UNL     1       5.066   4.953  18.359  0.00  0.00    +0.000 C 
BRANCH   7   8
ATOM      8  N   UNL     1       6.258   4.092  18.348  0.00  0.00    +0.000 NA
ATOM      9  H   UNL     1       6.653   4.117  19.290  0.00  0.00    +0.000 HD
BRANCH   8  10
ATOM     10  C   UNL     1       7.312   4.487  17.393  0.00  0.00    +0.000 C 
BRANCH  10  11
ATOM     11  C   UNL     1       6.748   5.522  16.409  0.00  0.00    +0.000 C 
BRANCH  11  16
ATOM     12  C   UNL     1       5.761   3.031  12.181  0.00  0.00    +0.000 C 
ATOM     13  C   UNL     1       6.342   3.952  13.184  0.00  0.00    +0.000 A 
ATOM     14  C   UNL     1       7.461   4.809  13.060  0.00  0.00    +0.000 A 
ATOM     15  N   UNL     1       7.719   5.493  14.179  0.00  0.00    +0.000 NA
ATOM     16  N   UNL     1       6.751   5.087  15.026  0.00  0.00    +0.000 N 
ATOM     17  C   UNL     1       5.909   4.161  14.474  0.00  0.00    +0.000 A 
ENDBRANCH  11  16
ENDBRANCH  10  11
ENDBRANCH   8  10
ENDBRANCH   7   8
ENDBRANCH   1   7
BRANCH   6  18
ATOM     18  O   UNL     1       2.987   5.885  20.205  0.00  0.00    +0.000 OA
BRANCH  18  19
ATOM     19  C   UNL     1       1.815   6.690  20.422  0.00  0.00    +0.000 C 
BRANCH  19  20
ATOM     20  C   UNL     1       1.700   7.910  19.549  0.00  0.00    +0.000 A 
ATOM     21  C   UNL     1       1.074   9.092  19.939  0.00  0.00    +0.000 A 
ATOM     22  C   UNL     1       1.177  10.222  19.129  0.00  0.00    +0.000 A 
ATOM     23  C   UNL     1       1.895  10.130  17.947  0.00  0.00    +0.000 A 
ATOM     24  N   UNL     1       2.477   8.993  17.512  0.00  0.00    +0.000 NA
ATOM     25  C   UNL     1       2.363   7.915  18.320  0.00  0.00    +0.000 A 
ENDBRANCH  19  20
ENDBRANCH  18  19
ENDBRANCH   6  18
TORSDOF 8
ENDMDL
MODEL 4
REMARK VINA RESULT:      -7.7      1.740      4.583
REMARK  Name = 
REMARK  9 active torsions:
REMARK  status: ('A' for Active; 'I' for Inactive)
REMARK    1  A    between atoms: C_1  and  C_2
REMARK    2  A    between atoms: N_5  and  C_6
REMARK    3  A    between atoms: C_6  and  C_7
REMARK    4  A    between atoms: C_7  and  N_8
REMARK    5  A    between atoms: N_8  and  C_9
REMARK    6  A    between atoms: C_9  and  C_10
REMARK    7  A    between atoms: C_15  and  O_16
REMARK    8  A    between atoms: O_16  and  C_17
REMARK    9  A    between atoms: C_17  and  C_18
REMARK                            x       y       z     vdW  Elec       q    Type
REMARK                         _______ _______ _______ _____ _____    ______ ____
ROOT
ATOM      1  C   UNL     1       3.004   7.682  18.220  0.00  0.00    +0.000 A 
ATOM      2  C   UNL     1       2.454   8.866  17.673  0.00  0.00    +0.000 A 
ATOM      3  C   UNL     1       1.468   9.589  18.340  0.00  0.00    +0.000 A 
ATOM      4  C   UNL     1       0.999   9.134  19.558  0.00  0.00    +0.000 A 
ATOM      5  C   UNL     1       1.522   7.963  20.112  0.00  0.00    +0.000 A 
ATOM      6  C   UNL     1       2.555   7.245  19.486  0.00  0.00    +0.000 A 
ENDROOT
BRANCH   1   7
ATOM      7  C   UNL     1       4.074   6.992  17.408  0.00  0.00    +0.000 C 
BRANCH   7   8
ATOM      8  N   UNL     1       3.886   5.553  17.168  0.00  0.00    +0.000 NA
ATOM      9  H   UNL     1       3.211   5.221  17.860  0.00  0.00    +0.000 HD
BRANCH   8  10
ATOM     10  C   UNL     1       5.106   4.731  17.279  0.00  0.00    +0.000 C 
BRANCH  10  11
ATOM     11  C   UNL     1       6.273   5.452  16.589  0.00  0.00    +0.000 C 
BRANCH  11  16
ATOM     12  C   UNL     1       5.881   3.131  12.171  0.00  0.00    +0.000 C 
ATOM     13  C   UNL     1       6.321   4.005  13.281  0.00  0.00    +0.000 A 
ATOM     14  C   UNL     1       7.456   4.847  13.353  0.00  0.00    +0.000 A 
ATOM     15  N   UNL     1       7.557   5.486  14.522  0.00  0.00    +0.000 NA
ATOM     16  N   UNL     1       6.471   5.066  15.205  0.00  0.00    +0.000 N 
ATOM     17  C   UNL     1       5.708   4.176  14.502  0.00  0.00    +0.000 A 
ENDBRANCH  11  16
ENDBRANCH  10  11
ENDBRANCH   8  10
ENDBRANCH   7   8
ENDBRANCH   1   7
BRANCH   6  18
ATOM     18  O   UNL     1       3.163   6.144  20.063  0.00  0.00    +0.000 OA
BRANCH  18  19
ATOM     19  C   UNL     1       2.264   5.084  20.433  0.00  0.00    +0.000 C 
BRANCH  19  20
ATOM     20  C   UNL     1       2.502   3.766  19.747  0.00  0.00    +0.000 A 
ATOM     21  C   UNL     1       1.730   3.285  18.692  0.00  0.00    +0.000 A 
ATOM     22  C   UNL     1       2.141   2.142  18.008  0.00  0.00    +0.000 A 
ATOM     23  C   UNL     1       3.306   1.509  18.410  0.00  0.00    +0.000 A 
ATOM     24  N   UNL     1       4.057   1.916  19.454  0.00  0.00    +0.000 NA
ATOM     25  C   UNL     1       3.636   3.029  20.096  0.00  0.00    +0.000 A 
ENDBRANCH  19  20
ENDBRANCH  18  19
ENDBRANCH   6  18
TORSDOF 8
ENDMDL
MODEL 5
REMARK VINA RESULT:      -7.6      1.646      4.594
REMARK  Name = 
REMARK  9 active torsions:
REMARK  status: ('A' for Active; 'I' for Inactive)
REMARK    1  A    between atoms: C_1  and  C_2
REMARK    2  A    between atoms: N_5  and  C_6
REMARK    3  A    between atoms: C_6  and  C_7
REMARK    4  A    between atoms: C_7  and  N_8
REMARK    5  A    between atoms: N_8  and  C_9
REMARK    6  A    between atoms: C_9  and  C_10
REMARK    7  A    between atoms: C_15  and  O_16
REMARK    8  A    between atoms: O_16  and  C_17
REMARK    9  A    between atoms: C_17  and  C_18
REMARK                            x       y       z     vdW  Elec       q    Type
REMARK                         _______ _______ _______ _____ _____    ______ ____
ROOT
ATOM      1  C   UNL     1       2.591   7.465  18.386  0.00  0.00    +0.000 A 
ATOM      2  C   UNL     1       2.216   8.679  17.761  0.00  0.00    +0.000 A 
ATOM      3  C   UNL     1       1.448   9.634  18.422  0.00  0.00    +0.000 A 
ATOM      4  C   UNL     1       1.023   9.388  19.715  0.00  0.00    +0.000 A 
ATOM      5  C   UNL     1       1.375   8.193  20.347  0.00  0.00    +0.000 A 
ATOM      6  C   UNL     1       2.194   7.237  19.722  0.00  0.00    +0.000 A 
ENDROOT
BRANCH   1   7
ATOM      7  C   UNL     1       3.435   6.514  17.571  0.00  0.00    +0.000 C 
BRANCH   7   8
ATOM      8  N   UNL     1       4.864   6.455  17.910  0.00  0.00    +0.000 NA
ATOM      9  H   UNL     1       5.383   6.581  17.039  0.00  0.00    +0.000 HD
BRANCH   8  10
ATOM     10  C   UNL     1       5.312   5.197  18.539  0.00  0.00    +0.000 C 
BRANCH  10  11
ATOM     11  C   UNL     1       6.600   4.714  17.856  0.00  0.00    +0.000 C 
BRANCH  11  16
ATOM     12  C   UNL     1       7.369   4.948  12.915  0.00  0.00    +0.000 C 
ATOM     13  C   UNL     1       6.795   4.671  14.251  0.00  0.00    +0.000 A 
ATOM     14  C   UNL     1       5.549   4.088  14.579  0.00  0.00    +0.000 A 
ATOM     15  N   UNL     1       5.344   4.004  15.897  0.00  0.00    +0.000 NA
ATOM     16  N   UNL     1       6.473   4.522  16.424  0.00  0.00    +0.000 N 
ATOM     17  C   UNL     1       7.365   4.939  15.476  0.00  0.00    +0.000 A 
ENDBRANCH  11  16
ENDBRANCH  10  11
ENDBRANCH   8  10
ENDBRANCH   7   8
ENDBRANCH   1   7
BRANCH   6  18
ATOM     18  O   UNL     1       2.644   6.097  20.364  0.00  0.00    +0.000 OA
BRANCH  18  19
ATOM     19  C   UNL     1       1.716   4.998  20.361  0.00  0.00    +0.000 C 
BRANCH  19  20
ATOM     20  C   UNL     1       2.181   3.761  19.642  0.00  0.00    +0.000 A 
ATOM     21  C   UNL     1       1.752   3.391  18.369  0.00  0.00    +0.000 A 
ATOM     22  C   UNL     1       2.377   2.328  17.717  0.00  0.00    +0.000 A 
ATOM     23  C   UNL     1       3.404   1.661  18.366  0.00  0.00    +0.000 A 
ATOM     24  N   UNL     1       3.818   1.959  19.615  0.00  0.00    +0.000 NA
ATOM     25  C   UNL     1       3.196   2.997  20.220  0.00  0.00    +0.000 A 
ENDBRANCH  19  20
ENDBRANCH  18  19
ENDBRANCH   6  18
TORSDOF 8
ENDMDL
MODEL 6
REMARK VINA RESULT:      -7.6      1.169      1.441
REMARK  Name = 
REMARK  9 active torsions:
REMARK  status: ('A' for Active; 'I' for Inactive)
REMARK    1  A    between atoms: C_1  and  C_2
REMARK    2  A    between atoms: N_5  and  C_6
REMARK    3  A    between atoms: C_6  and  C_7
REMARK    4  A    between atoms: C_7  and  N_8
REMARK    5  A    between atoms: N_8  and  C_9
REMARK    6  A    between atoms: C_9  and  C_10
REMARK    7  A    between atoms: C_15  and  O_16
REMARK    8  A    between atoms: O_16  and  C_17
REMARK    9  A    between atoms: C_17  and  C_18
REMARK                            x       y       z     vdW  Elec       q    Type
REMARK                         _______ _______ _______ _____ _____    ______ ____
ROOT
ATOM      1  C   UNL     1       3.453   3.800  19.325  0.00  0.00    +0.000 A 
ATOM      2  C   UNL     1       2.883   2.524  19.553  0.00  0.00    +0.000 A 
ATOM      3  C   UNL     1       1.730   2.366  20.318  0.00  0.00    +0.000 A 
ATOM      4  C   UNL     1       1.134   3.476  20.887  0.00  0.00    +0.000 A 
ATOM      5  C   UNL     1       1.686   4.744  20.681  0.00  0.00    +0.000 A 
ATOM      6  C   UNL     1       2.816   4.937  19.869  0.00  0.00    +0.000 A 
ENDROOT
BRANCH   1   7
ATOM      7  C   UNL     1       4.697   3.845  18.470  0.00  0.00    +0.000 C 
BRANCH   7   8
ATOM      8  N   UNL     1       5.968   4.063  19.177  0.00  0.00    +0.000 NA
ATOM      9  H   UNL     1       5.813   3.810  20.155  0.00  0.00    +0.000 HD
BRANCH   8  10
ATOM     10  C   UNL     1       6.486   5.444  19.131  0.00  0.00    +0.000 C 
BRANCH  10  11
ATOM     11  C   UNL     1       7.390   5.610  17.902  0.00  0.00    +0.000 C 
BRANCH  11  16
ATOM     12  C   UNL     1       6.116   3.784  13.419  0.00  0.00    +0.000 C 
ATOM     13  C   UNL     1       6.196   4.607  14.646  0.00  0.00    +0.000 A 
ATOM     14  C   UNL     1       5.534   5.822  14.944  0.00  0.00    +0.000 A 
ATOM     15  N   UNL     1       5.854   6.306  16.148  0.00  0.00    +0.000 NA
ATOM     16  N   UNL     1       6.716   5.390  16.638  0.00  0.00    +0.000 N 
ATOM     17  C   UNL     1       6.952   4.361  15.769  0.00  0.00    +0.000 A 
ENDBRANCH  11  16
ENDBRANCH  10  11
ENDBRANCH   8  10
ENDBRANCH   7   8
ENDBRANCH   1   7
BRANCH   6  18
ATOM     18  O   UNL     1       3.318   6.189  19.564  0.00  0.00    +0.000 OA
BRANCH  18  19
ATOM     19  C   UNL     1       2.662   6.852  18.470  0.00  0.00    +0.000 C 
BRANCH  19  20
ATOM     20  C   UNL     1       1.974   8.145  18.816  0.00  0.00    +0.000 A 
ATOM     21  C   UNL     1       1.402   8.416  20.057  0.00  0.00    +0.000 A 
ATOM     22  C   UNL     1       0.951   9.705  20.337  0.00  0.00    +0.000 A 
ATOM     23  C   UNL     1       1.076  10.680  19.360  0.00  0.00    +0.000 A 
ATOM     24  N   UNL     1       1.583  10.449  18.132  0.00  0.00    +0.000 NA
ATOM     25  C   UNL     1       2.016   9.190  17.891  0.00  0.00    +0.000 A 
ENDBRANCH  19  20
ENDBRANCH  18  19
ENDBRANCH   6  18
TORSDOF 8
ENDMDL
MODEL 7
REMARK VINA RESULT:      -7.5      1.433      2.715
REMARK  Name = 
REMARK  9 active torsions:
REMARK  status: ('A' for Active; 'I' for Inactive)
REMARK    1  A    between atoms: C_1  and  C_2
REMARK    2  A    between atoms: N_5  and  C_6
REMARK    3  A    between atoms: C_6  and  C_7
REMARK    4  A    between atoms: C_7  and  N_8
REMARK    5  A    between atoms: N_8  and  C_9
REMARK    6  A    between atoms: C_9  and  C_10
REMARK    7  A    between atoms: C_15  and  O_16
REMARK    8  A    between atoms: O_16  and  C_17
REMARK    9  A    between atoms: C_17  and  C_18
REMARK                            x       y       z     vdW  Elec       q    Type
REMARK                         _______ _______ _______ _____ _____    ______ ____
ROOT
ATOM      1  C   UNL     1       3.158   3.380  18.342  0.00  0.00    +0.000 A 
ATOM      2  C   UNL     1       2.333   2.245  18.156  0.00  0.00    +0.000 A 
ATOM      3  C   UNL     1       1.075   2.151  18.746  0.00  0.00    +0.000 A 
ATOM      4  C   UNL     1       0.624   3.182  19.549  0.00  0.00    +0.000 A 
ATOM      5  C   UNL     1       1.426   4.308  19.753  0.00  0.00    +0.000 A 
ATOM      6  C   UNL     1       2.675   4.451  19.125  0.00  0.00    +0.000 A 
ENDROOT
BRANCH   1   7
ATOM      7  C   UNL     1       4.496   3.369  17.641  0.00  0.00    +0.000 C 
BRANCH   7   8
ATOM      8  N   UNL     1       4.536   3.973  16.301  0.00  0.00    +0.000 NA
ATOM      9  H   UNL     1       3.706   3.648  15.801  0.00  0.00    +0.000 HD
BRANCH   8  10
ATOM     10  C   UNL     1       5.725   3.638  15.493  0.00  0.00    +0.000 C 
BRANCH  10  11
ATOM     11  C   UNL     1       6.545   4.911  15.240  0.00  0.00    +0.000 C 
BRANCH  11  16
ATOM     12  C   UNL     1       8.204   5.693  19.898  0.00  0.00    +0.000 C 
ATOM     13  C   UNL     1       7.718   5.884  18.513  0.00  0.00    +0.000 A 
ATOM     14  C   UNL     1       7.381   7.087  17.848  0.00  0.00    +0.000 A 
ATOM     15  N   UNL     1       6.956   6.888  16.597  0.00  0.00    +0.000 NA
ATOM     16  N   UNL     1       7.033   5.549  16.447  0.00  0.00    +0.000 N 
ATOM     17  C   UNL     1       7.478   4.910  17.570  0.00  0.00    +0.000 A 
ENDBRANCH  11  16
ENDBRANCH  10  11
ENDBRANCH   8  10
ENDBRANCH   7   8
ENDBRANCH   1   7
BRANCH   6  18
ATOM     18  O   UNL     1       3.440   5.599  19.225  0.00  0.00    +0.000 OA
BRANCH  18  19
ATOM     19  C   UNL     1       3.197   6.577  18.199  0.00  0.00    +0.000 C 
BRANCH  19  20
ATOM     20  C   UNL     1       2.406   7.782  18.631  0.00  0.00    +0.000 A 
ATOM     21  C   UNL     1       1.939   8.763  17.759  0.00  0.00    +0.000 A 
ATOM     22  C   UNL     1       1.064   9.741  18.230  0.00  0.00    +0.000 A 
ATOM     23  C   UNL     1       0.694   9.713  19.566  0.00  0.00    +0.000 A 
ATOM     24  N   UNL     1       1.158   8.808  20.452  0.00  0.00    +0.000 NA
ATOM     25  C   UNL     1       2.002   7.870  19.965  0.00  0.00    +0.000 A 
ENDBRANCH  19  20
ENDBRANCH  18  19
ENDBRANCH   6  18
TORSDOF 8
ENDMDL
MODEL 8
REMARK VINA RESULT:      -7.5      1.423      2.668
REMARK  Name = 
REMARK  9 active torsions:
REMARK  status: ('A' for Active; 'I' for Inactive)
REMARK    1  A    between atoms: C_1  and  C_2
REMARK    2  A    between atoms: N_5  and  C_6
REMARK    3  A    between atoms: C_6  and  C_7
REMARK    4  A    between atoms: C_7  and  N_8
REMARK    5  A    between atoms: N_8  and  C_9
REMARK    6  A    between atoms: C_9  and  C_10
REMARK    7  A    between atoms: C_15  and  O_16
REMARK    8  A    between atoms: O_16  and  C_17
REMARK    9  A    between atoms: C_17  and  C_18
REMARK                            x       y       z     vdW  Elec       q    Type
REMARK                         _______ _______ _______ _____ _____    ______ ____
ROOT
ATOM      1  C   UNL     1       3.179   3.399  19.215  0.00  0.00    +0.000 A 
ATOM      2  C   UNL     1       2.597   2.289  19.872  0.00  0.00    +0.000 A 
ATOM      3  C   UNL     1       1.838   2.440  21.030  0.00  0.00    +0.000 A 
ATOM      4  C   UNL     1       1.660   3.702  21.565  0.00  0.00    +0.000 A 
ATOM      5  C   UNL     1       2.233   4.811  20.938  0.00  0.00    +0.000 A 
ATOM      6  C   UNL     1       2.957   4.692  19.739  0.00  0.00    +0.000 A 
ENDROOT
BRANCH   1   7
ATOM      7  C   UNL     1       3.970   3.109  17.962  0.00  0.00    +0.000 C 
BRANCH   7   8
ATOM      8  N   UNL     1       4.859   4.181  17.489  0.00  0.00    +0.000 NA
ATOM      9  H   UNL     1       4.325   5.051  17.527  0.00  0.00    +0.000 HD
BRANCH   8  10
ATOM     10  C   UNL     1       5.374   4.012  16.116  0.00  0.00    +0.000 C 
BRANCH  10  11
ATOM     11  C   UNL     1       6.858   4.405  16.075  0.00  0.00    +0.000 C 
BRANCH  11  16
ATOM     12  C   UNL     1       8.238   8.638  18.364  0.00  0.00    +0.000 C 
ATOM     13  C   UNL     1       7.894   7.228  18.074  0.00  0.00    +0.000 A 
ATOM     14  C   UNL     1       8.001   6.096  18.916  0.00  0.00    +0.000 A 
ATOM     15  N   UNL     1       7.616   4.964  18.319  0.00  0.00    +0.000 NA
ATOM     16  N   UNL     1       7.242   5.370  17.087  0.00  0.00    +0.000 N 
ATOM     17  C   UNL     1       7.398   6.715  16.896  0.00  0.00    +0.000 A 
ENDBRANCH  11  16
ENDBRANCH  10  11
ENDBRANCH   8  10
ENDBRANCH   7   8
ENDBRANCH   1   7
BRANCH   6  18
ATOM     18  O   UNL     1       3.443   5.784  19.042  0.00  0.00    +0.000 OA
BRANCH  18  19
ATOM     19  C   UNL     1       2.482   6.432  18.191  0.00  0.00    +0.000 C 
BRANCH  19  20
ATOM     20  C   UNL     1       2.076   7.818  18.614  0.00  0.00    +0.000 A 
ATOM     21  C   UNL     1       1.925   8.889  17.736  0.00  0.00    +0.000 A 
ATOM     22  C   UNL     1       1.371  10.082  18.199  0.00  0.00    +0.000 A 
ATOM     23  C   UNL     1       0.997  10.168  19.531  0.00  0.00    +0.000 A 
ATOM     24  N   UNL     1       1.168   9.171  20.423  0.00  0.00    +0.000 NA
ATOM     25  C   UNL     1       1.704   8.025  19.944  0.00  0.00    +0.000 A 
ENDBRANCH  19  20
ENDBRANCH  18  19
ENDBRANCH   6  18
TORSDOF 8
ENDMDL
MODEL 9
REMARK VINA RESULT:      -7.5      2.314      7.047
REMARK  Name = 
REMARK  9 active torsions:
REMARK  status: ('A' for Active; 'I' for Inactive)
REMARK    1  A    between atoms: C_1  and  C_2
REMARK    2  A    between atoms: N_5  and  C_6
REMARK    3  A    between atoms: C_6  and  C_7
REMARK    4  A    between atoms: C_7  and  N_8
REMARK    5  A    between atoms: N_8  and  C_9
REMARK    6  A    between atoms: C_9  and  C_10
REMARK    7  A    between atoms: C_15  and  O_16
REMARK    8  A    between atoms: O_16  and  C_17
REMARK    9  A    between atoms: C_17  and  C_18
REMARK                            x       y       z     vdW  Elec       q    Type
REMARK                         _______ _______ _______ _____ _____    ______ ____
ROOT
ATOM      1  C   UNL     1       2.017   5.095  19.408  0.00  0.00    +0.000 A 
ATOM      2  C   UNL     1       1.268   4.319  20.325  0.00  0.00    +0.000 A 
ATOM      3  C   UNL     1       0.912   3.002  20.046  0.00  0.00    +0.000 A 
ATOM      4  C   UNL     1       1.281   2.439  18.838  0.00  0.00    +0.000 A 
ATOM      5  C   UNL     1       2.013   3.190  17.916  0.00  0.00    +0.000 A 
ATOM      6  C   UNL     1       2.432   4.503  18.194  0.00  0.00    +0.000 A 
ENDROOT
BRANCH   1   7
ATOM      7  C   UNL     1       2.351   6.507  19.827  0.00  0.00    +0.000 C 
BRANCH   7   8
ATOM      8  N   UNL     1       1.607   7.039  20.978  0.00  0.00    +0.000 NA
ATOM      9  H   UNL     1       0.695   6.579  20.984  0.00  0.00    +0.000 HD
BRANCH   8  10
ATOM     10  C   UNL     1       1.389   8.499  20.968  0.00  0.00    +0.000 C 
BRANCH  10  11
ATOM     11  C   UNL     1       1.368   9.001  19.517  0.00  0.00    +0.000 C 
BRANCH  11  16
ATOM     12  C   UNL     1      -2.358  12.308  20.016  0.00  0.00    +0.000 C 
ATOM     13  C   UNL     1      -1.380  11.343  19.465  0.00  0.00    +0.000 A 
ATOM     14  C   UNL     1      -1.294  10.817  18.154  0.00  0.00    +0.000 A 
ATOM     15  N   UNL     1      -0.289   9.948  18.007  0.00  0.00    +0.000 NA
ATOM     16  N   UNL     1       0.288   9.925  19.227  0.00  0.00    +0.000 N 
ATOM     17  C   UNL     1      -0.336  10.740  20.130  0.00  0.00    +0.000 A 
ENDBRANCH  11  16
ENDBRANCH  10  11
ENDBRANCH   8  10
ENDBRANCH   7   8
ENDBRANCH   1   7
BRANCH   6  18
ATOM     18  O   UNL     1       3.246   5.229  17.344  0.00  0.00    +0.000 OA
BRANCH  18  19
ATOM     19  C   UNL     1       4.565   4.686  17.161  0.00  0.00    +0.000 C 
BRANCH  19  20
ATOM     20  C   UNL     1       5.694   5.550  17.655  0.00  0.00    +0.000 A 
ATOM     21  C   UNL     1       6.524   5.213  18.722  0.00  0.00    +0.000 A 
ATOM     22  C   UNL     1       7.650   5.991  18.986  0.00  0.00    +0.000 A 
ATOM     23  C   UNL     1       7.902   7.090  18.180  0.00  0.00    +0.000 A 
ATOM     24  N   UNL     1       7.100   7.476  17.168  0.00  0.00    +0.000 NA
ATOM     25  C   UNL     1       6.017   6.699  16.933  0.00  0.00    +0.000 A 
ENDBRANCH  19  20
ENDBRANCH  18  19
ENDBRANCH   6  18
TORSDOF 8
ENDMDL
