MODEL 1
REMARK VINA RESULT:      -6.4      0.000      0.000
REMARK  Name = 
REMARK  5 active torsions:
REMARK  status: ('A' for Active; 'I' for Inactive)
REMARK    1  A    between atoms: C_1  and  C_2
REMARK    2  A    between atoms: C_6  and  C_7
REMARK    3  A    between atoms: N_9  and  C_10
REMARK    4  A    between atoms: C_10  and  C_11
REMARK    5  A    between atoms: C_18  and  C_20
REMARK                            x       y       z     vdW  Elec       q    Type
REMARK                         _______ _______ _______ _____ _____    ______ ____
ROOT
ATOM      1  C   UNL     1       2.154   6.689  20.377  0.00  0.00    +0.000 C 
ATOM      2  C   UNL     1       1.472   8.005  20.217  0.00  0.00    +0.000 A 
ATOM      3  S   UNL     1       0.472   8.567  21.477  0.00  0.00    +0.000 S 
ATOM      4  C   UNL     1       0.168  10.018  20.687  0.00  0.00    +0.000 A 
ATOM      5  C   UNL     1       0.755  10.088  19.439  0.00  0.00    +0.000 A 
ATOM      6  C   UNL     1       1.529   8.900  19.154  0.00  0.00    +0.000 A 
ATOM      7  C   UNL     1       2.315   8.655  17.906  0.00  0.00    +0.000 C 
ATOM      8  C   UNL     1       0.581  11.299  18.561  0.00  0.00    +0.000 C 
ATOM      9  N   UNL     1      -0.003  12.447  19.291  0.00  0.00    +0.000 NA
ATOM     10  C   UNL     1      -1.103  11.994  20.160  0.00  0.00    +0.000 C 
ATOM     11  N   UNL     1      -0.613  11.066  21.193  0.00  0.00    +0.000 N 
ATOM     12  C   UNL     1      -0.813  11.213  22.584  0.00  0.00    +0.000 C 
ATOM     13  O   UNL     1      -0.497  10.355  23.414  0.00  0.00    +0.000 OA
ENDROOT
BRANCH  12  14
ATOM     14  C   UNL     1      -1.397  12.441  23.102  0.00  0.00    +0.000 A 
ATOM     15  C   UNL     1      -2.715  12.698  23.445  0.00  0.00    +0.000 A 
ATOM     16  C   UNL     1      -2.764  14.008  23.968  0.00  0.00    +0.000 A 
ATOM     17  C   UNL     1      -1.467  14.465  23.960  0.00  0.00    +0.000 A 
ATOM     18  O   UNL     1      -0.635  13.514  23.468  0.00  0.00    +0.000 OA
ENDBRANCH  12  14
BRANCH   9  19
ATOM     19  C   UNL     1       0.984  13.219  20.066  0.00  0.00    +0.000 C 
BRANCH  19  20
ATOM     20  C   UNL     1       1.858  14.077  19.216  0.00  0.00    +0.000 A 
ATOM     21  C   UNL     1       3.037  13.869  18.531  0.00  0.00    +0.000 A 
ATOM     22  C   UNL     1       3.365  15.103  17.917  0.00  0.00    +0.000 A 
ATOM     23  C   UNL     1       2.361  15.978  18.255  0.00  0.00    +0.000 A 
ATOM     24  O   UNL     1       1.442  15.367  19.041  0.00  0.00    +0.000 OA
ENDBRANCH  19  20
ENDBRANCH   9  19
TORSDOF 3
ENDMDL
MODEL 2
REMARK VINA RESULT:      -6.3      0.992      1.273
REMARK  Name = 
REMARK  5 active torsions:
REMARK  status: ('A' for Active; 'I' for Inactive)
REMARK    1  A    between atoms: C_1  and  C_2
REMARK    2  A    between atoms: C_6  and  C_7
REMARK    3  A    between atoms: N_9  and  C_10
REMARK    4  A    between atoms: C_10  and  C_11
REMARK    5  A    between atoms: C_18  and  C_20
REMARK                            x       y       z     vdW  Elec       q    Type
REMARK                         _______ _______ _______ _____ _____    ______ ____
ROOT
ATOM      1  C   UNL     1       2.132   7.294  20.212  0.00  0.00    +0.000 C 
ATOM      2  C   UNL     1       1.289   8.520  20.121  0.00  0.00    +0.000 A 
ATOM      3  S   UNL     1       0.306   8.938  21.448  0.00  0.00    +0.000 S 
ATOM      4  C   UNL     1      -0.216  10.354  20.709  0.00  0.00    +0.000 A 
ATOM      5  C   UNL     1       0.282  10.512  19.432  0.00  0.00    +0.000 A 
ATOM      6  C   UNL     1       1.175   9.431  19.077  0.00  0.00    +0.000 A 
ATOM      7  C   UNL     1       1.908   9.301  17.780  0.00  0.00    +0.000 C 
ATOM      8  C   UNL     1      -0.088  11.707  18.592  0.00  0.00    +0.000 C 
ATOM      9  N   UNL     1      -0.761  12.764  19.380  0.00  0.00    +0.000 NA
ATOM     10  C   UNL     1      -1.745  12.169  20.300  0.00  0.00    +0.000 C 
ATOM     11  N   UNL     1      -1.086  11.291  21.283  0.00  0.00    +0.000 N 
ATOM     12  C   UNL     1      -1.218  11.392  22.686  0.00  0.00    +0.000 C 
ATOM     13  O   UNL     1      -0.753  10.567  23.477  0.00  0.00    +0.000 OA
ENDROOT
BRANCH  12  14
ATOM     14  C   UNL     1      -1.913  12.533  23.263  0.00  0.00    +0.000 A 
ATOM     15  C   UNL     1      -3.232  12.626  23.680  0.00  0.00    +0.000 A 
ATOM     16  C   UNL     1      -3.405  13.911  24.237  0.00  0.00    +0.000 A 
ATOM     17  C   UNL     1      -2.173  14.518  24.174  0.00  0.00    +0.000 A 
ATOM     18  O   UNL     1      -1.263  13.681  23.617  0.00  0.00    +0.000 OA
ENDBRANCH  12  14
BRANCH   9  19
ATOM     19  C   UNL     1       0.171  13.639  20.113  0.00  0.00    +0.000 C 
BRANCH  19  20
ATOM     20  C   UNL     1       0.442  14.927  19.414  0.00  0.00    +0.000 A 
ATOM     21  C   UNL     1      -0.350  15.970  18.978  0.00  0.00    +0.000 A 
ATOM     22  C   UNL     1       0.523  16.906  18.370  0.00  0.00    +0.000 A 
ATOM     23  C   UNL     1       1.788  16.382  18.486  0.00  0.00    +0.000 A 
ATOM     24  O   UNL     1       1.750  15.183  19.117  0.00  0.00    +0.000 OA
ENDBRANCH  19  20
ENDBRANCH   9  19
TORSDOF 3
ENDMDL
MODEL 3
REMARK VINA RESULT:      -6.2      0.881      1.136
REMARK  Name = 
REMARK  5 active torsions:
REMARK  status: ('A' for Active; 'I' for Inactive)
REMARK    1  A    between atoms: C_1  and  C_2
REMARK    2  A    between atoms: C_6  and  C_7
REMARK    3  A    between atoms: N_9  and  C_10
REMARK    4  A    between atoms: C_10  and  C_11
REMARK    5  A    between atoms: C_18  and  C_20
REMARK                            x       y       z     vdW  Elec       q    Type
REMARK                         _______ _______ _______ _____ _____    ______ ____
ROOT
ATOM      1  C   UNL     1       2.155   6.993  20.200  0.00  0.00    +0.000 C 
ATOM      2  C   UNL     1       1.390   8.271  20.120  0.00  0.00    +0.000 A 
ATOM      3  S   UNL     1       0.375   8.700  21.419  0.00  0.00    +0.000 S 
ATOM      4  C   UNL     1      -0.030  10.170  20.713  0.00  0.00    +0.000 A 
ATOM      5  C   UNL     1       0.533  10.343  19.464  0.00  0.00    +0.000 A 
ATOM      6  C   UNL     1       1.376   9.222  19.107  0.00  0.00    +0.000 A 
ATOM      7  C   UNL     1       2.157   9.094  17.838  0.00  0.00    +0.000 C 
ATOM      8  C   UNL     1       0.272  11.586  18.655  0.00  0.00    +0.000 C 
ATOM      9  N   UNL     1      -0.372  12.653  19.452  0.00  0.00    +0.000 NA
ATOM     10  C   UNL     1      -1.429  12.087  20.308  0.00  0.00    +0.000 C 
ATOM     11  N   UNL     1      -0.867  11.137  21.284  0.00  0.00    +0.000 N 
ATOM     12  C   UNL     1      -1.055  11.197  22.682  0.00  0.00    +0.000 C 
ATOM     13  O   UNL     1      -0.675  10.318  23.461  0.00  0.00    +0.000 OA
ENDROOT
BRANCH  12  14
ATOM     14  C   UNL     1      -1.707  12.357  23.273  0.00  0.00    +0.000 A 
ATOM     15  C   UNL     1      -1.203  13.635  23.460  0.00  0.00    +0.000 A 
ATOM     16  C   UNL     1      -2.243  14.420  23.999  0.00  0.00    +0.000 A 
ATOM     17  C   UNL     1      -3.341  13.594  24.070  0.00  0.00    +0.000 A 
ATOM     18  O   UNL     1      -3.032  12.359  23.604  0.00  0.00    +0.000 OA
ENDBRANCH  12  14
BRANCH   9  19
ATOM     19  C   UNL     1       0.577  13.444  20.257  0.00  0.00    +0.000 C 
BRANCH  19  20
ATOM     20  C   UNL     1       1.613  14.133  19.436  0.00  0.00    +0.000 A 
ATOM     21  C   UNL     1       1.598  15.215  18.580  0.00  0.00    +0.000 A 
ATOM     22  C   UNL     1       2.923  15.361  18.099  0.00  0.00    +0.000 A 
ATOM     23  C   UNL     1       3.661  14.370  18.702  0.00  0.00    +0.000 A 
ATOM     24  O   UNL     1       2.876  13.621  19.514  0.00  0.00    +0.000 OA
ENDBRANCH  19  20
ENDBRANCH   9  19
TORSDOF 3
ENDMDL
MODEL 4
REMARK VINA RESULT:      -6.1      1.277      1.613
REMARK  Name = 
REMARK  5 active torsions:
REMARK  status: ('A' for Active; 'I' for Inactive)
REMARK    1  A    between atoms: C_1  and  C_2
REMARK    2  A    between atoms: C_6  and  C_7
REMARK    3  A    between atoms: N_9  and  C_10
REMARK    4  A    between atoms: C_10  and  C_11
REMARK    5  A    between atoms: C_18  and  C_20
REMARK                            x       y       z     vdW  Elec       q    Type
REMARK                         _______ _______ _______ _____ _____    ______ ____
ROOT
ATOM      1  C   UNL     1       3.094   5.654  19.985  0.00  0.00    +0.000 C 
ATOM      2  C   UNL     1       2.370   6.937  19.745  0.00  0.00    +0.000 A 
ATOM      3  S   UNL     1       1.344   7.538  20.965  0.00  0.00    +0.000 S 
ATOM      4  C   UNL     1       0.998   8.930  20.091  0.00  0.00    +0.000 A 
ATOM      5  C   UNL     1       1.591   8.945  18.843  0.00  0.00    +0.000 A 
ATOM      6  C   UNL     1       2.405   7.769  18.632  0.00  0.00    +0.000 A 
ATOM      7  C   UNL     1       3.206   7.477  17.404  0.00  0.00    +0.000 C 
ATOM      8  C   UNL     1       1.383  10.097  17.896  0.00  0.00    +0.000 C 
ATOM      9  N   UNL     1       0.757  11.265  18.554  0.00  0.00    +0.000 NA
ATOM     10  C   UNL     1      -0.333  10.828  19.443  0.00  0.00    +0.000 C 
ATOM     11  N   UNL     1       0.181   9.979  20.531  0.00  0.00    +0.000 N 
ATOM     12  C   UNL     1      -0.033  10.200  21.910  0.00  0.00    +0.000 C 
ATOM     13  O   UNL     1       0.305   9.403  22.790  0.00  0.00    +0.000 OA
ENDROOT
BRANCH  12  14
ATOM     14  C   UNL     1      -0.660  11.437  22.353  0.00  0.00    +0.000 A 
ATOM     15  C   UNL     1      -1.844  11.608  23.054  0.00  0.00    +0.000 A 
ATOM     16  C   UNL     1      -1.982  12.988  23.310  0.00  0.00    +0.000 A 
ATOM     17  C   UNL     1      -0.855  13.582  22.794  0.00  0.00    +0.000 A 
ATOM     18  O   UNL     1      -0.039  12.649  22.244  0.00  0.00    +0.000 OA
ENDBRANCH  12  14
BRANCH   9  19
ATOM     19  C   UNL     1       1.714  12.114  19.287  0.00  0.00    +0.000 C 
BRANCH  19  20
ATOM     20  C   UNL     1       1.459  13.573  19.113  0.00  0.00    +0.000 A 
ATOM     21  C   UNL     1       0.329  14.363  19.153  0.00  0.00    +0.000 A 
ATOM     22  C   UNL     1       0.759  15.687  18.894  0.00  0.00    +0.000 A 
ATOM     23  C   UNL     1       2.122  15.622  18.727  0.00  0.00    +0.000 A 
ATOM     24  O   UNL     1       2.556  14.345  18.859  0.00  0.00    +0.000 OA
ENDBRANCH  19  20
ENDBRANCH   9  19
TORSDOF 3
ENDMDL
MODEL 5
REMARK VINA RESULT:      -6.1      1.392      1.597
REMARK  Name = 
REMARK  5 active torsions:
REMARK  status: ('A' for Active; 'I' for Inactive)
REMARK    1  A    between atoms: C_1  and  C_2
REMARK    2  A    between atoms: C_6  and  C_7
REMARK    3  A    between atoms: N_9  and  C_10
REMARK    4  A    between atoms: C_10  and  C_11
REMARK    5  A    between atoms: C_18  and  C_20
REMARK                            x       y       z     vdW  Elec       q    Type
REMARK                         _______ _______ _______ _____ _____    ______ ____
ROOT
ATOM      1  C   UNL     1       2.174   6.927  20.242  0.00  0.00    +0.000 C 
ATOM      2  C   UNL     1       1.391   8.192  20.132  0.00  0.00    +0.000 A 
ATOM      3  S   UNL     1       0.404   8.660  21.439  0.00  0.00    +0.000 S 
ATOM      4  C   UNL     1      -0.037  10.095  20.687  0.00  0.00    +0.000 A 
ATOM      5  C   UNL     1       0.493  10.226  19.418  0.00  0.00    +0.000 A 
ATOM      6  C   UNL     1       1.340   9.103  19.083  0.00  0.00    +0.000 A 
ATOM      7  C   UNL     1       2.091   8.935  17.802  0.00  0.00    +0.000 C 
ATOM      8  C   UNL     1       0.196  11.434  18.569  0.00  0.00    +0.000 C 
ATOM      9  N   UNL     1      -0.442  12.524  19.341  0.00  0.00    +0.000 NA
ATOM     10  C   UNL     1      -1.470  11.979  20.243  0.00  0.00    +0.000 C 
ATOM     11  N   UNL     1      -0.872  11.075  21.241  0.00  0.00    +0.000 N 
ATOM     12  C   UNL     1      -1.026  11.186  22.641  0.00  0.00    +0.000 C 
ATOM     13  O   UNL     1      -0.615  10.343  23.443  0.00  0.00    +0.000 OA
ENDROOT
BRANCH  12  14
ATOM     14  C   UNL     1      -1.678  12.361  23.202  0.00  0.00    +0.000 A 
ATOM     15  C   UNL     1      -1.182  13.648  23.336  0.00  0.00    +0.000 A 
ATOM     16  C   UNL     1      -2.219  14.444  23.866  0.00  0.00    +0.000 A 
ATOM     17  C   UNL     1      -3.309  13.612  23.984  0.00  0.00    +0.000 A 
ATOM     18  O   UNL     1      -2.997  12.364  23.556  0.00  0.00    +0.000 OA
ENDBRANCH  12  14
BRANCH   9  19
ATOM     19  C   UNL     1       0.516  13.357  20.090  0.00  0.00    +0.000 C 
BRANCH  19  20
ATOM     20  C   UNL     1       0.348  14.817  19.840  0.00  0.00    +0.000 A 
ATOM     21  C   UNL     1       0.684  15.957  20.540  0.00  0.00    +0.000 A 
ATOM     22  C   UNL     1       0.234  17.051  19.760  0.00  0.00    +0.000 A 
ATOM     23  C   UNL     1      -0.334  16.509  18.631  0.00  0.00    +0.000 A 
ATOM     24  O   UNL     1      -0.270  15.156  18.670  0.00  0.00    +0.000 OA
ENDBRANCH  19  20
ENDBRANCH   9  19
TORSDOF 3
ENDMDL
MODEL 6
REMARK VINA RESULT:      -6.1      2.859      6.176
REMARK  Name = 
REMARK  5 active torsions:
REMARK  status: ('A' for Active; 'I' for Inactive)
REMARK    1  A    between atoms: C_1  and  C_2
REMARK    2  A    between atoms: C_6  and  C_7
REMARK    3  A    between atoms: N_9  and  C_10
REMARK    4  A    between atoms: C_10  and  C_11
REMARK    5  A    between atoms: C_18  and  C_20
REMARK                            x       y       z     vdW  Elec       q    Type
REMARK                         _______ _______ _______ _____ _____    ______ ____
ROOT
ATOM      1  C   UNL     1      -3.211  12.584  23.864  0.00  0.00    +0.000 C 
ATOM      2  C   UNL     1      -2.363  12.264  22.678  0.00  0.00    +0.000 A 
ATOM      3  S   UNL     1      -1.154  11.074  22.835  0.00  0.00    +0.000 S 
ATOM      4  C   UNL     1      -0.730  11.188  21.214  0.00  0.00    +0.000 A 
ATOM      5  C   UNL     1      -1.438  12.161  20.536  0.00  0.00    +0.000 A 
ATOM      6  C   UNL     1      -2.408  12.802  21.397  0.00  0.00    +0.000 A 
ATOM      7  C   UNL     1      -3.358  13.878  20.983  0.00  0.00    +0.000 C 
ATOM      8  C   UNL     1      -1.188  12.435  19.077  0.00  0.00    +0.000 C 
ATOM      9  N   UNL     1      -0.360  11.387  18.439  0.00  0.00    +0.000 NA
ATOM     10  C   UNL     1       0.753  11.004  19.325  0.00  0.00    +0.000 C 
ATOM     11  N   UNL     1       0.251  10.414  20.579  0.00  0.00    +0.000 N 
ATOM     12  C   UNL     1       0.627   9.156  21.098  0.00  0.00    +0.000 C 
ATOM     13  O   UNL     1       0.285   8.745  22.210  0.00  0.00    +0.000 OA
ENDROOT
BRANCH  12  14
ATOM     14  C   UNL     1       1.443   8.259  20.291  0.00  0.00    +0.000 A 
ATOM     15  C   UNL     1       1.835   6.958  20.566  0.00  0.00    +0.000 A 
ATOM     16  C   UNL     1       2.550   6.490  19.444  0.00  0.00    +0.000 A 
ATOM     17  C   UNL     1       2.519   7.513  18.524  0.00  0.00    +0.000 A 
ATOM     18  O   UNL     1       1.826   8.569  19.017  0.00  0.00    +0.000 OA
ENDBRANCH  12  14
BRANCH   9  19
ATOM     19  C   UNL     1      -1.126  10.198  18.026  0.00  0.00    +0.000 C 
BRANCH  19  20
ATOM     20  C   UNL     1      -2.392  10.532  17.313  0.00  0.00    +0.000 A 
ATOM     21  C   UNL     1      -3.676  10.827  17.721  0.00  0.00    +0.000 A 
ATOM     22  C   UNL     1      -4.430  11.044  16.540  0.00  0.00    +0.000 A 
ATOM     23  C   UNL     1      -3.555  10.882  15.492  0.00  0.00    +0.000 A 
ATOM     24  O   UNL     1      -2.318  10.572  15.950  0.00  0.00    +0.000 OA
ENDBRANCH  19  20
ENDBRANCH   9  19
TORSDOF 3
ENDMDL
MODEL 7
REMARK VINA RESULT:      -5.9      2.944      6.239
REMARK  Name = 
REMARK  5 active torsions:
REMARK  status: ('A' for Active; 'I' for Inactive)
REMARK    1  A    between atoms: C_1  and  C_2
REMARK    2  A    between atoms: C_6  and  C_7
REMARK    3  A    between atoms: N_9  and  C_10
REMARK    4  A    between atoms: C_10  and  C_11
REMARK    5  A    between atoms: C_18  and  C_20
REMARK                            x       y       z     vdW  Elec       q    Type
REMARK                         _______ _______ _______ _____ _____    ______ ____
ROOT
ATOM      1  C   UNL     1      -3.081  12.597  23.852  0.00  0.00    +0.000 C 
ATOM      2  C   UNL     1      -2.311  12.274  22.616  0.00  0.00    +0.000 A 
ATOM      3  S   UNL     1      -1.065  11.115  22.707  0.00  0.00    +0.000 S 
ATOM      4  C   UNL     1      -0.759  11.207  21.058  0.00  0.00    +0.000 A 
ATOM      5  C   UNL     1      -1.537  12.150  20.415  0.00  0.00    +0.000 A 
ATOM      6  C   UNL     1      -2.459  12.785  21.332  0.00  0.00    +0.000 A 
ATOM      7  C   UNL     1      -3.462  13.832  20.966  0.00  0.00    +0.000 C 
ATOM      8  C   UNL     1      -1.396  12.401  18.937  0.00  0.00    +0.000 C 
ATOM      9  N   UNL     1      -0.590  11.360  18.261  0.00  0.00    +0.000 NA
ATOM     10  C   UNL     1       0.591  11.019  19.073  0.00  0.00    +0.000 C 
ATOM     11  N   UNL     1       0.193  10.443  20.370  0.00  0.00    +0.000 N 
ATOM     12  C   UNL     1       0.635   9.204  20.883  0.00  0.00    +0.000 C 
ATOM     13  O   UNL     1       0.381   8.807  22.024  0.00  0.00    +0.000 OA
ENDROOT
BRANCH  12  14
ATOM     14  C   UNL     1       1.414   8.311  20.037  0.00  0.00    +0.000 A 
ATOM     15  C   UNL     1       1.920   8.540  18.767  0.00  0.00    +0.000 A 
ATOM     16  C   UNL     1       2.667   7.400  18.402  0.00  0.00    +0.000 A 
ATOM     17  C   UNL     1       2.617   6.554  19.486  0.00  0.00    +0.000 A 
ATOM     18  O   UNL     1       1.889   7.112  20.486  0.00  0.00    +0.000 OA
ENDBRANCH  12  14
BRANCH   9  19
ATOM     19  C   UNL     1      -1.355  10.146  17.925  0.00  0.00    +0.000 C 
BRANCH  19  20
ATOM     20  C   UNL     1      -2.430  10.387  16.921  0.00  0.00    +0.000 A 
ATOM     21  C   UNL     1      -2.570  10.110  15.577  0.00  0.00    +0.000 A 
ATOM     22  C   UNL     1      -3.838  10.613  15.196  0.00  0.00    +0.000 A 
ATOM     23  C   UNL     1      -4.395  11.151  16.332  0.00  0.00    +0.000 A 
ATOM     24  O   UNL     1      -3.549  11.019  17.383  0.00  0.00    +0.000 OA
ENDBRANCH  19  20
ENDBRANCH   9  19
TORSDOF 3
ENDMDL
MODEL 8
REMARK VINA RESULT:      -5.8      0.977      1.182
REMARK  Name = 
REMARK  5 active torsions:
REMARK  status: ('A' for Active; 'I' for Inactive)
REMARK    1  A    between atoms: C_1  and  C_2
REMARK    2  A    between atoms: C_6  and  C_7
REMARK    3  A    between atoms: N_9  and  C_10
REMARK    4  A    between atoms: C_10  and  C_11
REMARK    5  A    between atoms: C_18  and  C_20
REMARK                            x       y       z     vdW  Elec       q    Type
REMARK                         _______ _______ _______ _____ _____    ______ ____
ROOT
ATOM      1  C   UNL     1       1.505   7.428  20.387  0.00  0.00    +0.000 C 
ATOM      2  C   UNL     1       0.940   8.802  20.250  0.00  0.00    +0.000 A 
ATOM      3  S   UNL     1       0.037   9.448  21.542  0.00  0.00    +0.000 S 
ATOM      4  C   UNL     1      -0.160  10.923  20.763  0.00  0.00    +0.000 A 
ATOM      5  C   UNL     1       0.389  10.943  19.496  0.00  0.00    +0.000 A 
ATOM      6  C   UNL     1       1.043   9.691  19.186  0.00  0.00    +0.000 A 
ATOM      7  C   UNL     1       1.761   9.379  17.912  0.00  0.00    +0.000 C 
ATOM      8  C   UNL     1       0.297  12.168  18.625  0.00  0.00    +0.000 C 
ATOM      9  N   UNL     1      -0.157  13.361  19.374  0.00  0.00    +0.000 NA
ATOM     10  C   UNL     1      -1.264  13.007  20.279  0.00  0.00    +0.000 C 
ATOM     11  N   UNL     1      -0.825  12.035  21.295  0.00  0.00    +0.000 N 
ATOM     12  C   UNL     1      -0.965  12.195  22.692  0.00  0.00    +0.000 C 
ATOM     13  O   UNL     1      -0.701  11.310  23.511  0.00  0.00    +0.000 OA
ENDROOT
BRANCH  12  14
ATOM     14  C   UNL     1      -1.418  13.470  23.229  0.00  0.00    +0.000 A 
ATOM     15  C   UNL     1      -2.675  13.817  23.699  0.00  0.00    +0.000 A 
ATOM     16  C   UNL     1      -2.591  15.139  24.183  0.00  0.00    +0.000 A 
ATOM     17  C   UNL     1      -1.278  15.515  24.026  0.00  0.00    +0.000 A 
ATOM     18  O   UNL     1      -0.559  14.502  23.481  0.00  0.00    +0.000 OA
ENDBRANCH  12  14
BRANCH   9  19
ATOM     19  C   UNL     1       0.922  14.039  20.116  0.00  0.00    +0.000 C 
BRANCH  19  20
ATOM     20  C   UNL     1       2.003  14.563  19.233  0.00  0.00    +0.000 A 
ATOM     21  C   UNL     1       2.127  15.670  18.419  0.00  0.00    +0.000 A 
ATOM     22  C   UNL     1       3.415  15.591  17.832  0.00  0.00    +0.000 A 
ATOM     23  C   UNL     1       3.996  14.451  18.336  0.00  0.00    +0.000 A 
ATOM     24  O   UNL     1       3.149  13.822  19.186  0.00  0.00    +0.000 OA
ENDBRANCH  19  20
ENDBRANCH   9  19
TORSDOF 3
ENDMDL
MODEL 9
REMARK VINA RESULT:      -5.6      1.385      1.756
REMARK  Name = 
REMARK  5 active torsions:
REMARK  status: ('A' for Active; 'I' for Inactive)
REMARK    1  A    between atoms: C_1  and  C_2
REMARK    2  A    between atoms: C_6  and  C_7
REMARK    3  A    between atoms: N_9  and  C_10
REMARK    4  A    between atoms: C_10  and  C_11
REMARK    5  A    between atoms: C_18  and  C_20
REMARK                            x       y       z     vdW  Elec       q    Type
REMARK                         _______ _______ _______ _____ _____    ______ ____
ROOT
ATOM      1  C   UNL     1       3.263   5.785  19.889  0.00  0.00    +0.000 C 
ATOM      2  C   UNL     1       2.448   7.022  19.708  0.00  0.00    +0.000 A 
ATOM      3  S   UNL     1       1.421   7.517  20.974  0.00  0.00    +0.000 S 
ATOM      4  C   UNL     1       0.957   8.907  20.151  0.00  0.00    +0.000 A 
ATOM      5  C   UNL     1       1.510   8.998  18.889  0.00  0.00    +0.000 A 
ATOM      6  C   UNL     1       2.395   7.885  18.620  0.00  0.00    +0.000 A 
ATOM      7  C   UNL     1       3.177   7.684  17.363  0.00  0.00    +0.000 C 
ATOM      8  C   UNL     1       1.199  10.160  17.983  0.00  0.00    +0.000 C 
ATOM      9  N   UNL     1       0.516  11.263  18.694  0.00  0.00    +0.000 NA
ATOM     10  C   UNL     1      -0.516  10.729  19.599  0.00  0.00    +0.000 C 
ATOM     11  N   UNL     1       0.085   9.885  20.646  0.00  0.00    +0.000 N 
ATOM     12  C   UNL     1      -0.102  10.052  22.036  0.00  0.00    +0.000 C 
ATOM     13  O   UNL     1       0.314   9.255  22.882  0.00  0.00    +0.000 OA
ENDROOT
BRANCH  12  14
ATOM     14  C   UNL     1      -0.798  11.230  22.533  0.00  0.00    +0.000 A 
ATOM     15  C   UNL     1      -0.524  12.567  22.288  0.00  0.00    +0.000 A 
ATOM     16  C   UNL     1      -1.526  13.324  22.932  0.00  0.00    +0.000 A 
ATOM     17  C   UNL     1      -2.385  12.409  23.496  0.00  0.00    +0.000 A 
ATOM     18  O   UNL     1      -1.968  11.146  23.232  0.00  0.00    +0.000 OA
ENDBRANCH  12  14
BRANCH   9  19
ATOM     19  C   UNL     1       1.435  12.154  19.426  0.00  0.00    +0.000 C 
BRANCH  19  20
ATOM     20  C   UNL     1       1.181  13.600  19.169  0.00  0.00    +0.000 A 
ATOM     21  C   UNL     1       1.991  14.689  18.922  0.00  0.00    +0.000 A 
ATOM     22  C   UNL     1       1.128  15.803  18.772  0.00  0.00    +0.000 A 
ATOM     23  C   UNL     1      -0.151  15.320  18.925  0.00  0.00    +0.000 A 
ATOM     24  O   UNL     1      -0.129  13.986  19.165  0.00  0.00    +0.000 OA
ENDBRANCH  19  20
ENDBRANCH   9  19
TORSDOF 3
ENDMDL
