MODEL 1
REMARK VINA RESULT:      -7.3      0.000      0.000
REMARK  Name = 
REMARK  5 active torsions:
REMARK  status: ('A' for Active; 'I' for Inactive)
REMARK    1  A    between atoms: C_2  and  C_3
REMARK    2  A    between atoms: C_3  and  C_12
REMARK    3  A    between atoms: C_4  and  C_5
REMARK    4  A    between atoms: C_12  and  N_13
REMARK    5  A    between atoms: N_16  and  C_17
REMARK                            x       y       z     vdW  Elec       q    Type
REMARK                         _______ _______ _______ _____ _____    ______ ____
ROOT
ATOM      1  N   UNL     1       3.719   7.172  17.652  0.00  0.00    +0.000 N 
ATOM      2  C   UNL     1       2.663   7.726  18.358  0.00  0.00    +0.000 C 
ATOM      3  O   UNL     1       2.335   7.296  19.459  0.00  0.00    +0.000 OA
ATOM      4  N   UNL     1       2.091   8.787  17.684  0.00  0.00    +0.000 N 
ATOM      5  H   UNL     1       3.685   7.276  16.647  0.00  0.00    +0.000 HD
ATOM      6  H   UNL     1       2.474   9.005  16.776  0.00  0.00    +0.000 HD
ENDROOT
BRANCH   4   7
ATOM      7  C   UNL     1       1.000   9.581  18.113  0.00  0.00    +0.000 A 
ATOM      8  C   UNL     1      -0.302   9.437  17.621  0.00  0.00    +0.000 A 
ATOM      9  C   UNL     1      -1.324  10.301  18.030  0.00  0.00    +0.000 A 
ATOM     10  C   UNL     1      -1.058  11.308  18.948  0.00  0.00    +0.000 A 
ATOM     11 CL   UNL     1      -2.300  12.407  19.400  0.00  0.00    +0.000 Cl
ATOM     12  C   UNL     1       0.220  11.434  19.490  0.00  0.00    +0.000 A 
ATOM     13  C   UNL     1       1.242  10.574  19.075  0.00  0.00    +0.000 A 
ENDBRANCH   4   7
BRANCH   1  14
ATOM     14  C   UNL     1       4.394   5.993  18.180  0.00  0.00    +0.000 C 
BRANCH  14  15
ATOM     15  C   UNL     1       4.258   4.785  17.276  0.00  0.00    +0.000 C 
ATOM     16  C   UNL     1       3.547   3.684  17.614  0.00  0.00    +0.000 C 
BRANCH  16  17
ATOM     17  C   UNL     1       2.797   3.520  18.871  0.00  0.00    +0.000 A 
ATOM     18  C   UNL     1       1.496   4.036  18.950  0.00  0.00    +0.000 A 
ATOM     19  C   UNL     1       0.716   3.824  20.091  0.00  0.00    +0.000 A 
ATOM     20  C   UNL     1       1.227   3.099  21.166  0.00  0.00    +0.000 A 
ATOM     21  C   UNL     1       2.538   2.626  21.121  0.00  0.00    +0.000 A 
ATOM     22  C   UNL     1       3.325   2.845  19.986  0.00  0.00    +0.000 A 
ATOM     23 CL   UNL     1       4.957   2.273  20.010  0.00  0.00    +0.000 Cl
ENDBRANCH  16  17
BRANCH  15  25
ATOM     24  N   UNL     1       5.452   4.765  14.979  0.00  0.00    +0.000 NA
ATOM     25  C   UNL     1       4.902   4.785  16.001  0.00  0.00    +0.000 C 
ENDBRANCH  15  25
ENDBRANCH  14  15
ENDBRANCH   1  14
TORSDOF 5
ENDMDL
MODEL 2
REMARK VINA RESULT:      -7.3      5.394      6.506
REMARK  Name = 
REMARK  5 active torsions:
REMARK  status: ('A' for Active; 'I' for Inactive)
REMARK    1  A    between atoms: C_2  and  C_3
REMARK    2  A    between atoms: C_3  and  C_12
REMARK    3  A    between atoms: C_4  and  C_5
REMARK    4  A    between atoms: C_12  and  N_13
REMARK    5  A    between atoms: N_16  and  C_17
REMARK                            x       y       z     vdW  Elec       q    Type
REMARK                         _______ _______ _______ _____ _____    ______ ____
ROOT
ATOM      1  N   UNL     1       7.170   7.335  17.116  0.00  0.00    +0.000 N 
ATOM      2  C   UNL     1       7.981   8.036  17.994  0.00  0.00    +0.000 C 
ATOM      3  O   UNL     1       8.589   7.467  18.895  0.00  0.00    +0.000 OA
ATOM      4  N   UNL     1       8.020   9.384  17.698  0.00  0.00    +0.000 N 
ATOM      5  H   UNL     1       6.419   7.861  16.688  0.00  0.00    +0.000 HD
ATOM      6  H   UNL     1       7.447   9.694  16.927  0.00  0.00    +0.000 HD
ENDROOT
BRANCH   4   7
ATOM      7  C   UNL     1       8.748  10.388  18.383  0.00  0.00    +0.000 A 
ATOM      8  C   UNL     1       9.343  10.194  19.634  0.00  0.00    +0.000 A 
ATOM      9  C   UNL     1       9.987  11.246  20.293  0.00  0.00    +0.000 A 
ATOM     10  C   UNL     1      10.056  12.499  19.701  0.00  0.00    +0.000 A 
ATOM     11 CL   UNL     1      10.791  13.807  20.542  0.00  0.00    +0.000 Cl
ATOM     12  C   UNL     1       9.515  12.700  18.432  0.00  0.00    +0.000 A 
ATOM     13  C   UNL     1       8.866  11.648  17.777  0.00  0.00    +0.000 A 
ENDBRANCH   4   7
BRANCH   1  14
ATOM     14  C   UNL     1       6.953   5.909  17.324  0.00  0.00    +0.000 C 
BRANCH  14  15
ATOM     15  C   UNL     1       6.144   5.270  16.214  0.00  0.00    +0.000 C 
ATOM     16  C   UNL     1       4.901   4.767  16.399  0.00  0.00    +0.000 C 
BRANCH  16  17
ATOM     17  C   UNL     1       4.163   4.795  17.674  0.00  0.00    +0.000 A 
ATOM     18  C   UNL     1       4.049   3.609  18.412  0.00  0.00    +0.000 A 
ATOM     19  C   UNL     1       3.437   3.610  19.669  0.00  0.00    +0.000 A 
ATOM     20  C   UNL     1       2.929   4.794  20.201  0.00  0.00    +0.000 A 
ATOM     21  C   UNL     1       2.990   5.971  19.454  0.00  0.00    +0.000 A 
ATOM     22  C   UNL     1       3.592   5.971  18.192  0.00  0.00    +0.000 A 
ATOM     23 CL   UNL     1       3.595   7.450  17.297  0.00  0.00    +0.000 Cl
ENDBRANCH  16  17
BRANCH  15  25
ATOM     24  N   UNL     1       7.183   5.115  13.848  0.00  0.00    +0.000 NA
ATOM     25  C   UNL     1       6.699   5.182  14.901  0.00  0.00    +0.000 C 
ENDBRANCH  15  25
ENDBRANCH  14  15
ENDBRANCH   1  14
TORSDOF 5
ENDMDL
MODEL 3
REMARK VINA RESULT:      -7.3      1.604      1.699
REMARK  Name = 
REMARK  5 active torsions:
REMARK  status: ('A' for Active; 'I' for Inactive)
REMARK    1  A    between atoms: C_2  and  C_3
REMARK    2  A    between atoms: C_3  and  C_12
REMARK    3  A    between atoms: C_4  and  C_5
REMARK    4  A    between atoms: C_12  and  N_13
REMARK    5  A    between atoms: N_16  and  C_17
REMARK                            x       y       z     vdW  Elec       q    Type
REMARK                         _______ _______ _______ _____ _____    ______ ____
ROOT
ATOM      1  N   UNL     1       4.049   6.567  17.495  0.00  0.00    +0.000 N 
ATOM      2  C   UNL     1       2.786   6.944  17.924  0.00  0.00    +0.000 C 
ATOM      3  O   UNL     1       1.887   6.122  18.063  0.00  0.00    +0.000 OA
ATOM      4  N   UNL     1       2.711   8.299  18.181  0.00  0.00    +0.000 N 
ATOM      5  H   UNL     1       4.592   7.282  17.028  0.00  0.00    +0.000 HD
ATOM      6  H   UNL     1       3.544   8.840  18.001  0.00  0.00    +0.000 HD
ENDROOT
BRANCH   4   7
ATOM      7  C   UNL     1       1.580   9.020  18.636  0.00  0.00    +0.000 A 
ATOM      8  C   UNL     1       0.733   9.744  17.790  0.00  0.00    +0.000 A 
ATOM      9  C   UNL     1      -0.327  10.496  18.308  0.00  0.00    +0.000 A 
ATOM     10  C   UNL     1      -0.561  10.518  19.676  0.00  0.00    +0.000 A 
ATOM     11 CL   UNL     1      -1.824  11.494  20.315  0.00  0.00    +0.000 Cl
ATOM     12  C   UNL     1       0.239   9.761  20.531  0.00  0.00    +0.000 A 
ATOM     13  C   UNL     1       1.302   9.015  20.011  0.00  0.00    +0.000 A 
ENDBRANCH   4   7
BRANCH   1  14
ATOM     14  C   UNL     1       4.290   5.184  17.105  0.00  0.00    +0.000 C 
BRANCH  14  15
ATOM     15  C   UNL     1       5.326   4.501  17.974  0.00  0.00    +0.000 C 
ATOM     16  C   UNL     1       5.012   3.798  19.087  0.00  0.00    +0.000 C 
BRANCH  16  17
ATOM     17  C   UNL     1       3.643   3.578  19.584  0.00  0.00    +0.000 A 
ATOM     18  C   UNL     1       3.135   4.444  20.563  0.00  0.00    +0.000 A 
ATOM     19  C   UNL     1       1.811   4.328  20.996  0.00  0.00    +0.000 A 
ATOM     20  C   UNL     1       0.982   3.343  20.461  0.00  0.00    +0.000 A 
ATOM     21  C   UNL     1       1.490   2.443  19.526  0.00  0.00    +0.000 A 
ATOM     22  C   UNL     1       2.818   2.549  19.098  0.00  0.00    +0.000 A 
ATOM     23 CL   UNL     1       3.401   1.375  17.971  0.00  0.00    +0.000 Cl
ENDBRANCH  16  17
BRANCH  15  25
ATOM     24  N   UNL     1       7.839   4.658  17.370  0.00  0.00    +0.000 NA
ATOM     25  C   UNL     1       6.708   4.591  17.622  0.00  0.00    +0.000 C 
ENDBRANCH  15  25
ENDBRANCH  14  15
ENDBRANCH   1  14
TORSDOF 5
ENDMDL
MODEL 4
REMARK VINA RESULT:      -7.2      5.000      6.202
REMARK  Name = 
REMARK  5 active torsions:
REMARK  status: ('A' for Active; 'I' for Inactive)
REMARK    1  A    between atoms: C_2  and  C_3
REMARK    2  A    between atoms: C_3  and  C_12
REMARK    3  A    between atoms: C_4  and  C_5
REMARK    4  A    between atoms: C_12  and  N_13
REMARK    5  A    between atoms: N_16  and  C_17
REMARK                            x       y       z     vdW  Elec       q    Type
REMARK                         _______ _______ _______ _____ _____    ______ ____
ROOT
ATOM      1  N   UNL     1       6.979   6.960  16.937  0.00  0.00    +0.000 N 
ATOM      2  C   UNL     1       7.765   7.692  17.813  0.00  0.00    +0.000 C 
ATOM      3  O   UNL     1       8.355   7.154  18.743  0.00  0.00    +0.000 OA
ATOM      4  N   UNL     1       7.800   9.031  17.479  0.00  0.00    +0.000 N 
ATOM      5  H   UNL     1       6.235   7.467  16.477  0.00  0.00    +0.000 HD
ATOM      6  H   UNL     1       7.243   9.314  16.686  0.00  0.00    +0.000 HD
ENDROOT
BRANCH   4   7
ATOM      7  C   UNL     1       8.504  10.060  18.152  0.00  0.00    +0.000 A 
ATOM      8  C   UNL     1       9.238   9.855  19.326  0.00  0.00    +0.000 A 
ATOM      9  C   UNL     1       9.852  10.925  19.984  0.00  0.00    +0.000 A 
ATOM     10  C   UNL     1       9.753  12.210  19.467  0.00  0.00    +0.000 A 
ATOM     11 CL   UNL     1      10.454  13.532  20.313  0.00  0.00    +0.000 Cl
ATOM     12  C   UNL     1       9.071  12.427  18.270  0.00  0.00    +0.000 A 
ATOM     13  C   UNL     1       8.452  11.356  17.617  0.00  0.00    +0.000 A 
ENDBRANCH   4   7
BRANCH   1  14
ATOM     14  C   UNL     1       6.767   5.539  17.180  0.00  0.00    +0.000 C 
BRANCH  14  15
ATOM     15  C   UNL     1       5.766   4.922  16.226  0.00  0.00    +0.000 C 
ATOM     16  C   UNL     1       4.442   4.834  16.497  0.00  0.00    +0.000 C 
BRANCH  16  17
ATOM     17  C   UNL     1       3.799   5.341  17.721  0.00  0.00    +0.000 A 
ATOM     18  C   UNL     1       3.303   6.652  17.725  0.00  0.00    +0.000 A 
ATOM     19  C   UNL     1       2.604   7.144  18.833  0.00  0.00    +0.000 A 
ATOM     20  C   UNL     1       2.398   6.333  19.948  0.00  0.00    +0.000 A 
ATOM     21  C   UNL     1       2.932   5.045  19.977  0.00  0.00    +0.000 A 
ATOM     22  C   UNL     1       3.641   4.554  18.875  0.00  0.00    +0.000 A 
ATOM     23 CL   UNL     1       4.316   2.967  18.990  0.00  0.00    +0.000 Cl
ENDBRANCH  16  17
BRANCH  15  25
ATOM     24  N   UNL     1       6.550   3.962  13.953  0.00  0.00    +0.000 NA
ATOM     25  C   UNL     1       6.216   4.401  14.974  0.00  0.00    +0.000 C 
ENDBRANCH  15  25
ENDBRANCH  14  15
ENDBRANCH   1  14
TORSDOF 5
ENDMDL
MODEL 5
REMARK VINA RESULT:      -7.2      5.607      6.861
REMARK  Name = 
REMARK  5 active torsions:
REMARK  status: ('A' for Active; 'I' for Inactive)
REMARK    1  A    between atoms: C_2  and  C_3
REMARK    2  A    between atoms: C_3  and  C_12
REMARK    3  A    between atoms: C_4  and  C_5
REMARK    4  A    between atoms: C_12  and  N_13
REMARK    5  A    between atoms: N_16  and  C_17
REMARK                            x       y       z     vdW  Elec       q    Type
REMARK                         _______ _______ _______ _____ _____    ______ ____
ROOT
ATOM      1  N   UNL     1       7.267   7.760  17.386  0.00  0.00    +0.000 N 
ATOM      2  C   UNL     1       8.209   8.388  18.185  0.00  0.00    +0.000 C 
ATOM      3  O   UNL     1       8.814   7.778  19.060  0.00  0.00    +0.000 OA
ATOM      4  N   UNL     1       8.371   9.717  17.845  0.00  0.00    +0.000 N 
ATOM      5  H   UNL     1       6.549   8.354  16.993  0.00  0.00    +0.000 HD
ATOM      6  H   UNL     1       7.782  10.069  17.105  0.00  0.00    +0.000 HD
ENDROOT
BRANCH   4   7
ATOM      7  C   UNL     1       9.248  10.651  18.448  0.00  0.00    +0.000 A 
ATOM      8  C   UNL     1       9.246  10.942  19.817  0.00  0.00    +0.000 A 
ATOM      9  C   UNL     1      10.088  11.929  20.342  0.00  0.00    +0.000 A 
ATOM     10  C   UNL     1      10.952  12.623  19.507  0.00  0.00    +0.000 A 
ATOM     11 CL   UNL     1      11.938  13.879  20.144  0.00  0.00    +0.000 Cl
ATOM     12  C   UNL     1      11.007  12.311  18.149  0.00  0.00    +0.000 A 
ATOM     13  C   UNL     1      10.160  11.328  17.625  0.00  0.00    +0.000 A 
ENDBRANCH   4   7
BRANCH   1  14
ATOM     14  C   UNL     1       6.914   6.371  17.652  0.00  0.00    +0.000 C 
BRANCH  14  15
ATOM     15  C   UNL     1       6.105   5.746  16.534  0.00  0.00    +0.000 C 
ATOM     16  C   UNL     1       4.773   5.521  16.621  0.00  0.00    +0.000 C 
BRANCH  16  17
ATOM     17  C   UNL     1       3.935   5.871  17.780  0.00  0.00    +0.000 A 
ATOM     18  C   UNL     1       3.275   7.108  17.784  0.00  0.00    +0.000 A 
ATOM     19  C   UNL     1       2.397   7.442  18.821  0.00  0.00    +0.000 A 
ATOM     20  C   UNL     1       2.174   6.548  19.866  0.00  0.00    +0.000 A 
ATOM     21  C   UNL     1       2.864   5.336  19.901  0.00  0.00    +0.000 A 
ATOM     22  C   UNL     1       3.750   5.003  18.871  0.00  0.00    +0.000 A 
ATOM     23 CL   UNL     1       4.609   3.508  18.995  0.00  0.00    +0.000 Cl
ENDBRANCH  16  17
BRANCH  15  25
ATOM     24  N   UNL     1       7.257   5.065  14.318  0.00  0.00    +0.000 NA
ATOM     25  C   UNL     1       6.757   5.368  15.321  0.00  0.00    +0.000 C 
ENDBRANCH  15  25
ENDBRANCH  14  15
ENDBRANCH   1  14
TORSDOF 5
ENDMDL
MODEL 6
REMARK VINA RESULT:      -7.2      2.757      4.369
REMARK  Name = 
REMARK  5 active torsions:
REMARK  status: ('A' for Active; 'I' for Inactive)
REMARK    1  A    between atoms: C_2  and  C_3
REMARK    2  A    between atoms: C_3  and  C_12
REMARK    3  A    between atoms: C_4  and  C_5
REMARK    4  A    between atoms: C_12  and  N_13
REMARK    5  A    between atoms: N_16  and  C_17
REMARK                            x       y       z     vdW  Elec       q    Type
REMARK                         _______ _______ _______ _____ _____    ______ ____
ROOT
ATOM      1  N   UNL     1       2.472   6.392  20.512  0.00  0.00    +0.000 N 
ATOM      2  C   UNL     1       1.857   7.625  20.363  0.00  0.00    +0.000 C 
ATOM      3  O   UNL     1       1.787   8.176  19.270  0.00  0.00    +0.000 OA
ATOM      4  N   UNL     1       1.344   8.094  21.556  0.00  0.00    +0.000 N 
ATOM      5  H   UNL     1       2.848   6.191  21.429  0.00  0.00    +0.000 HD
ATOM      6  H   UNL     1       1.501   7.521  22.372  0.00  0.00    +0.000 HD
ENDROOT
BRANCH   4   7
ATOM      7  C   UNL     1       0.652   9.312  21.768  0.00  0.00    +0.000 A 
ATOM      8  C   UNL     1       0.874  10.469  21.012  0.00  0.00    +0.000 A 
ATOM      9  C   UNL     1       0.211  11.663  21.316  0.00  0.00    +0.000 A 
ATOM     10  C   UNL     1      -0.691  11.709  22.370  0.00  0.00    +0.000 A 
ATOM     11 CL   UNL     1      -1.455  13.193  22.782  0.00  0.00    +0.000 Cl
ATOM     12  C   UNL     1      -0.965  10.554  23.102  0.00  0.00    +0.000 A 
ATOM     13  C   UNL     1      -0.297   9.363  22.800  0.00  0.00    +0.000 A 
ENDBRANCH   4   7
BRANCH   1  14
ATOM     14  C   UNL     1       3.136   5.780  19.368  0.00  0.00    +0.000 C 
BRANCH  14  15
ATOM     15  C   UNL     1       3.498   4.329  19.607  0.00  0.00    +0.000 C 
ATOM     16  C   UNL     1       4.395   3.655  18.850  0.00  0.00    +0.000 C 
BRANCH  16  17
ATOM     17  C   UNL     1       5.153   4.235  17.728  0.00  0.00    +0.000 A 
ATOM     18  C   UNL     1       4.752   3.934  16.419  0.00  0.00    +0.000 A 
ATOM     19  C   UNL     1       5.385   4.535  15.326  0.00  0.00    +0.000 A 
ATOM     20  C   UNL     1       6.426   5.439  15.529  0.00  0.00    +0.000 A 
ATOM     21  C   UNL     1       6.868   5.707  16.824  0.00  0.00    +0.000 A 
ATOM     22  C   UNL     1       6.245   5.100  17.919  0.00  0.00    +0.000 A 
ATOM     23 CL   UNL     1       6.869   5.438  19.496  0.00  0.00    +0.000 Cl
ENDBRANCH  16  17
BRANCH  15  25
ATOM     24  N   UNL     1       2.339   3.057  21.542  0.00  0.00    +0.000 NA
ATOM     25  C   UNL     1       2.874   3.616  20.677  0.00  0.00    +0.000 C 
ENDBRANCH  15  25
ENDBRANCH  14  15
ENDBRANCH   1  14
TORSDOF 5
ENDMDL
MODEL 7
REMARK VINA RESULT:      -7.2      1.156      1.532
REMARK  Name = 
REMARK  5 active torsions:
REMARK  status: ('A' for Active; 'I' for Inactive)
REMARK    1  A    between atoms: C_2  and  C_3
REMARK    2  A    between atoms: C_3  and  C_12
REMARK    3  A    between atoms: C_4  and  C_5
REMARK    4  A    between atoms: C_12  and  N_13
REMARK    5  A    between atoms: N_16  and  C_17
REMARK                            x       y       z     vdW  Elec       q    Type
REMARK                         _______ _______ _______ _____ _____    ______ ____
ROOT
ATOM      1  N   UNL     1       3.873   6.952  17.781  0.00  0.00    +0.000 N 
ATOM      2  C   UNL     1       2.813   7.511  18.478  0.00  0.00    +0.000 C 
ATOM      3  O   UNL     1       2.545   7.159  19.622  0.00  0.00    +0.000 OA
ATOM      4  N   UNL     1       2.166   8.482  17.741  0.00  0.00    +0.000 N 
ATOM      5  H   UNL     1       3.801   6.969  16.773  0.00  0.00    +0.000 HD
ATOM      6  H   UNL     1       2.507   8.642  16.804  0.00  0.00    +0.000 HD
ENDROOT
BRANCH   4   7
ATOM      7  C   UNL     1       1.049   9.255  18.143  0.00  0.00    +0.000 A 
ATOM      8  C   UNL     1      -0.162   9.288  17.442  0.00  0.00    +0.000 A 
ATOM      9  C   UNL     1      -1.204  10.128  17.849  0.00  0.00    +0.000 A 
ATOM     10  C   UNL     1      -1.052  10.933  18.969  0.00  0.00    +0.000 A 
ATOM     11 CL   UNL     1      -2.310  12.011  19.429  0.00  0.00    +0.000 Cl
ATOM     12  C   UNL     1       0.127  10.876  19.712  0.00  0.00    +0.000 A 
ATOM     13  C   UNL     1       1.170  10.040  19.300  0.00  0.00    +0.000 A 
ENDBRANCH   4   7
BRANCH   1  14
ATOM     14  C   UNL     1       4.625   5.856  18.379  0.00  0.00    +0.000 C 
BRANCH  14  15
ATOM     15  C   UNL     1       4.655   4.619  17.505  0.00  0.00    +0.000 C 
ATOM     16  C   UNL     1       3.940   3.502  17.777  0.00  0.00    +0.000 C 
BRANCH  16  17
ATOM     17  C   UNL     1       3.029   3.346  18.923  0.00  0.00    +0.000 A 
ATOM     18  C   UNL     1       3.506   2.718  20.082  0.00  0.00    +0.000 A 
ATOM     19  C   UNL     1       2.704   2.630  21.224  0.00  0.00    +0.000 A 
ATOM     20  C   UNL     1       1.417   3.165  21.220  0.00  0.00    +0.000 A 
ATOM     21  C   UNL     1       0.912   3.745  20.058  0.00  0.00    +0.000 A 
ATOM     22  C   UNL     1       1.707   3.825  18.910  0.00  0.00    +0.000 A 
ATOM     23 CL   UNL     1       1.007   4.515  17.487  0.00  0.00    +0.000 Cl
ENDBRANCH  16  17
BRANCH  15  25
ATOM     24  N   UNL     1       6.155   4.575  15.395  0.00  0.00    +0.000 NA
ATOM     25  C   UNL     1       5.470   4.607  16.332  0.00  0.00    +0.000 C 
ENDBRANCH  15  25
ENDBRANCH  14  15
ENDBRANCH   1  14
TORSDOF 5
ENDMDL
MODEL 8
REMARK VINA RESULT:      -7.2      2.983      4.405
REMARK  Name = 
REMARK  5 active torsions:
REMARK  status: ('A' for Active; 'I' for Inactive)
REMARK    1  A    between atoms: C_2  and  C_3
REMARK    2  A    between atoms: C_3  and  C_12
REMARK    3  A    between atoms: C_4  and  C_5
REMARK    4  A    between atoms: C_12  and  N_13
REMARK    5  A    between atoms: N_16  and  C_17
REMARK                            x       y       z     vdW  Elec       q    Type
REMARK                         _______ _______ _______ _____ _____    ______ ____
ROOT
ATOM      1  N   UNL     1       2.270   7.005  19.470  0.00  0.00    +0.000 N 
ATOM      2  C   UNL     1       1.594   8.204  19.625  0.00  0.00    +0.000 C 
ATOM      3  O   UNL     1       1.368   8.939  18.669  0.00  0.00    +0.000 OA
ATOM      4  N   UNL     1       1.213   8.417  20.935  0.00  0.00    +0.000 N 
ATOM      5  H   UNL     1       2.763   6.663  20.284  0.00  0.00    +0.000 HD
ATOM      6  H   UNL     1       1.491   7.716  21.606  0.00  0.00    +0.000 HD
ENDROOT
BRANCH   4   7
ATOM      7  C   UNL     1       0.506   9.532  21.448  0.00  0.00    +0.000 A 
ATOM      8  C   UNL     1       0.565  10.811  20.884  0.00  0.00    +0.000 A 
ATOM      9  C   UNL     1      -0.099  11.889  21.479  0.00  0.00    +0.000 A 
ATOM     10  C   UNL     1      -0.841  11.696  22.636  0.00  0.00    +0.000 A 
ATOM     11 CL   UNL     1      -1.603  13.035  23.401  0.00  0.00    +0.000 Cl
ATOM     12  C   UNL     1      -0.956  10.419  23.184  0.00  0.00    +0.000 A 
ATOM     13  C   UNL     1      -0.286   9.344  22.590  0.00  0.00    +0.000 A 
ENDBRANCH   4   7
BRANCH   1  14
ATOM     14  C   UNL     1       2.812   6.651  18.164  0.00  0.00    +0.000 C 
BRANCH  14  15
ATOM     15  C   UNL     1       3.041   5.162  18.006  0.00  0.00    +0.000 C 
ATOM     16  C   UNL     1       4.273   4.602  17.975  0.00  0.00    +0.000 C 
BRANCH  16  17
ATOM     17  C   UNL     1       5.538   5.344  18.116  0.00  0.00    +0.000 A 
ATOM     18  C   UNL     1       6.241   5.250  19.326  0.00  0.00    +0.000 A 
ATOM     19  C   UNL     1       7.490   5.863  19.471  0.00  0.00    +0.000 A 
ATOM     20  C   UNL     1       8.046   6.579  18.413  0.00  0.00    +0.000 A 
ATOM     21  C   UNL     1       7.334   6.724  17.223  0.00  0.00    +0.000 A 
ATOM     22  C   UNL     1       6.080   6.121  17.078  0.00  0.00    +0.000 A 
ATOM     23 CL   UNL     1       5.226   6.376  15.596  0.00  0.00    +0.000 Cl
ENDBRANCH  16  17
BRANCH  15  25
ATOM     24  N   UNL     1       1.024   3.553  17.801  0.00  0.00    +0.000 NA
ATOM     25  C   UNL     1       1.919   4.287  17.882  0.00  0.00    +0.000 C 
ENDBRANCH  15  25
ENDBRANCH  14  15
ENDBRANCH   1  14
TORSDOF 5
ENDMDL
MODEL 9
REMARK VINA RESULT:      -7.1      1.233      1.876
REMARK  Name = 
REMARK  5 active torsions:
REMARK  status: ('A' for Active; 'I' for Inactive)
REMARK    1  A    between atoms: C_2  and  C_3
REMARK    2  A    between atoms: C_3  and  C_12
REMARK    3  A    between atoms: C_4  and  C_5
REMARK    4  A    between atoms: C_12  and  N_13
REMARK    5  A    between atoms: N_16  and  C_17
REMARK                            x       y       z     vdW  Elec       q    Type
REMARK                         _______ _______ _______ _____ _____    ______ ____
ROOT
ATOM      1  N   UNL     1       3.423   7.486  17.728  0.00  0.00    +0.000 N 
ATOM      2  C   UNL     1       2.404   8.093  18.446  0.00  0.00    +0.000 C 
ATOM      3  O   UNL     1       2.162   7.774  19.605  0.00  0.00    +0.000 OA
ATOM      4  N   UNL     1       1.764   9.070  17.710  0.00  0.00    +0.000 N 
ATOM      5  H   UNL     1       3.318   7.485  16.722  0.00  0.00    +0.000 HD
ATOM      6  H   UNL     1       2.079   9.199  16.759  0.00  0.00    +0.000 HD
ENDROOT
BRANCH   4   7
ATOM      7  C   UNL     1       0.686   9.887  18.131  0.00  0.00    +0.000 A 
ATOM      8  C   UNL     1       0.832  10.968  19.007  0.00  0.00    +0.000 A 
ATOM      9  C   UNL     1      -0.282  11.693  19.443  0.00  0.00    +0.000 A 
ATOM     10  C   UNL     1      -1.552  11.354  18.996  0.00  0.00    +0.000 A 
ATOM     11 CL   UNL     1      -2.925  12.205  19.584  0.00  0.00    +0.000 Cl
ATOM     12  C   UNL     1      -1.713  10.313  18.082  0.00  0.00    +0.000 A 
ATOM     13  C   UNL     1      -0.598   9.586  17.651  0.00  0.00    +0.000 A 
ENDBRANCH   4   7
BRANCH   1  14
ATOM     14  C   UNL     1       4.158   6.379  18.324  0.00  0.00    +0.000 C 
BRANCH  14  15
ATOM     15  C   UNL     1       4.431   5.258  17.342  0.00  0.00    +0.000 C 
ATOM     16  C   UNL     1       3.988   3.992  17.523  0.00  0.00    +0.000 C 
BRANCH  16  17
ATOM     17  C   UNL     1       3.171   3.541  18.662  0.00  0.00    +0.000 A 
ATOM     18  C   UNL     1       3.810   2.914  19.741  0.00  0.00    +0.000 A 
ATOM     19  C   UNL     1       3.086   2.553  20.882  0.00  0.00    +0.000 A 
ATOM     20  C   UNL     1       1.718   2.809  20.955  0.00  0.00    +0.000 A 
ATOM     21  C   UNL     1       1.062   3.384  19.868  0.00  0.00    +0.000 A 
ATOM     22  C   UNL     1       1.780   3.737  18.721  0.00  0.00    +0.000 A 
ATOM     23 CL   UNL     1       0.902   4.404  17.389  0.00  0.00    +0.000 Cl
ENDBRANCH  16  17
BRANCH  15  25
ATOM     24  N   UNL     1       5.809   5.779  15.213  0.00  0.00    +0.000 NA
ATOM     25  C   UNL     1       5.190   5.527  16.162  0.00  0.00    +0.000 C 
ENDBRANCH  15  25
ENDBRANCH  14  15
ENDBRANCH   1  14
TORSDOF 5
ENDMDL
