MODEL 1
REMARK VINA RESULT:      -8.2      0.000      0.000
REMARK  Name = 
REMARK  3 active torsions:
REMARK  status: ('A' for Active; 'I' for Inactive)
REMARK    1  A    between atoms: C_8  and  C_9
REMARK    2  A    between atoms: C_9  and  N_10
REMARK    3  A    between atoms: C_11  and  C_12
REMARK                            x       y       z     vdW  Elec       q    Type
REMARK                         _______ _______ _______ _____ _____    ______ ____
ROOT
ATOM      1  N   UNL     1       3.083   6.251  19.619  0.00  0.00    +0.000 N 
ATOM      2  C   UNL     1       3.602   6.567  18.368  0.00  0.00    +0.000 A 
ATOM      3  N   UNL     1       3.036   7.683  17.934  0.00  0.00    +0.000 NA
ATOM      4  C   UNL     1       2.168   8.117  18.908  0.00  0.00    +0.000 A 
ATOM      5  C   UNL     1       1.287   9.210  18.967  0.00  0.00    +0.000 A 
ATOM      6 CL   UNL     1       1.193  10.205  17.583  0.00  0.00    +0.000 Cl
ATOM      7  C   UNL     1       0.514   9.451  20.104  0.00  0.00    +0.000 A 
ATOM      8  C   UNL     1       0.624   8.604  21.204  0.00  0.00    +0.000 A 
ATOM      9  C   UNL     1       1.479   7.497  21.179  0.00  0.00    +0.000 A 
ATOM     10  C   UNL     1       2.226   7.267  20.009  0.00  0.00    +0.000 A 
ENDROOT
BRANCH   2  11
ATOM     11  C   UNL     1       4.563   5.785  17.569  0.00  0.00    +0.000 A 
ATOM     12  C   UNL     1       4.121   4.716  16.774  0.00  0.00    +0.000 A 
ATOM     13  F   UNL     1       2.822   4.383  16.724  0.00  0.00    +0.000 F 
ATOM     14  C   UNL     1       5.005   3.943  16.011  0.00  0.00    +0.000 A 
ATOM     15  C   UNL     1       6.369   4.211  16.039  0.00  0.00    +0.000 A 
ATOM     16  C   UNL     1       6.833   5.279  16.798  0.00  0.00    +0.000 A 
ATOM     17  C   UNL     1       5.932   6.068  17.519  0.00  0.00    +0.000 A 
ATOM     18  F   UNL     1       6.436   7.140  18.143  0.00  0.00    +0.000 F 
ENDBRANCH   2  11
BRANCH   1  19
ATOM     19  C   UNL     1       3.301   5.055  20.427  0.00  0.00    +0.000 C 
BRANCH  19  27
ATOM     20  F   UNL     1       4.926   2.893  19.387  0.00  0.00    +0.000 F 
ATOM     21  C   UNL     1       3.593   2.775  19.325  0.00  0.00    +0.000 A 
ATOM     22  C   UNL     1       3.063   1.650  18.695  0.00  0.00    +0.000 A 
ATOM     23  C   UNL     1       1.684   1.513  18.563  0.00  0.00    +0.000 A 
ATOM     24  C   UNL     1       0.845   2.498  19.073  0.00  0.00    +0.000 A 
ATOM     25  C   UNL     1       1.392   3.614  19.707  0.00  0.00    +0.000 A 
ATOM     26  F   UNL     1       0.563   4.564  20.157  0.00  0.00    +0.000 F 
ATOM     27  C   UNL     1       2.772   3.774  19.852  0.00  0.00    +0.000 A 
ENDBRANCH  19  27
ENDBRANCH   1  19
TORSDOF 3
ENDMDL
MODEL 2
REMARK VINA RESULT:      -8.2      0.116      1.590
REMARK  Name = 
REMARK  3 active torsions:
REMARK  status: ('A' for Active; 'I' for Inactive)
REMARK    1  A    between atoms: C_8  and  C_9
REMARK    2  A    between atoms: C_9  and  N_10
REMARK    3  A    between atoms: C_11  and  C_12
REMARK                            x       y       z     vdW  Elec       q    Type
REMARK                         _______ _______ _______ _____ _____    ______ ____
ROOT
ATOM      1  N   UNL     1       3.089   6.198  19.615  0.00  0.00    +0.000 N 
ATOM      2  C   UNL     1       3.613   6.498  18.361  0.00  0.00    +0.000 A 
ATOM      3  N   UNL     1       3.066   7.621  17.922  0.00  0.00    +0.000 NA
ATOM      4  C   UNL     1       2.207   8.076  18.895  0.00  0.00    +0.000 A 
ATOM      5  C   UNL     1       1.346   9.186  18.948  0.00  0.00    +0.000 A 
ATOM      6 CL   UNL     1       1.268  10.174  17.558  0.00  0.00    +0.000 Cl
ATOM      7  C   UNL     1       0.579   9.446  20.085  0.00  0.00    +0.000 A 
ATOM      8  C   UNL     1       0.675   8.604  21.189  0.00  0.00    +0.000 A 
ATOM      9  C   UNL     1       1.510   7.481  21.169  0.00  0.00    +0.000 A 
ATOM     10  C   UNL     1       2.251   7.232  19.999  0.00  0.00    +0.000 A 
ENDROOT
BRANCH   2  11
ATOM     11  C   UNL     1       4.558   5.694  17.565  0.00  0.00    +0.000 A 
ATOM     12  C   UNL     1       5.939   5.921  17.662  0.00  0.00    +0.000 A 
ATOM     13  F   UNL     1       6.428   6.871  18.475  0.00  0.00    +0.000 F 
ATOM     14  C   UNL     1       6.867   5.186  16.914  0.00  0.00    +0.000 A 
ATOM     15  C   UNL     1       6.431   4.207  16.027  0.00  0.00    +0.000 A 
ATOM     16  C   UNL     1       5.070   3.943  15.929  0.00  0.00    +0.000 A 
ATOM     17  C   UNL     1       4.160   4.656  16.716  0.00  0.00    +0.000 A 
ATOM     18  F   UNL     1       2.877   4.279  16.645  0.00  0.00    +0.000 F 
ENDBRANCH   2  11
BRANCH   1  19
ATOM     19  C   UNL     1       3.286   5.003  20.429  0.00  0.00    +0.000 C 
BRANCH  19  27
ATOM     20  F   UNL     1       4.927   2.856  19.382  0.00  0.00    +0.000 F 
ATOM     21  C   UNL     1       3.596   2.731  19.315  0.00  0.00    +0.000 A 
ATOM     22  C   UNL     1       3.075   1.606  18.676  0.00  0.00    +0.000 A 
ATOM     23  C   UNL     1       1.697   1.462  18.538  0.00  0.00    +0.000 A 
ATOM     24  C   UNL     1       0.851   2.439  19.051  0.00  0.00    +0.000 A 
ATOM     25  C   UNL     1       1.389   3.555  19.693  0.00  0.00    +0.000 A 
ATOM     26  F   UNL     1       0.552   4.497  20.146  0.00  0.00    +0.000 F 
ATOM     27  C   UNL     1       2.767   3.722  19.844  0.00  0.00    +0.000 A 
ENDBRANCH  19  27
ENDBRANCH   1  19
TORSDOF 3
ENDMDL
MODEL 3
REMARK VINA RESULT:      -8.2      0.256      1.604
REMARK  Name = 
REMARK  3 active torsions:
REMARK  status: ('A' for Active; 'I' for Inactive)
REMARK    1  A    between atoms: C_8  and  C_9
REMARK    2  A    between atoms: C_9  and  N_10
REMARK    3  A    between atoms: C_11  and  C_12
REMARK                            x       y       z     vdW  Elec       q    Type
REMARK                         _______ _______ _______ _____ _____    ______ ____
ROOT
ATOM      1  N   UNL     1       3.158   6.334  19.460  0.00  0.00    +0.000 N 
ATOM      2  C   UNL     1       3.679   6.733  18.232  0.00  0.00    +0.000 A 
ATOM      3  N   UNL     1       3.089   7.857  17.857  0.00  0.00    +0.000 NA
ATOM      4  C   UNL     1       2.204   8.214  18.846  0.00  0.00    +0.000 A 
ATOM      5  C   UNL     1       1.295   9.282  18.958  0.00  0.00    +0.000 A 
ATOM      6 CL   UNL     1       1.187  10.350  17.631  0.00  0.00    +0.000 Cl
ATOM      7  C   UNL     1       0.508   9.440  20.100  0.00  0.00    +0.000 A 
ATOM      8  C   UNL     1       0.631   8.535  21.151  0.00  0.00    +0.000 A 
ATOM      9  C   UNL     1       1.513   7.452  21.072  0.00  0.00    +0.000 A 
ATOM     10  C   UNL     1       2.274   7.306  19.898  0.00  0.00    +0.000 A 
ENDROOT
BRANCH   2  11
ATOM     11  C   UNL     1       4.664   6.019  17.399  0.00  0.00    +0.000 A 
ATOM     12  C   UNL     1       4.280   4.896  16.652  0.00  0.00    +0.000 A 
ATOM     13  F   UNL     1       3.016   4.446  16.678  0.00  0.00    +0.000 F 
ATOM     14  C   UNL     1       5.190   4.186  15.858  0.00  0.00    +0.000 A 
ATOM     15  C   UNL     1       6.525   4.575  15.807  0.00  0.00    +0.000 A 
ATOM     16  C   UNL     1       6.928   5.699  16.518  0.00  0.00    +0.000 A 
ATOM     17  C   UNL     1       5.997   6.423  17.270  0.00  0.00    +0.000 A 
ATOM     18  F   UNL     1       6.433   7.551  17.845  0.00  0.00    +0.000 F 
ENDBRANCH   2  11
BRANCH   1  19
ATOM     19  C   UNL     1       3.399   5.100  20.201  0.00  0.00    +0.000 C 
BRANCH  19  27
ATOM     20  F   UNL     1       0.560   4.527  20.097  0.00  0.00    +0.000 F 
ATOM     21  C   UNL     1       1.414   3.608  19.627  0.00  0.00    +0.000 A 
ATOM     22  C   UNL     1       0.890   2.395  19.182  0.00  0.00    +0.000 A 
ATOM     23  C   UNL     1       1.745   1.392  18.734  0.00  0.00    +0.000 A 
ATOM     24  C   UNL     1       3.118   1.616  18.724  0.00  0.00    +0.000 A 
ATOM     25  C   UNL     1       3.624   2.838  19.166  0.00  0.00    +0.000 A 
ATOM     26  F   UNL     1       4.951   3.013  19.178  0.00  0.00    +0.000 F 
ATOM     27  C   UNL     1       2.787   3.859  19.619  0.00  0.00    +0.000 A 
ENDBRANCH  19  27
ENDBRANCH   1  19
TORSDOF 3
ENDMDL
MODEL 4
REMARK VINA RESULT:      -8.1      0.302      2.261
REMARK  Name = 
REMARK  3 active torsions:
REMARK  status: ('A' for Active; 'I' for Inactive)
REMARK    1  A    between atoms: C_8  and  C_9
REMARK    2  A    between atoms: C_9  and  N_10
REMARK    3  A    between atoms: C_11  and  C_12
REMARK                            x       y       z     vdW  Elec       q    Type
REMARK                         _______ _______ _______ _____ _____    ______ ____
ROOT
ATOM      1  N   UNL     1       3.222   6.307  19.393  0.00  0.00    +0.000 N 
ATOM      2  C   UNL     1       3.730   6.704  18.160  0.00  0.00    +0.000 A 
ATOM      3  N   UNL     1       3.142   7.832  17.792  0.00  0.00    +0.000 NA
ATOM      4  C   UNL     1       2.270   8.193  18.792  0.00  0.00    +0.000 A 
ATOM      5  C   UNL     1       1.368   9.265  18.915  0.00  0.00    +0.000 A 
ATOM      6 CL   UNL     1       1.251  10.335  17.591  0.00  0.00    +0.000 Cl
ATOM      7  C   UNL     1       0.596   9.425  20.067  0.00  0.00    +0.000 A 
ATOM      8  C   UNL     1       0.726   8.519  21.116  0.00  0.00    +0.000 A 
ATOM      9  C   UNL     1       1.601   7.431  21.025  0.00  0.00    +0.000 A 
ATOM     10  C   UNL     1       2.347   7.283  19.842  0.00  0.00    +0.000 A 
ENDROOT
BRANCH   2  11
ATOM     11  C   UNL     1       4.702   5.987  17.315  0.00  0.00    +0.000 A 
ATOM     12  C   UNL     1       6.049   6.379  17.293  0.00  0.00    +0.000 A 
ATOM     13  F   UNL     1       6.481   7.411  18.035  0.00  0.00    +0.000 F 
ATOM     14  C   UNL     1       6.999   5.730  16.494  0.00  0.00    +0.000 A 
ATOM     15  C   UNL     1       6.617   4.672  15.675  0.00  0.00    +0.000 A 
ATOM     16  C   UNL     1       5.295   4.246  15.696  0.00  0.00    +0.000 A 
ATOM     17  C   UNL     1       4.368   4.877  16.532  0.00  0.00    +0.000 A 
ATOM     18  F   UNL     1       3.139   4.348  16.576  0.00  0.00    +0.000 F 
ENDBRANCH   2  11
BRANCH   1  19
ATOM     19  C   UNL     1       3.465   5.071  20.130  0.00  0.00    +0.000 C 
BRANCH  19  27
ATOM     20  F   UNL     1       0.615   4.551  20.085  0.00  0.00    +0.000 F 
ATOM     21  C   UNL     1       1.442   3.613  19.605  0.00  0.00    +0.000 A 
ATOM     22  C   UNL     1       0.887   2.407  19.178  0.00  0.00    +0.000 A 
ATOM     23  C   UNL     1       1.715   1.385  18.721  0.00  0.00    +0.000 A 
ATOM     24  C   UNL     1       3.091   1.583  18.683  0.00  0.00    +0.000 A 
ATOM     25  C   UNL     1       3.628   2.799  19.106  0.00  0.00    +0.000 A 
ATOM     26  F   UNL     1       4.958   2.949  19.092  0.00  0.00    +0.000 F 
ATOM     27  C   UNL     1       2.819   3.838  19.569  0.00  0.00    +0.000 A 
ENDBRANCH  19  27
ENDBRANCH   1  19
TORSDOF 3
ENDMDL
MODEL 5
REMARK VINA RESULT:      -8.1      1.540      4.035
REMARK  Name = 
REMARK  3 active torsions:
REMARK  status: ('A' for Active; 'I' for Inactive)
REMARK    1  A    between atoms: C_8  and  C_9
REMARK    2  A    between atoms: C_9  and  N_10
REMARK    3  A    between atoms: C_11  and  C_12
REMARK                            x       y       z     vdW  Elec       q    Type
REMARK                         _______ _______ _______ _____ _____    ______ ____
ROOT
ATOM      1  N   UNL     1       2.856   6.959  17.950  0.00  0.00    +0.000 N 
ATOM      2  C   UNL     1       2.581   6.001  18.920  0.00  0.00    +0.000 A 
ATOM      3  N   UNL     1       1.950   6.578  19.932  0.00  0.00    +0.000 NA
ATOM      4  C   UNL     1       1.785   7.906  19.617  0.00  0.00    +0.000 A 
ATOM      5  C   UNL     1       1.224   8.981  20.329  0.00  0.00    +0.000 A 
ATOM      6 CL   UNL     1       0.663   8.656  21.908  0.00  0.00    +0.000 Cl
ATOM      7  C   UNL     1       1.151  10.256  19.766  0.00  0.00    +0.000 A 
ATOM      8  C   UNL     1       1.629  10.468  18.476  0.00  0.00    +0.000 A 
ATOM      9  C   UNL     1       2.208   9.427  17.741  0.00  0.00    +0.000 A 
ATOM     10  C   UNL     1       2.289   8.160  18.345  0.00  0.00    +0.000 A 
ENDROOT
BRANCH   2  11
ATOM     11  C   UNL     1       2.975   4.580  18.918  0.00  0.00    +0.000 A 
ATOM     12  C   UNL     1       2.156   3.618  18.308  0.00  0.00    +0.000 A 
ATOM     13  F   UNL     1       1.002   3.965  17.718  0.00  0.00    +0.000 F 
ATOM     14  C   UNL     1       2.491   2.258  18.297  0.00  0.00    +0.000 A 
ATOM     15  C   UNL     1       3.657   1.820  18.917  0.00  0.00    +0.000 A 
ATOM     16  C   UNL     1       4.499   2.755  19.507  0.00  0.00    +0.000 A 
ATOM     17  C   UNL     1       4.172   4.114  19.472  0.00  0.00    +0.000 A 
ATOM     18  F   UNL     1       5.078   4.965  19.969  0.00  0.00    +0.000 F 
ENDBRANCH   2  11
BRANCH   1  19
ATOM     19  C   UNL     1       3.644   6.828  16.728  0.00  0.00    +0.000 C 
BRANCH  19  27
ATOM     20  F   UNL     1       6.034   8.022  17.850  0.00  0.00    +0.000 F 
ATOM     21  C   UNL     1       6.105   6.767  17.388  0.00  0.00    +0.000 A 
ATOM     22  C   UNL     1       7.347   6.132  17.406  0.00  0.00    +0.000 A 
ATOM     23  C   UNL     1       7.477   4.847  16.888  0.00  0.00    +0.000 A 
ATOM     24  C   UNL     1       6.360   4.202  16.366  0.00  0.00    +0.000 A 
ATOM     25  C   UNL     1       5.124   4.849  16.363  0.00  0.00    +0.000 A 
ATOM     26  F   UNL     1       4.074   4.218  15.823  0.00  0.00    +0.000 F 
ATOM     27  C   UNL     1       4.969   6.138  16.878  0.00  0.00    +0.000 A 
ENDBRANCH  19  27
ENDBRANCH   1  19
TORSDOF 3
ENDMDL
MODEL 6
REMARK VINA RESULT:      -8.1      1.601      4.022
REMARK  Name = 
REMARK  3 active torsions:
REMARK  status: ('A' for Active; 'I' for Inactive)
REMARK    1  A    between atoms: C_8  and  C_9
REMARK    2  A    between atoms: C_9  and  N_10
REMARK    3  A    between atoms: C_11  and  C_12
REMARK                            x       y       z     vdW  Elec       q    Type
REMARK                         _______ _______ _______ _____ _____    ______ ____
ROOT
ATOM      1  N   UNL     1       2.901   6.963  17.866  0.00  0.00    +0.000 N 
ATOM      2  C   UNL     1       2.628   5.993  18.825  0.00  0.00    +0.000 A 
ATOM      3  N   UNL     1       2.008   6.560  19.849  0.00  0.00    +0.000 NA
ATOM      4  C   UNL     1       1.848   7.893  19.554  0.00  0.00    +0.000 A 
ATOM      5  C   UNL     1       1.299   8.962  20.285  0.00  0.00    +0.000 A 
ATOM      6 CL   UNL     1       0.748   8.619  21.863  0.00  0.00    +0.000 Cl
ATOM      7  C   UNL     1       1.231  10.245  19.740  0.00  0.00    +0.000 A 
ATOM      8  C   UNL     1       1.701  10.472  18.449  0.00  0.00    +0.000 A 
ATOM      9  C   UNL     1       2.268   9.438  17.696  0.00  0.00    +0.000 A 
ATOM     10  C   UNL     1       2.345   8.162  18.282  0.00  0.00    +0.000 A 
ENDROOT
BRANCH   2  11
ATOM     11  C   UNL     1       3.013   4.570  18.801  0.00  0.00    +0.000 A 
ATOM     12  C   UNL     1       2.219   3.632  18.123  0.00  0.00    +0.000 A 
ATOM     13  F   UNL     1       1.098   4.006  17.488  0.00  0.00    +0.000 F 
ATOM     14  C   UNL     1       2.546   2.271  18.088  0.00  0.00    +0.000 A 
ATOM     15  C   UNL     1       3.677   1.806  18.751  0.00  0.00    +0.000 A 
ATOM     16  C   UNL     1       4.495   2.717  19.409  0.00  0.00    +0.000 A 
ATOM     17  C   UNL     1       4.178   4.079  19.398  0.00  0.00    +0.000 A 
ATOM     18  F   UNL     1       5.064   4.908  19.963  0.00  0.00    +0.000 F 
ENDBRANCH   2  11
BRANCH   1  19
ATOM     19  C   UNL     1       3.680   6.844  16.637  0.00  0.00    +0.000 C 
BRANCH  19  27
ATOM     20  F   UNL     1       4.342   4.166  15.752  0.00  0.00    +0.000 F 
ATOM     21  C   UNL     1       5.288   4.884  16.371  0.00  0.00    +0.000 A 
ATOM     22  C   UNL     1       6.516   4.273  16.621  0.00  0.00    +0.000 A 
ATOM     23  C   UNL     1       7.509   4.966  17.309  0.00  0.00    +0.000 A 
ATOM     24  C   UNL     1       7.268   6.269  17.731  0.00  0.00    +0.000 A 
ATOM     25  C   UNL     1       6.037   6.868  17.466  0.00  0.00    +0.000 A 
ATOM     26  F   UNL     1       5.820   8.110  17.914  0.00  0.00    +0.000 F 
ATOM     27  C   UNL     1       5.025   6.193  16.778  0.00  0.00    +0.000 A 
ENDBRANCH  19  27
ENDBRANCH   1  19
TORSDOF 3
ENDMDL
MODEL 7
REMARK VINA RESULT:      -8.0      1.527      4.309
REMARK  Name = 
REMARK  3 active torsions:
REMARK  status: ('A' for Active; 'I' for Inactive)
REMARK    1  A    between atoms: C_8  and  C_9
REMARK    2  A    between atoms: C_9  and  N_10
REMARK    3  A    between atoms: C_11  and  C_12
REMARK                            x       y       z     vdW  Elec       q    Type
REMARK                         _______ _______ _______ _____ _____    ______ ____
ROOT
ATOM      1  N   UNL     1       2.843   6.951  17.944  0.00  0.00    +0.000 N 
ATOM      2  C   UNL     1       2.557   5.994  18.912  0.00  0.00    +0.000 A 
ATOM      3  N   UNL     1       1.927   6.574  19.922  0.00  0.00    +0.000 NA
ATOM      4  C   UNL     1       1.774   7.905  19.608  0.00  0.00    +0.000 A 
ATOM      5  C   UNL     1       1.220   8.983  20.320  0.00  0.00    +0.000 A 
ATOM      6 CL   UNL     1       0.651   8.661  21.897  0.00  0.00    +0.000 Cl
ATOM      7  C   UNL     1       1.160  10.260  19.759  0.00  0.00    +0.000 A 
ATOM      8  C   UNL     1       1.645  10.470  18.471  0.00  0.00    +0.000 A 
ATOM      9  C   UNL     1       2.217   9.425  17.736  0.00  0.00    +0.000 A 
ATOM     10  C   UNL     1       2.285   8.156  18.339  0.00  0.00    +0.000 A 
ENDROOT
BRANCH   2  11
ATOM     11  C   UNL     1       2.938   4.570  18.909  0.00  0.00    +0.000 A 
ATOM     12  C   UNL     1       4.155   4.160  19.477  0.00  0.00    +0.000 A 
ATOM     13  F   UNL     1       4.993   5.049  20.030  0.00  0.00    +0.000 F 
ATOM     14  C   UNL     1       4.557   2.819  19.482  0.00  0.00    +0.000 A 
ATOM     15  C   UNL     1       3.752   1.846  18.898  0.00  0.00    +0.000 A 
ATOM     16  C   UNL     1       2.531   2.219  18.350  0.00  0.00    +0.000 A 
ATOM     17  C   UNL     1       2.124   3.557  18.392  0.00  0.00    +0.000 A 
ATOM     18  F   UNL     1       0.894   3.827  17.939  0.00  0.00    +0.000 F 
ENDBRANCH   2  11
BRANCH   1  19
ATOM     19  C   UNL     1       3.634   6.815  16.725  0.00  0.00    +0.000 C 
BRANCH  19  27
ATOM     20  F   UNL     1       6.028   7.998  17.850  0.00  0.00    +0.000 F 
ATOM     21  C   UNL     1       6.093   6.742  17.391  0.00  0.00    +0.000 A 
ATOM     22  C   UNL     1       7.331   6.100  17.412  0.00  0.00    +0.000 A 
ATOM     23  C   UNL     1       7.455   4.813  16.897  0.00  0.00    +0.000 A 
ATOM     24  C   UNL     1       6.336   4.173  16.374  0.00  0.00    +0.000 A 
ATOM     25  C   UNL     1       5.104   4.827  16.367  0.00  0.00    +0.000 A 
ATOM     26  F   UNL     1       4.052   4.201  15.826  0.00  0.00    +0.000 F 
ATOM     27  C   UNL     1       4.955   6.118  16.879  0.00  0.00    +0.000 A 
ENDBRANCH  19  27
ENDBRANCH   1  19
TORSDOF 3
ENDMDL
MODEL 8
REMARK VINA RESULT:      -7.9      1.597      4.300
REMARK  Name = 
REMARK  3 active torsions:
REMARK  status: ('A' for Active; 'I' for Inactive)
REMARK    1  A    between atoms: C_8  and  C_9
REMARK    2  A    between atoms: C_9  and  N_10
REMARK    3  A    between atoms: C_11  and  C_12
REMARK                            x       y       z     vdW  Elec       q    Type
REMARK                         _______ _______ _______ _____ _____    ______ ____
ROOT
ATOM      1  N   UNL     1       2.900   6.952  17.837  0.00  0.00    +0.000 N 
ATOM      2  C   UNL     1       2.603   5.981  18.787  0.00  0.00    +0.000 A 
ATOM      3  N   UNL     1       1.981   6.550  19.808  0.00  0.00    +0.000 NA
ATOM      4  C   UNL     1       1.844   7.888  19.520  0.00  0.00    +0.000 A 
ATOM      5  C   UNL     1       1.303   8.960  20.252  0.00  0.00    +0.000 A 
ATOM      6 CL   UNL     1       0.731   8.615  21.823  0.00  0.00    +0.000 Cl
ATOM      7  C   UNL     1       1.259  10.247  19.714  0.00  0.00    +0.000 A 
ATOM      8  C   UNL     1       1.745  10.475  18.430  0.00  0.00    +0.000 A 
ATOM      9  C   UNL     1       2.304   9.437  17.676  0.00  0.00    +0.000 A 
ATOM     10  C   UNL     1       2.357   8.156  18.255  0.00  0.00    +0.000 A 
ENDROOT
BRANCH   2  11
ATOM     11  C   UNL     1       2.967   4.553  18.758  0.00  0.00    +0.000 A 
ATOM     12  C   UNL     1       4.133   4.105  19.398  0.00  0.00    +0.000 A 
ATOM     13  F   UNL     1       4.938   4.960  20.047  0.00  0.00    +0.000 F 
ATOM     14  C   UNL     1       4.518   2.758  19.382  0.00  0.00    +0.000 A 
ATOM     15  C   UNL     1       3.749   1.820  18.702  0.00  0.00    +0.000 A 
ATOM     16  C   UNL     1       2.576   2.231  18.080  0.00  0.00    +0.000 A 
ATOM     17  C   UNL     1       2.183   3.572  18.143  0.00  0.00    +0.000 A 
ATOM     18  F   UNL     1       0.993   3.876  17.610  0.00  0.00    +0.000 F 
ENDBRANCH   2  11
BRANCH   1  19
ATOM     19  C   UNL     1       3.689   6.829  16.615  0.00  0.00    +0.000 C 
BRANCH  19  27
ATOM     20  F   UNL     1       4.363   4.153  15.731  0.00  0.00    +0.000 F 
ATOM     21  C   UNL     1       5.301   4.871  16.363  0.00  0.00    +0.000 A 
ATOM     22  C   UNL     1       6.527   4.260  16.625  0.00  0.00    +0.000 A 
ATOM     23  C   UNL     1       7.511   4.952  17.325  0.00  0.00    +0.000 A 
ATOM     24  C   UNL     1       7.266   6.254  17.747  0.00  0.00    +0.000 A 
ATOM     25  C   UNL     1       6.036   6.852  17.470  0.00  0.00    +0.000 A 
ATOM     26  F   UNL     1       5.814   8.094  17.918  0.00  0.00    +0.000 F 
ATOM     27  C   UNL     1       5.033   6.179  16.769  0.00  0.00    +0.000 A 
ENDBRANCH  19  27
ENDBRANCH   1  19
TORSDOF 3
ENDMDL
MODEL 9
REMARK VINA RESULT:      -7.9      2.024      5.211
REMARK  Name = 
REMARK  3 active torsions:
REMARK  status: ('A' for Active; 'I' for Inactive)
REMARK    1  A    between atoms: C_8  and  C_9
REMARK    2  A    between atoms: C_9  and  N_10
REMARK    3  A    between atoms: C_11  and  C_12
REMARK                            x       y       z     vdW  Elec       q    Type
REMARK                         _______ _______ _______ _____ _____    ______ ____
ROOT
ATOM      1  N   UNL     1       3.245   5.444  17.710  0.00  0.00    +0.000 N 
ATOM      2  C   UNL     1       3.399   6.732  18.213  0.00  0.00    +0.000 A 
ATOM      3  N   UNL     1       4.615   7.167  17.921  0.00  0.00    +0.000 NA
ATOM      4  C   UNL     1       5.250   6.181  17.203  0.00  0.00    +0.000 A 
ATOM      5  C   UNL     1       6.550   6.087  16.676  0.00  0.00    +0.000 A 
ATOM      6 CL   UNL     1       7.608   7.390  16.985  0.00  0.00    +0.000 Cl
ATOM      7  C   UNL     1       6.952   4.965  15.949  0.00  0.00    +0.000 A 
ATOM      8  C   UNL     1       6.051   3.926  15.731  0.00  0.00    +0.000 A 
ATOM      9  C   UNL     1       4.753   3.976  16.252  0.00  0.00    +0.000 A 
ATOM     10  C   UNL     1       4.387   5.109  17.001  0.00  0.00    +0.000 A 
ENDROOT
BRANCH   2  11
ATOM     11  C   UNL     1       2.436   7.505  19.018  0.00  0.00    +0.000 A 
ATOM     12  C   UNL     1       1.748   8.589  18.453  0.00  0.00    +0.000 A 
ATOM     13  F   UNL     1       1.950   8.946  17.175  0.00  0.00    +0.000 F 
ATOM     14  C   UNL     1       0.835   9.354  19.189  0.00  0.00    +0.000 A 
ATOM     15  C   UNL     1       0.598   9.062  20.528  0.00  0.00    +0.000 A 
ATOM     16  C   UNL     1       1.247   7.978  21.107  0.00  0.00    +0.000 A 
ATOM     17  C   UNL     1       2.123   7.197  20.346  0.00  0.00    +0.000 A 
ATOM     18  F   UNL     1       2.632   6.110  20.939  0.00  0.00    +0.000 F 
ENDBRANCH   2  11
BRANCH   1  19
ATOM     19  C   UNL     1       2.136   4.514  17.897  0.00  0.00    +0.000 C 
BRANCH  19  27
ATOM     20  F   UNL     1       0.077   4.578  19.935  0.00  0.00    +0.000 F 
ATOM     21  C   UNL     1       1.158   3.816  20.145  0.00  0.00    +0.000 A 
ATOM     22  C   UNL     1       1.266   3.153  21.368  0.00  0.00    +0.000 A 
ATOM     23  C   UNL     1       2.398   2.393  21.648  0.00  0.00    +0.000 A 
ATOM     24  C   UNL     1       3.408   2.291  20.698  0.00  0.00    +0.000 A 
ATOM     25  C   UNL     1       3.280   2.954  19.477  0.00  0.00    +0.000 A 
ATOM     26  F   UNL     1       4.283   2.867  18.595  0.00  0.00    +0.000 F 
ATOM     27  C   UNL     1       2.155   3.722  19.172  0.00  0.00    +0.000 A 
ENDBRANCH  19  27
ENDBRANCH   1  19
TORSDOF 3
ENDMDL
