MODEL 1
REMARK VINA RESULT:      -7.9      0.000      0.000
REMARK  Name = 
REMARK  17 active torsions:
REMARK  status: ('A' for Active; 'I' for Inactive)
REMARK    1  A    between atoms: C_1  and  C_2
REMARK    2  A    between atoms: C_2  and  C_3
REMARK    3  A    between atoms: C_3  and  C_4
REMARK    4  A    between atoms: C_4  and  C_5
REMARK    5  A    between atoms: C_5  and  O_6
REMARK    6  A    between atoms: O_6  and  C_7
REMARK    7  A    between atoms: C_7  and  C_9
REMARK    8  A    between atoms: C_9  and  C_10
REMARK    9  A    between atoms: C_9  and  N_17
REMARK   10  A    between atoms: C_10  and  C_11
REMARK   11  A    between atoms: C_11  and  C_12
REMARK   12  A    between atoms: C_12  and  N_13
REMARK   13  A    between atoms: N_17  and  S_18
REMARK   14  A    between atoms: S_18  and  C_21
REMARK   15  A    between atoms: C_26  and  N_27
REMARK   16  A    between atoms: N_27  and  C_28
REMARK   17  A    between atoms: N_27  and  C_29
REMARK                            x       y       z     vdW  Elec       q    Type
REMARK                         _______ _______ _______ _____ _____    ______ ____
ROOT
ATOM      1  C   UNL     1       6.332   4.849  17.550  0.00  0.00    +0.000 C 
ENDROOT
BRANCH   1   2
ATOM      2  C   UNL     1       7.008   5.909  18.436  0.00  0.00    +0.000 C 
ATOM      3  O   UNL     1       7.479   5.694  19.546  0.00  0.00    +0.000 OA
BRANCH   2   4
ATOM      4  O   UNL     1       6.855   7.150  17.883  0.00  0.00    +0.000 OA
BRANCH   4   5
ATOM      5  C   UNL     1       8.067   7.861  17.596  0.00  0.00    +0.000 C 
BRANCH   5   6
ATOM      6  C   UNL     1       8.013   9.348  17.924  0.00  0.00    +0.000 C 
BRANCH   6   7
ATOM      7  C   UNL     1       9.027   9.707  19.016  0.00  0.00    +0.000 C 
BRANCH   7   9
ATOM      8  C   UNL     1       8.940  11.961  17.890  0.00  0.00    +0.000 C 
ATOM      9  C   UNL     1       9.802  10.976  18.668  0.00  0.00    +0.000 C 
ENDBRANCH   7   9
ENDBRANCH   6   7
ENDBRANCH   5   6
ENDBRANCH   4   5
ENDBRANCH   2   4
ENDBRANCH   1   2
BRANCH   1  10
ATOM     10  N   UNL     1       5.696   3.790  18.385  0.00  0.00    +0.000 NA
ATOM     11  H   UNL     1       5.891   3.940  19.381  0.00  0.00    +0.000 HD
BRANCH  10  12
ATOM     12  S   UNL     1       4.107   3.305  18.100  0.00  0.00    +0.000 S 
ATOM     13  O   UNL     1       3.726   3.623  16.753  0.00  0.00    +0.000 OA
ATOM     14  O   UNL     1       3.965   1.946  18.587  0.00  0.00    +0.000 OA
BRANCH  12  15
ATOM     15  C   UNL     1       3.146   4.351  19.188  0.00  0.00    +0.000 A 
ATOM     16  C   UNL     1       2.696   3.726  20.354  0.00  0.00    +0.000 A 
ATOM     17  C   UNL     1       1.856   4.409  21.210  0.00  0.00    +0.000 A 
ATOM     18  C   UNL     1       1.531   5.734  20.930  0.00  0.00    +0.000 A 
ATOM     19  C   UNL     1       2.071   6.482  19.850  0.00  0.00    +0.000 A 
ATOM     20  C   UNL     1       1.827   7.900  19.664  0.00  0.00    +0.000 A 
ATOM     21  C   UNL     1       2.350   8.476  18.484  0.00  0.00    +0.000 A 
ATOM     22  C   UNL     1       3.080   7.746  17.550  0.00  0.00    +0.000 A 
ATOM     23  C   UNL     1       3.348   6.405  17.770  0.00  0.00    +0.000 A 
ATOM     24  C   UNL     1       2.878   5.733  18.922  0.00  0.00    +0.000 A 
BRANCH  20  25
ATOM     25  N   UNL     1       1.161   8.738  20.562  0.00  0.00    +0.000 N 
ATOM     26  C   UNL     1       0.095   9.658  20.150  0.00  0.00    +0.000 C 
ATOM     27  C   UNL     1       1.514   8.873  21.975  0.00  0.00    +0.000 C 
ENDBRANCH  20  25
ENDBRANCH  12  15
ENDBRANCH  10  12
ENDBRANCH   1  10
BRANCH   1  28
ATOM     28  C   UNL     1       7.352   4.287  16.568  0.00  0.00    +0.000 C 
BRANCH  28  29
ATOM     29  C   UNL     1       7.406   5.042  15.239  0.00  0.00    +0.000 C 
BRANCH  29  30
ATOM     30  C   UNL     1       6.028   5.001  14.595  0.00  0.00    +0.000 C 
BRANCH  30  31
ATOM     31  N   UNL     1       5.871   3.716  13.929  0.00  0.00    +0.000 NA
ATOM     32  C   UNL     1       6.397   3.586  12.772  0.00  0.00    +0.000 C 
ATOM     33  N   UNL     1       7.118   4.478  12.064  0.00  0.00    +0.000 N 
ATOM     34  N   UNL     1       6.207   2.441  12.088  0.00  0.00    +0.000 N 
ATOM     35  H   UNL     1       7.465   5.279  12.584  0.00  0.00    +0.000 HD
ATOM     36  H   UNL     1       7.796   4.110  11.411  0.00  0.00    +0.000 HD
ATOM     37  H   UNL     1       5.801   1.729  12.691  0.00  0.00    +0.000 HD
ATOM     38  H   UNL     1       6.966   2.099  11.528  0.00  0.00    +0.000 HD
ENDBRANCH  30  31
ENDBRANCH  29  30
ENDBRANCH  28  29
ENDBRANCH   1  28
TORSDOF 14
ENDMDL
MODEL 2
REMARK VINA RESULT:      -7.8      3.467      5.877
REMARK  Name = 
REMARK  17 active torsions:
REMARK  status: ('A' for Active; 'I' for Inactive)
REMARK    1  A    between atoms: C_1  and  C_2
REMARK    2  A    between atoms: C_2  and  C_3
REMARK    3  A    between atoms: C_3  and  C_4
REMARK    4  A    between atoms: C_4  and  C_5
REMARK    5  A    between atoms: C_5  and  O_6
REMARK    6  A    between atoms: O_6  and  C_7
REMARK    7  A    between atoms: C_7  and  C_9
REMARK    8  A    between atoms: C_9  and  C_10
REMARK    9  A    between atoms: C_9  and  N_17
REMARK   10  A    between atoms: C_10  and  C_11
REMARK   11  A    between atoms: C_11  and  C_12
REMARK   12  A    between atoms: C_12  and  N_13
REMARK   13  A    between atoms: N_17  and  S_18
REMARK   14  A    between atoms: S_18  and  C_21
REMARK   15  A    between atoms: C_26  and  N_27
REMARK   16  A    between atoms: N_27  and  C_28
REMARK   17  A    between atoms: N_27  and  C_29
REMARK                            x       y       z     vdW  Elec       q    Type
REMARK                         _______ _______ _______ _____ _____    ______ ____
ROOT
ATOM      1  C   UNL     1       4.752   5.463  17.372  0.00  0.00    +0.000 C 
ENDROOT
BRANCH   1   2
ATOM      2  C   UNL     1       6.162   5.825  16.874  0.00  0.00    +0.000 C 
ATOM      3  O   UNL     1       7.081   6.201  17.591  0.00  0.00    +0.000 OA
BRANCH   2   4
ATOM      4  O   UNL     1       6.190   5.830  15.507  0.00  0.00    +0.000 OA
BRANCH   4   5
ATOM      5  C   UNL     1       6.580   4.597  14.884  0.00  0.00    +0.000 C 
BRANCH   5   6
ATOM      6  C   UNL     1       5.580   4.070  13.861  0.00  0.00    +0.000 C 
BRANCH   6   7
ATOM      7  C   UNL     1       6.287   3.663  12.564  0.00  0.00    +0.000 C 
BRANCH   7   9
ATOM      8  C   UNL     1       4.190   3.179  11.252  0.00  0.00    +0.000 C 
ATOM      9  C   UNL     1       5.491   2.608  11.798  0.00  0.00    +0.000 C 
ENDBRANCH   7   9
ENDBRANCH   6   7
ENDBRANCH   5   6
ENDBRANCH   4   5
ENDBRANCH   2   4
ENDBRANCH   1   2
BRANCH   1  10
ATOM     10  N   UNL     1       4.179   6.573  18.185  0.00  0.00    +0.000 NA
ATOM     11  H   UNL     1       4.323   7.479  17.726  0.00  0.00    +0.000 HD
BRANCH  10  12
ATOM     12  S   UNL     1       2.647   6.433  18.877  0.00  0.00    +0.000 S 
ATOM     13  O   UNL     1       1.780   5.683  18.014  0.00  0.00    +0.000 OA
ATOM     14  O   UNL     1       2.822   6.021  20.257  0.00  0.00    +0.000 OA
BRANCH  12  15
ATOM     15  C   UNL     1       2.044   8.117  18.907  0.00  0.00    +0.000 A 
ATOM     16  C   UNL     1       2.342   8.866  17.766  0.00  0.00    +0.000 A 
ATOM     17  C   UNL     1       2.019  10.208  17.729  0.00  0.00    +0.000 A 
ATOM     18  C   UNL     1       1.338  10.771  18.805  0.00  0.00    +0.000 A 
ATOM     19  C   UNL     1       0.868  10.042  19.929  0.00  0.00    +0.000 A 
ATOM     20  C   UNL     1       0.038  10.627  20.966  0.00  0.00    +0.000 A 
ATOM     21  C   UNL     1      -0.260   9.797  22.071  0.00  0.00    +0.000 A 
ATOM     22  C   UNL     1       0.189   8.483  22.169  0.00  0.00    +0.000 A 
ATOM     23  C   UNL     1       0.936   7.925  21.144  0.00  0.00    +0.000 A 
ATOM     24  C   UNL     1       1.285   8.665  19.990  0.00  0.00    +0.000 A 
BRANCH  20  25
ATOM     25  N   UNL     1      -0.514  11.909  20.943  0.00  0.00    +0.000 N 
ATOM     26  C   UNL     1      -1.791  12.215  20.291  0.00  0.00    +0.000 C 
ATOM     27  C   UNL     1       0.156  13.100  21.466  0.00  0.00    +0.000 C 
ENDBRANCH  20  25
ENDBRANCH  12  15
ENDBRANCH  10  12
ENDBRANCH   1  10
BRANCH   1  28
ATOM     28  C   UNL     1       4.810   4.146  18.135  0.00  0.00    +0.000 C 
BRANCH  28  29
ATOM     29  C   UNL     1       4.068   3.002  17.444  0.00  0.00    +0.000 C 
BRANCH  29  30
ATOM     30  C   UNL     1       3.596   2.013  18.500  0.00  0.00    +0.000 C 
BRANCH  30  31
ATOM     31  N   UNL     1       2.839   2.743  19.506  0.00  0.00    +0.000 NA
ATOM     32  C   UNL     1       1.565   2.665  19.453  0.00  0.00    +0.000 C 
ATOM     33  N   UNL     1       0.794   1.970  18.595  0.00  0.00    +0.000 N 
ATOM     34  N   UNL     1       0.826   3.388  20.316  0.00  0.00    +0.000 N 
ATOM     35  H   UNL     1       1.270   1.257  18.049  0.00  0.00    +0.000 HD
ATOM     36  H   UNL     1      -0.112   1.669  18.928  0.00  0.00    +0.000 HD
ATOM     37  H   UNL     1       1.414   3.780  21.049  0.00  0.00    +0.000 HD
ATOM     38  H   UNL     1      -0.021   2.978  20.666  0.00  0.00    +0.000 HD
ENDBRANCH  30  31
ENDBRANCH  29  30
ENDBRANCH  28  29
ENDBRANCH   1  28
TORSDOF 14
ENDMDL
MODEL 3
REMARK VINA RESULT:      -7.5      3.722      6.118
REMARK  Name = 
REMARK  17 active torsions:
REMARK  status: ('A' for Active; 'I' for Inactive)
REMARK    1  A    between atoms: C_1  and  C_2
REMARK    2  A    between atoms: C_2  and  C_3
REMARK    3  A    between atoms: C_3  and  C_4
REMARK    4  A    between atoms: C_4  and  C_5
REMARK    5  A    between atoms: C_5  and  O_6
REMARK    6  A    between atoms: O_6  and  C_7
REMARK    7  A    between atoms: C_7  and  C_9
REMARK    8  A    between atoms: C_9  and  C_10
REMARK    9  A    between atoms: C_9  and  N_17
REMARK   10  A    between atoms: C_10  and  C_11
REMARK   11  A    between atoms: C_11  and  C_12
REMARK   12  A    between atoms: C_12  and  N_13
REMARK   13  A    between atoms: N_17  and  S_18
REMARK   14  A    between atoms: S_18  and  C_21
REMARK   15  A    between atoms: C_26  and  N_27
REMARK   16  A    between atoms: N_27  and  C_28
REMARK   17  A    between atoms: N_27  and  C_29
REMARK                            x       y       z     vdW  Elec       q    Type
REMARK                         _______ _______ _______ _____ _____    ______ ____
ROOT
ATOM      1  C   UNL     1       2.920   6.065  18.157  0.00  0.00    +0.000 C 
ENDROOT
BRANCH   1   2
ATOM      2  C   UNL     1       4.421   5.745  18.254  0.00  0.00    +0.000 C 
ATOM      3  O   UNL     1       5.007   5.450  19.288  0.00  0.00    +0.000 OA
BRANCH   2   4
ATOM      4  O   UNL     1       5.034   6.003  17.059  0.00  0.00    +0.000 OA
BRANCH   4   5
ATOM      5  C   UNL     1       4.849   5.015  16.035  0.00  0.00    +0.000 C 
BRANCH   5   6
ATOM      6  C   UNL     1       5.765   5.186  14.829  0.00  0.00    +0.000 C 
BRANCH   6   7
ATOM      7  C   UNL     1       6.287   3.830  14.341  0.00  0.00    +0.000 C 
BRANCH   7   9
ATOM      8  C   UNL     1       5.024   3.424  12.198  0.00  0.00    +0.000 C 
ATOM      9  C   UNL     1       6.370   3.776  12.816  0.00  0.00    +0.000 C 
ENDBRANCH   7   9
ENDBRANCH   6   7
ENDBRANCH   5   6
ENDBRANCH   4   5
ENDBRANCH   2   4
ENDBRANCH   1   2
BRANCH   1  10
ATOM     10  N   UNL     1       2.555   7.172  19.086  0.00  0.00    +0.000 NA
ATOM     11  H   UNL     1       3.313   7.360  19.751  0.00  0.00    +0.000 HD
BRANCH  10  12
ATOM     12  S   UNL     1       1.837   8.583  18.506  0.00  0.00    +0.000 S 
ATOM     13  O   UNL     1       2.844   9.520  18.096  0.00  0.00    +0.000 OA
ATOM     14  O   UNL     1       0.791   8.197  17.577  0.00  0.00    +0.000 OA
BRANCH  12  15
ATOM     15  C   UNL     1       1.027   9.266  19.948  0.00  0.00    +0.000 A 
ATOM     16  C   UNL     1       1.329   8.620  21.150  0.00  0.00    +0.000 A 
ATOM     17  C   UNL     1       0.676   8.996  22.307  0.00  0.00    +0.000 A 
ATOM     18  C   UNL     1      -0.220  10.061  22.265  0.00  0.00    +0.000 A 
ATOM     19  C   UNL     1      -0.462  10.862  21.118  0.00  0.00    +0.000 A 
ATOM     20  C   UNL     1      -1.292  12.052  21.140  0.00  0.00    +0.000 A 
ATOM     21  C   UNL     1      -1.520  12.680  19.894  0.00  0.00    +0.000 A 
ATOM     22  C   UNL     1      -0.970  12.212  18.704  0.00  0.00    +0.000 A 
ATOM     23  C   UNL     1      -0.137  11.105  18.710  0.00  0.00    +0.000 A 
ATOM     24  C   UNL     1       0.161  10.406  19.903  0.00  0.00    +0.000 A 
BRANCH  20  25
ATOM     25  N   UNL     1      -1.844  12.641  22.280  0.00  0.00    +0.000 N 
ATOM     26  C   UNL     1      -3.214  12.374  22.730  0.00  0.00    +0.000 C 
ATOM     27  C   UNL     1      -1.169  13.659  23.086  0.00  0.00    +0.000 C 
ENDBRANCH  20  25
ENDBRANCH  12  15
ENDBRANCH  10  12
ENDBRANCH   1  10
BRANCH   1  28
ATOM     28  C   UNL     1       2.116   4.796  18.414  0.00  0.00    +0.000 C 
BRANCH  28  29
ATOM     29  C   UNL     1       1.693   4.622  19.872  0.00  0.00    +0.000 C 
BRANCH  29  30
ATOM     30  C   UNL     1       2.520   3.506  20.494  0.00  0.00    +0.000 C 
BRANCH  30  31
ATOM     31  N   UNL     1       2.595   2.406  19.544  0.00  0.00    +0.000 NA
ATOM     32  C   UNL     1       3.755   1.951  19.264  0.00  0.00    +0.000 C 
ATOM     33  N   UNL     1       4.954   2.331  19.746  0.00  0.00    +0.000 N 
ATOM     34  N   UNL     1       3.875   0.986  18.331  0.00  0.00    +0.000 N 
ATOM     35  H   UNL     1       4.932   2.907  20.583  0.00  0.00    +0.000 HD
ATOM     36  H   UNL     1       5.686   1.634  19.768  0.00  0.00    +0.000 HD
ATOM     37  H   UNL     1       2.962   0.604  18.093  0.00  0.00    +0.000 HD
ATOM     38  H   UNL     1       4.574   0.281  18.474  0.00  0.00    +0.000 HD
ENDBRANCH  30  31
ENDBRANCH  29  30
ENDBRANCH  28  29
ENDBRANCH   1  28
TORSDOF 14
ENDMDL
MODEL 4
REMARK VINA RESULT:      -7.4      3.607      5.970
REMARK  Name = 
REMARK  17 active torsions:
REMARK  status: ('A' for Active; 'I' for Inactive)
REMARK    1  A    between atoms: C_1  and  C_2
REMARK    2  A    between atoms: C_2  and  C_3
REMARK    3  A    between atoms: C_3  and  C_4
REMARK    4  A    between atoms: C_4  and  C_5
REMARK    5  A    between atoms: C_5  and  O_6
REMARK    6  A    between atoms: O_6  and  C_7
REMARK    7  A    between atoms: C_7  and  C_9
REMARK    8  A    between atoms: C_9  and  C_10
REMARK    9  A    between atoms: C_9  and  N_17
REMARK   10  A    between atoms: C_10  and  C_11
REMARK   11  A    between atoms: C_11  and  C_12
REMARK   12  A    between atoms: C_12  and  N_13
REMARK   13  A    between atoms: N_17  and  S_18
REMARK   14  A    between atoms: S_18  and  C_21
REMARK   15  A    between atoms: C_26  and  N_27
REMARK   16  A    between atoms: N_27  and  C_28
REMARK   17  A    between atoms: N_27  and  C_29
REMARK                            x       y       z     vdW  Elec       q    Type
REMARK                         _______ _______ _______ _____ _____    ______ ____
ROOT
ATOM      1  C   UNL     1       4.251   4.844  17.075  0.00  0.00    +0.000 C 
ENDROOT
BRANCH   1   2
ATOM      2  C   UNL     1       5.568   4.354  17.701  0.00  0.00    +0.000 C 
ATOM      3  O   UNL     1       5.744   4.163  18.898  0.00  0.00    +0.000 OA
BRANCH   2   4
ATOM      4  O   UNL     1       6.555   4.325  16.755  0.00  0.00    +0.000 OA
BRANCH   4   5
ATOM      5  C   UNL     1       6.179   3.798  15.475  0.00  0.00    +0.000 C 
BRANCH   5   6
ATOM      6  C   UNL     1       6.816   4.517  14.291  0.00  0.00    +0.000 C 
BRANCH   6   7
ATOM      7  C   UNL     1       6.445   3.835  12.971  0.00  0.00    +0.000 C 
BRANCH   7   9
ATOM      8  C   UNL     1       4.527   3.232  11.450  0.00  0.00    +0.000 C 
ATOM      9  C   UNL     1       4.941   3.582  12.872  0.00  0.00    +0.000 C 
ENDBRANCH   7   9
ENDBRANCH   6   7
ENDBRANCH   5   6
ENDBRANCH   4   5
ENDBRANCH   2   4
ENDBRANCH   1   2
BRANCH   1  10
ATOM     10  N   UNL     1       3.826   6.136  17.686  0.00  0.00    +0.000 NA
ATOM     11  H   UNL     1       3.673   6.851  16.968  0.00  0.00    +0.000 HD
BRANCH  10  12
ATOM     12  S   UNL     1       2.653   6.172  18.898  0.00  0.00    +0.000 S 
ATOM     13  O   UNL     1       1.539   5.343  18.534  0.00  0.00    +0.000 OA
ATOM     14  O   UNL     1       3.322   5.962  20.168  0.00  0.00    +0.000 OA
BRANCH  12  15
ATOM     15  C   UNL     1       2.084   7.869  18.882  0.00  0.00    +0.000 A 
ATOM     16  C   UNL     1       2.385   8.575  17.715  0.00  0.00    +0.000 A 
ATOM     17  C   UNL     1       2.089   9.922  17.639  0.00  0.00    +0.000 A 
ATOM     18  C   UNL     1       1.431  10.532  18.704  0.00  0.00    +0.000 A 
ATOM     19  C   UNL     1       0.957   9.848  19.855  0.00  0.00    +0.000 A 
ATOM     20  C   UNL     1       0.151  10.481  20.881  0.00  0.00    +0.000 A 
ATOM     21  C   UNL     1      -0.152   9.692  22.015  0.00  0.00    +0.000 A 
ATOM     22  C   UNL     1       0.271   8.373  22.149  0.00  0.00    +0.000 A 
ATOM     23  C   UNL     1       0.996   7.768  21.134  0.00  0.00    +0.000 A 
ATOM     24  C   UNL     1       1.347   8.465  19.955  0.00  0.00    +0.000 A 
BRANCH  20  25
ATOM     25  N   UNL     1      -0.375  11.774  20.824  0.00  0.00    +0.000 N 
ATOM     26  C   UNL     1       0.338  12.946  21.341  0.00  0.00    +0.000 C 
ATOM     27  C   UNL     1      -1.721  12.091  20.347  0.00  0.00    +0.000 C 
ENDBRANCH  20  25
ENDBRANCH  12  15
ENDBRANCH  10  12
ENDBRANCH   1  10
BRANCH   1  28
ATOM     28  C   UNL     1       3.193   3.756  17.209  0.00  0.00    +0.000 C 
BRANCH  28  29
ATOM     29  C   UNL     1       3.715   2.467  17.843  0.00  0.00    +0.000 C 
BRANCH  29  30
ATOM     30  C   UNL     1       2.660   1.925  18.796  0.00  0.00    +0.000 C 
BRANCH  30  31
ATOM     31  N   UNL     1       2.959   2.411  20.136  0.00  0.00    +0.000 NA
ATOM     32  C   UNL     1       1.991   2.898  20.812  0.00  0.00    +0.000 C 
ATOM     33  N   UNL     1       0.692   3.011  20.473  0.00  0.00    +0.000 N 
ATOM     34  N   UNL     1       2.239   3.431  22.025  0.00  0.00    +0.000 N 
ATOM     35  H   UNL     1       0.395   2.464  19.670  0.00  0.00    +0.000 HD
ATOM     36  H   UNL     1       0.016   3.004  21.224  0.00  0.00    +0.000 HD
ATOM     37  H   UNL     1       3.182   3.199  22.330  0.00  0.00    +0.000 HD
ATOM     38  H   UNL     1       1.549   3.304  22.742  0.00  0.00    +0.000 HD
ENDBRANCH  30  31
ENDBRANCH  29  30
ENDBRANCH  28  29
ENDBRANCH   1  28
TORSDOF 14
ENDMDL
MODEL 5
REMARK VINA RESULT:      -7.4      3.033      5.536
REMARK  Name = 
REMARK  17 active torsions:
REMARK  status: ('A' for Active; 'I' for Inactive)
REMARK    1  A    between atoms: C_1  and  C_2
REMARK    2  A    between atoms: C_2  and  C_3
REMARK    3  A    between atoms: C_3  and  C_4
REMARK    4  A    between atoms: C_4  and  C_5
REMARK    5  A    between atoms: C_5  and  O_6
REMARK    6  A    between atoms: O_6  and  C_7
REMARK    7  A    between atoms: C_7  and  C_9
REMARK    8  A    between atoms: C_9  and  C_10
REMARK    9  A    between atoms: C_9  and  N_17
REMARK   10  A    between atoms: C_10  and  C_11
REMARK   11  A    between atoms: C_11  and  C_12
REMARK   12  A    between atoms: C_12  and  N_13
REMARK   13  A    between atoms: N_17  and  S_18
REMARK   14  A    between atoms: S_18  and  C_21
REMARK   15  A    between atoms: C_26  and  N_27
REMARK   16  A    between atoms: N_27  and  C_28
REMARK   17  A    between atoms: N_27  and  C_29
REMARK                            x       y       z     vdW  Elec       q    Type
REMARK                         _______ _______ _______ _____ _____    ______ ____
ROOT
ATOM      1  C   UNL     1       2.624   6.297  17.875  0.00  0.00    +0.000 C 
ENDROOT
BRANCH   1   2
ATOM      2  C   UNL     1       4.087   6.197  17.412  0.00  0.00    +0.000 C 
ATOM      3  O   UNL     1       4.569   6.828  16.480  0.00  0.00    +0.000 OA
BRANCH   2   4
ATOM      4  O   UNL     1       4.722   5.185  18.077  0.00  0.00    +0.000 OA
BRANCH   4   5
ATOM      5  C   UNL     1       5.817   5.577  18.915  0.00  0.00    +0.000 C 
BRANCH   5   6
ATOM      6  C   UNL     1       7.182   5.497  18.241  0.00  0.00    +0.000 C 
BRANCH   6   7
ATOM      7  C   UNL     1       8.023   6.738  18.555  0.00  0.00    +0.000 C 
BRANCH   7   9
ATOM      8  C   UNL     1       8.354   9.190  18.073  0.00  0.00    +0.000 C 
ATOM      9  C   UNL     1       7.682   7.900  17.624  0.00  0.00    +0.000 C 
ENDBRANCH   7   9
ENDBRANCH   6   7
ENDBRANCH   5   6
ENDBRANCH   4   5
ENDBRANCH   2   4
ENDBRANCH   1   2
BRANCH   1  10
ATOM     10  N   UNL     1       2.449   7.429  18.830  0.00  0.00    +0.000 NA
ATOM     11  H   UNL     1       3.320   7.624  19.334  0.00  0.00    +0.000 HD
BRANCH  10  12
ATOM     12  S   UNL     1       1.640   8.833  18.363  0.00  0.00    +0.000 S 
ATOM     13  O   UNL     1       2.581   9.823  17.923  0.00  0.00    +0.000 OA
ATOM     14  O   UNL     1       0.545   8.445  17.495  0.00  0.00    +0.000 OA
BRANCH  12  15
ATOM     15  C   UNL     1       0.914   9.426  19.887  0.00  0.00    +0.000 A 
ATOM     16  C   UNL     1       1.288   8.714  21.029  0.00  0.00    +0.000 A 
ATOM     17  C   UNL     1       0.703   9.018  22.242  0.00  0.00    +0.000 A 
ATOM     18  C   UNL     1      -0.198  10.078  22.314  0.00  0.00    +0.000 A 
ATOM     19  C   UNL     1      -0.510  10.942  21.232  0.00  0.00    +0.000 A 
ATOM     20  C   UNL     1      -1.342  12.122  21.371  0.00  0.00    +0.000 A 
ATOM     21  C   UNL     1      -1.644  12.819  20.179  0.00  0.00    +0.000 A 
ATOM     22  C   UNL     1      -1.164  12.424  18.933  0.00  0.00    +0.000 A 
ATOM     23  C   UNL     1      -0.328  11.324  18.827  0.00  0.00    +0.000 A 
ATOM     24  C   UNL     1       0.043  10.560  19.958  0.00  0.00    +0.000 A 
BRANCH  20  25
ATOM     25  N   UNL     1      -1.828  12.641  22.573  0.00  0.00    +0.000 N 
ATOM     26  C   UNL     1      -1.123  13.677  23.335  0.00  0.00    +0.000 C 
ATOM     27  C   UNL     1      -3.023  12.146  23.257  0.00  0.00    +0.000 C 
ENDBRANCH  20  25
ENDBRANCH  12  15
ENDBRANCH  10  12
ENDBRANCH   1  10
BRANCH   1  28
ATOM     28  C   UNL     1       2.189   4.961  18.463  0.00  0.00    +0.000 C 
BRANCH  28  29
ATOM     29  C   UNL     1       2.228   4.921  19.991  0.00  0.00    +0.000 C 
BRANCH  29  30
ATOM     30  C   UNL     1       2.257   3.468  20.444  0.00  0.00    +0.000 C 
BRANCH  30  31
ATOM     31  N   UNL     1       2.517   2.630  19.283  0.00  0.00    +0.000 NA
ATOM     32  C   UNL     1       3.700   2.166  19.147  0.00  0.00    +0.000 C 
ATOM     33  N   UNL     1       4.768   2.321  19.952  0.00  0.00    +0.000 N 
ATOM     34  N   UNL     1       4.003   1.452  18.045  0.00  0.00    +0.000 N 
ATOM     35  H   UNL     1       4.573   2.675  20.885  0.00  0.00    +0.000 HD
ATOM     36  H   UNL     1       5.460   1.583  19.950  0.00  0.00    +0.000 HD
ATOM     37  H   UNL     1       3.158   1.214  17.531  0.00  0.00    +0.000 HD
ATOM     38  H   UNL     1       4.635   0.680  18.148  0.00  0.00    +0.000 HD
ENDBRANCH  30  31
ENDBRANCH  29  30
ENDBRANCH  28  29
ENDBRANCH   1  28
TORSDOF 14
ENDMDL
MODEL 6
REMARK VINA RESULT:      -7.3      0.796      1.143
REMARK  Name = 
REMARK  17 active torsions:
REMARK  status: ('A' for Active; 'I' for Inactive)
REMARK    1  A    between atoms: C_1  and  C_2
REMARK    2  A    between atoms: C_2  and  C_3
REMARK    3  A    between atoms: C_3  and  C_4
REMARK    4  A    between atoms: C_4  and  C_5
REMARK    5  A    between atoms: C_5  and  O_6
REMARK    6  A    between atoms: O_6  and  C_7
REMARK    7  A    between atoms: C_7  and  C_9
REMARK    8  A    between atoms: C_9  and  C_10
REMARK    9  A    between atoms: C_9  and  N_17
REMARK   10  A    between atoms: C_10  and  C_11
REMARK   11  A    between atoms: C_11  and  C_12
REMARK   12  A    between atoms: C_12  and  N_13
REMARK   13  A    between atoms: N_17  and  S_18
REMARK   14  A    between atoms: S_18  and  C_21
REMARK   15  A    between atoms: C_26  and  N_27
REMARK   16  A    between atoms: N_27  and  C_28
REMARK   17  A    between atoms: N_27  and  C_29
REMARK                            x       y       z     vdW  Elec       q    Type
REMARK                         _______ _______ _______ _____ _____    ______ ____
ROOT
ATOM      1  C   UNL     1       6.361   5.392  17.174  0.00  0.00    +0.000 C 
ENDROOT
BRANCH   1   2
ATOM      2  C   UNL     1       7.296   6.387  17.885  0.00  0.00    +0.000 C 
ATOM      3  O   UNL     1       8.033   6.105  18.821  0.00  0.00    +0.000 OA
BRANCH   2   4
ATOM      4  O   UNL     1       7.059   7.656  17.435  0.00  0.00    +0.000 OA
BRANCH   4   5
ATOM      5  C   UNL     1       8.167   8.564  17.514  0.00  0.00    +0.000 C 
BRANCH   5   6
ATOM      6  C   UNL     1       8.520   8.999  18.931  0.00  0.00    +0.000 C 
BRANCH   6   7
ATOM      7  C   UNL     1       9.476  10.196  18.915  0.00  0.00    +0.000 C 
BRANCH   7   9
ATOM      8  C   UNL     1      10.075  12.293  17.651  0.00  0.00    +0.000 C 
ATOM      9  C   UNL     1       8.967  11.310  18.001  0.00  0.00    +0.000 C 
ENDBRANCH   7   9
ENDBRANCH   6   7
ENDBRANCH   5   6
ENDBRANCH   4   5
ENDBRANCH   2   4
ENDBRANCH   1   2
BRANCH   1  10
ATOM     10  N   UNL     1       5.805   4.406  18.144  0.00  0.00    +0.000 NA
ATOM     11  H   UNL     1       5.984   4.698  19.110  0.00  0.00    +0.000 HD
BRANCH  10  12
ATOM     12  S   UNL     1       4.257   3.770  17.934  0.00  0.00    +0.000 S 
ATOM     13  O   UNL     1       3.776   4.062  16.614  0.00  0.00    +0.000 OA
ATOM     14  O   UNL     1       4.275   2.399  18.407  0.00  0.00    +0.000 OA
BRANCH  12  15
ATOM     15  C   UNL     1       3.258   4.707  19.086  0.00  0.00    +0.000 A 
ATOM     16  C   UNL     1       2.877   4.007  20.233  0.00  0.00    +0.000 A 
ATOM     17  C   UNL     1       2.016   4.599  21.136  0.00  0.00    +0.000 A 
ATOM     18  C   UNL     1       1.601   5.910  20.918  0.00  0.00    +0.000 A 
ATOM     19  C   UNL     1       2.066   6.735  19.860  0.00  0.00    +0.000 A 
ATOM     20  C   UNL     1       1.727   8.140  19.739  0.00  0.00    +0.000 A 
ATOM     21  C   UNL     1       2.183   8.796  18.573  0.00  0.00    +0.000 A 
ATOM     22  C   UNL     1       2.935   8.154  17.593  0.00  0.00    +0.000 A 
ATOM     23  C   UNL     1       3.294   6.825  17.751  0.00  0.00    +0.000 A 
ATOM     24  C   UNL     1       2.895   6.078  18.884  0.00  0.00    +0.000 A 
BRANCH  20  25
ATOM     25  N   UNL     1       1.030   8.896  20.685  0.00  0.00    +0.000 N 
ATOM     26  C   UNL     1       1.445   8.992  22.088  0.00  0.00    +0.000 C 
ATOM     27  C   UNL     1      -0.233   9.584  20.417  0.00  0.00    +0.000 C 
ENDBRANCH  20  25
ENDBRANCH  12  15
ENDBRANCH  10  12
ENDBRANCH   1  10
BRANCH   1  28
ATOM     28  C   UNL     1       7.111   4.728  16.026  0.00  0.00    +0.000 C 
BRANCH  28  29
ATOM     29  C   UNL     1       6.536   5.053  14.648  0.00  0.00    +0.000 C 
BRANCH  29  30
ATOM     30  C   UNL     1       6.384   3.759  13.862  0.00  0.00    +0.000 C 
BRANCH  30  31
ATOM     31  N   UNL     1       5.221   3.882  12.995  0.00  0.00    +0.000 NA
ATOM     32  C   UNL     1       5.116   3.049  12.032  0.00  0.00    +0.000 C 
ATOM     33  N   UNL     1       5.932   2.029  11.701  0.00  0.00    +0.000 N 
ATOM     34  N   UNL     1       4.098   3.178  11.159  0.00  0.00    +0.000 N 
ATOM     35  H   UNL     1       6.602   1.750  12.411  0.00  0.00    +0.000 HD
ATOM     36  H   UNL     1       5.516   1.242  11.222  0.00  0.00    +0.000 HD
ATOM     37  H   UNL     1       3.412   3.845  11.507  0.00  0.00    +0.000 HD
ATOM     38  H   UNL     1       3.684   2.339  10.796  0.00  0.00    +0.000 HD
ENDBRANCH  30  31
ENDBRANCH  29  30
ENDBRANCH  28  29
ENDBRANCH   1  28
TORSDOF 14
ENDMDL
MODEL 7
REMARK VINA RESULT:      -7.3      3.738      6.097
REMARK  Name = 
REMARK  17 active torsions:
REMARK  status: ('A' for Active; 'I' for Inactive)
REMARK    1  A    between atoms: C_1  and  C_2
REMARK    2  A    between atoms: C_2  and  C_3
REMARK    3  A    between atoms: C_3  and  C_4
REMARK    4  A    between atoms: C_4  and  C_5
REMARK    5  A    between atoms: C_5  and  O_6
REMARK    6  A    between atoms: O_6  and  C_7
REMARK    7  A    between atoms: C_7  and  C_9
REMARK    8  A    between atoms: C_9  and  C_10
REMARK    9  A    between atoms: C_9  and  N_17
REMARK   10  A    between atoms: C_10  and  C_11
REMARK   11  A    between atoms: C_11  and  C_12
REMARK   12  A    between atoms: C_12  and  N_13
REMARK   13  A    between atoms: N_17  and  S_18
REMARK   14  A    between atoms: S_18  and  C_21
REMARK   15  A    between atoms: C_26  and  N_27
REMARK   16  A    between atoms: N_27  and  C_28
REMARK   17  A    between atoms: N_27  and  C_29
REMARK                            x       y       z     vdW  Elec       q    Type
REMARK                         _______ _______ _______ _____ _____    ______ ____
ROOT
ATOM      1  C   UNL     1       2.875   6.300  18.340  0.00  0.00    +0.000 C 
ENDROOT
BRANCH   1   2
ATOM      2  C   UNL     1       4.357   5.896  18.425  0.00  0.00    +0.000 C 
ATOM      3  O   UNL     1       4.974   5.716  19.468  0.00  0.00    +0.000 OA
BRANCH   2   4
ATOM      4  O   UNL     1       4.926   5.933  17.182  0.00  0.00    +0.000 OA
BRANCH   4   5
ATOM      5  C   UNL     1       5.727   4.798  16.826  0.00  0.00    +0.000 C 
BRANCH   5   6
ATOM      6  C   UNL     1       5.266   4.079  15.564  0.00  0.00    +0.000 C 
BRANCH   6   7
ATOM      7  C   UNL     1       5.997   4.616  14.329  0.00  0.00    +0.000 C 
BRANCH   7   9
ATOM      8  C   UNL     1       7.001   3.967  12.110  0.00  0.00    +0.000 C 
ATOM      9  C   UNL     1       5.985   3.605  13.184  0.00  0.00    +0.000 C 
ENDBRANCH   7   9
ENDBRANCH   6   7
ENDBRANCH   5   6
ENDBRANCH   4   5
ENDBRANCH   2   4
ENDBRANCH   1   2
BRANCH   1  10
ATOM     10  N   UNL     1       2.615   7.522  19.154  0.00  0.00    +0.000 NA
ATOM     11  H   UNL     1       3.468   7.841  19.624  0.00  0.00    +0.000 HD
BRANCH  10  12
ATOM     12  S   UNL     1       1.703   8.795  18.528  0.00  0.00    +0.000 S 
ATOM     13  O   UNL     1       2.568   9.828  18.033  0.00  0.00    +0.000 OA
ATOM     14  O   UNL     1       0.689   8.228  17.659  0.00  0.00    +0.000 OA
BRANCH  12  15
ATOM     15  C   UNL     1       0.856   9.450  19.962  0.00  0.00    +0.000 A 
ATOM     16  C   UNL     1       1.180   8.825  21.169  0.00  0.00    +0.000 A 
ATOM     17  C   UNL     1       0.505   9.178  22.320  0.00  0.00    +0.000 A 
ATOM     18  C   UNL     1      -0.438  10.202  22.267  0.00  0.00    +0.000 A 
ATOM     19  C   UNL     1      -0.710  10.984  21.114  0.00  0.00    +0.000 A 
ATOM     20  C   UNL     1      -1.592  12.136  21.124  0.00  0.00    +0.000 A 
ATOM     21  C   UNL     1      -1.841  12.745  19.873  0.00  0.00    +0.000 A 
ATOM     22  C   UNL     1      -1.265  12.295  18.688  0.00  0.00    +0.000 A 
ATOM     23  C   UNL     1      -0.383  11.227  18.706  0.00  0.00    +0.000 A 
ATOM     24  C   UNL     1      -0.060  10.549  19.905  0.00  0.00    +0.000 A 
BRANCH  20  25
ATOM     25  N   UNL     1      -2.176  12.706  22.257  0.00  0.00    +0.000 N 
ATOM     26  C   UNL     1      -3.613  12.622  22.540  0.00  0.00    +0.000 C 
ATOM     27  C   UNL     1      -1.454  13.533  23.225  0.00  0.00    +0.000 C 
ENDBRANCH  20  25
ENDBRANCH  12  15
ENDBRANCH  10  12
ENDBRANCH   1  10
BRANCH   1  28
ATOM     28  C   UNL     1       2.007   5.120  18.759  0.00  0.00    +0.000 C 
BRANCH  28  29
ATOM     29  C   UNL     1       1.642   4.186  17.605  0.00  0.00    +0.000 C 
BRANCH  29  30
ATOM     30  C   UNL     1       2.064   2.770  17.967  0.00  0.00    +0.000 C 
BRANCH  30  31
ATOM     31  N   UNL     1       3.106   2.846  18.980  0.00  0.00    +0.000 NA
ATOM     32  C   UNL     1       3.945   1.883  19.033  0.00  0.00    +0.000 C 
ATOM     33  N   UNL     1       4.026   0.787  18.254  0.00  0.00    +0.000 N 
ATOM     34  N   UNL     1       4.876   1.875  20.007  0.00  0.00    +0.000 N 
ATOM     35  H   UNL     1       3.492   0.817  17.390  0.00  0.00    +0.000 HD
ATOM     36  H   UNL     1       4.940   0.371  18.136  0.00  0.00    +0.000 HD
ATOM     37  H   UNL     1       4.902   2.773  20.484  0.00  0.00    +0.000 HD
ATOM     38  H   UNL     1       5.787   1.522  19.780  0.00  0.00    +0.000 HD
ENDBRANCH  30  31
ENDBRANCH  29  30
ENDBRANCH  28  29
ENDBRANCH   1  28
TORSDOF 14
ENDMDL
MODEL 8
REMARK VINA RESULT:      -7.3      2.967      5.340
REMARK  Name = 
REMARK  17 active torsions:
REMARK  status: ('A' for Active; 'I' for Inactive)
REMARK    1  A    between atoms: C_1  and  C_2
REMARK    2  A    between atoms: C_2  and  C_3
REMARK    3  A    between atoms: C_3  and  C_4
REMARK    4  A    between atoms: C_4  and  C_5
REMARK    5  A    between atoms: C_5  and  O_6
REMARK    6  A    between atoms: O_6  and  C_7
REMARK    7  A    between atoms: C_7  and  C_9
REMARK    8  A    between atoms: C_9  and  C_10
REMARK    9  A    between atoms: C_9  and  N_17
REMARK   10  A    between atoms: C_10  and  C_11
REMARK   11  A    between atoms: C_11  and  C_12
REMARK   12  A    between atoms: C_12  and  N_13
REMARK   13  A    between atoms: N_17  and  S_18
REMARK   14  A    between atoms: S_18  and  C_21
REMARK   15  A    between atoms: C_26  and  N_27
REMARK   16  A    between atoms: N_27  and  C_28
REMARK   17  A    between atoms: N_27  and  C_29
REMARK                            x       y       z     vdW  Elec       q    Type
REMARK                         _______ _______ _______ _____ _____    ______ ____
ROOT
ATOM      1  C   UNL     1       2.821   6.213  18.233  0.00  0.00    +0.000 C 
ENDROOT
BRANCH   1   2
ATOM      2  C   UNL     1       4.039   5.735  17.424  0.00  0.00    +0.000 C 
ATOM      3  O   UNL     1       4.164   4.615  16.944  0.00  0.00    +0.000 OA
BRANCH   2   4
ATOM      4  O   UNL     1       5.029   6.678  17.465  0.00  0.00    +0.000 OA
BRANCH   4   5
ATOM      5  C   UNL     1       6.308   6.224  17.927  0.00  0.00    +0.000 C 
BRANCH   5   6
ATOM      6  C   UNL     1       7.493   6.956  17.307  0.00  0.00    +0.000 C 
BRANCH   6   7
ATOM      7  C   UNL     1       7.449   8.451  17.640  0.00  0.00    +0.000 C 
BRANCH   7   9
ATOM      8  C   UNL     1       9.016  10.301  18.329  0.00  0.00    +0.000 C 
ATOM      9  C   UNL     1       8.600   8.856  18.560  0.00  0.00    +0.000 C 
ENDBRANCH   7   9
ENDBRANCH   6   7
ENDBRANCH   5   6
ENDBRANCH   4   5
ENDBRANCH   2   4
ENDBRANCH   1   2
BRANCH   1  10
ATOM     10  N   UNL     1       2.987   7.636  18.645  0.00  0.00    +0.000 NA
ATOM     11  H   UNL     1       3.957   7.944  18.524  0.00  0.00    +0.000 HD
BRANCH  10  12
ATOM     12  S   UNL     1       1.869   8.807  18.171  0.00  0.00    +0.000 S 
ATOM     13  O   UNL     1       2.545   9.925  17.577  0.00  0.00    +0.000 OA
ATOM     14  O   UNL     1       0.809   8.136  17.443  0.00  0.00    +0.000 OA
BRANCH  12  15
ATOM     15  C   UNL     1       1.166   9.367  19.718  0.00  0.00    +0.000 A 
ATOM     16  C   UNL     1       1.582   8.651  20.843  0.00  0.00    +0.000 A 
ATOM     17  C   UNL     1       1.019   8.929  22.073  0.00  0.00    +0.000 A 
ATOM     18  C   UNL     1       0.097   9.969  22.177  0.00  0.00    +0.000 A 
ATOM     19  C   UNL     1      -0.258  10.838  21.112  0.00  0.00    +0.000 A 
ATOM     20  C   UNL     1      -1.111  11.998  21.284  0.00  0.00    +0.000 A 
ATOM     21  C   UNL     1      -1.455  12.702  20.107  0.00  0.00    +0.000 A 
ATOM     22  C   UNL     1      -0.996  12.330  18.846  0.00  0.00    +0.000 A 
ATOM     23  C   UNL     1      -0.140  11.250  18.708  0.00  0.00    +0.000 A 
ATOM     24  C   UNL     1       0.273  10.482  19.822  0.00  0.00    +0.000 A 
BRANCH  20  25
ATOM     25  N   UNL     1      -1.580  12.494  22.503  0.00  0.00    +0.000 N 
ATOM     26  C   UNL     1      -2.732  11.918  23.205  0.00  0.00    +0.000 C 
ATOM     27  C   UNL     1      -1.054  13.691  23.160  0.00  0.00    +0.000 C 
ENDBRANCH  20  25
ENDBRANCH  12  15
ENDBRANCH  10  12
ENDBRANCH   1  10
BRANCH   1  28
ATOM     28  C   UNL     1       2.605   5.280  19.418  0.00  0.00    +0.000 C 
BRANCH  28  29
ATOM     29  C   UNL     1       1.353   4.411  19.295  0.00  0.00    +0.000 C 
BRANCH  29  30
ATOM     30  C   UNL     1       1.774   2.951  19.215  0.00  0.00    +0.000 C 
BRANCH  30  31
ATOM     31  N   UNL     1       3.011   2.788  19.965  0.00  0.00    +0.000 NA
ATOM     32  C   UNL     1       3.974   2.181  19.384  0.00  0.00    +0.000 C 
ATOM     33  N   UNL     1       4.026   1.674  18.137  0.00  0.00    +0.000 N 
ATOM     34  N   UNL     1       5.108   1.939  20.070  0.00  0.00    +0.000 N 
ATOM     35  H   UNL     1       3.296   1.984  17.502  0.00  0.00    +0.000 HD
ATOM     36  H   UNL     1       4.934   1.625  17.696  0.00  0.00    +0.000 HD
ATOM     37  H   UNL     1       5.113   2.458  20.945  0.00  0.00    +0.000 HD
ATOM     38  H   UNL     1       5.977   1.995  19.572  0.00  0.00    +0.000 HD
ENDBRANCH  30  31
ENDBRANCH  29  30
ENDBRANCH  28  29
ENDBRANCH   1  28
TORSDOF 14
ENDMDL
MODEL 9
REMARK VINA RESULT:      -7.2      3.670      6.075
REMARK  Name = 
REMARK  17 active torsions:
REMARK  status: ('A' for Active; 'I' for Inactive)
REMARK    1  A    between atoms: C_1  and  C_2
REMARK    2  A    between atoms: C_2  and  C_3
REMARK    3  A    between atoms: C_3  and  C_4
REMARK    4  A    between atoms: C_4  and  C_5
REMARK    5  A    between atoms: C_5  and  O_6
REMARK    6  A    between atoms: O_6  and  C_7
REMARK    7  A    between atoms: C_7  and  C_9
REMARK    8  A    between atoms: C_9  and  C_10
REMARK    9  A    between atoms: C_9  and  N_17
REMARK   10  A    between atoms: C_10  and  C_11
REMARK   11  A    between atoms: C_11  and  C_12
REMARK   12  A    between atoms: C_12  and  N_13
REMARK   13  A    between atoms: N_17  and  S_18
REMARK   14  A    between atoms: S_18  and  C_21
REMARK   15  A    between atoms: C_26  and  N_27
REMARK   16  A    between atoms: N_27  and  C_28
REMARK   17  A    between atoms: N_27  and  C_29
REMARK                            x       y       z     vdW  Elec       q    Type
REMARK                         _______ _______ _______ _____ _____    ______ ____
ROOT
ATOM      1  C   UNL     1       4.186   5.143  17.446  0.00  0.00    +0.000 C 
ENDROOT
BRANCH   1   2
ATOM      2  C   UNL     1       5.269   5.750  16.538  0.00  0.00    +0.000 C 
ATOM      3  O   UNL     1       5.123   6.753  15.851  0.00  0.00    +0.000 OA
BRANCH   2   4
ATOM      4  O   UNL     1       6.352   4.917  16.477  0.00  0.00    +0.000 OA
BRANCH   4   5
ATOM      5  C   UNL     1       6.302   3.897  15.470  0.00  0.00    +0.000 C 
BRANCH   5   6
ATOM      6  C   UNL     1       5.597   4.321  14.186  0.00  0.00    +0.000 C 
BRANCH   6   7
ATOM      7  C   UNL     1       6.329   3.781  12.954  0.00  0.00    +0.000 C 
BRANCH   7   9
ATOM      8  C   UNL     1       5.806   1.823  11.455  0.00  0.00    +0.000 C 
ATOM      9  C   UNL     1       5.355   3.196  11.932  0.00  0.00    +0.000 C 
ENDBRANCH   7   9
ENDBRANCH   6   7
ENDBRANCH   5   6
ENDBRANCH   4   5
ENDBRANCH   2   4
ENDBRANCH   1   2
BRANCH   1  10
ATOM     10  N   UNL     1       3.924   6.027  18.618  0.00  0.00    +0.000 NA
ATOM     11  H   UNL     1       4.370   6.943  18.495  0.00  0.00    +0.000 HD
BRANCH  10  12
ATOM     12  S   UNL     1       2.379   6.141  19.283  0.00  0.00    +0.000 S 
ATOM     13  O   UNL     1       1.445   5.383  18.500  0.00  0.00    +0.000 OA
ATOM     14  O   UNL     1       2.492   5.893  20.708  0.00  0.00    +0.000 OA
BRANCH  12  15
ATOM     15  C   UNL     1       1.963   7.870  19.086  0.00  0.00    +0.000 A 
ATOM     16  C   UNL     1       2.339   8.427  17.861  0.00  0.00    +0.000 A 
ATOM     17  C   UNL     1       2.164   9.779  17.646  0.00  0.00    +0.000 A 
ATOM     18  C   UNL     1       1.549  10.549  18.630  0.00  0.00    +0.000 A 
ATOM     19  C   UNL     1       1.003  10.028  19.832  0.00  0.00    +0.000 A 
ATOM     20  C   UNL     1       0.242  10.829  20.773  0.00  0.00    +0.000 A 
ATOM     21  C   UNL     1      -0.144  10.188  21.972  0.00  0.00    +0.000 A 
ATOM     22  C   UNL     1       0.160   8.857  22.246  0.00  0.00    +0.000 A 
ATOM     23  C   UNL     1       0.841   8.093  21.313  0.00  0.00    +0.000 A 
ATOM     24  C   UNL     1       1.267   8.634  20.078  0.00  0.00    +0.000 A 
BRANCH  20  25
ATOM     25  N   UNL     1      -0.167  12.150  20.576  0.00  0.00    +0.000 N 
ATOM     26  C   UNL     1      -1.391  12.504  19.849  0.00  0.00    +0.000 C 
ATOM     27  C   UNL     1       0.618  13.320  20.971  0.00  0.00    +0.000 C 
ENDBRANCH  20  25
ENDBRANCH  12  15
ENDBRANCH  10  12
ENDBRANCH   1  10
BRANCH   1  28
ATOM     28  C   UNL     1       4.602   3.735  17.856  0.00  0.00    +0.000 C 
BRANCH  28  29
ATOM     29  C   UNL     1       4.820   3.573  19.360  0.00  0.00    +0.000 C 
BRANCH  29  30
ATOM     30  C   UNL     1       4.086   2.326  19.831  0.00  0.00    +0.000 C 
BRANCH  30  31
ATOM     31  N   UNL     1       2.658   2.536  19.647  0.00  0.00    +0.000 NA
ATOM     32  C   UNL     1       1.971   2.830  20.684  0.00  0.00    +0.000 C 
ATOM     33  N   UNL     1       2.384   3.003  21.954  0.00  0.00    +0.000 N 
ATOM     34  N   UNL     1       0.634   2.954  20.572  0.00  0.00    +0.000 N 
ATOM     35  H   UNL     1       3.385   3.118  22.082  0.00  0.00    +0.000 HD
ATOM     36  H   UNL     1       1.840   3.625  22.536  0.00  0.00    +0.000 HD
ATOM     37  H   UNL     1       0.358   2.976  19.592  0.00  0.00    +0.000 HD
ATOM     38  H   UNL     1       0.181   3.658  21.126  0.00  0.00    +0.000 HD
ENDBRANCH  30  31
ENDBRANCH  29  30
ENDBRANCH  28  29
ENDBRANCH   1  28
TORSDOF 14
ENDMDL
