MODEL 1
REMARK VINA RESULT:      -7.3      0.000      0.000
REMARK  Name = 
REMARK  4 active torsions:
REMARK  status: ('A' for Active; 'I' for Inactive)
REMARK    1  A    between atoms: C_2  and  N_3
REMARK    2  A    between atoms: C_7  and  C_8
REMARK    3  A    between atoms: C_9  and  C_10
REMARK    4  A    between atoms: C_13  and  C_14
REMARK                            x       y       z     vdW  Elec       q    Type
REMARK                         _______ _______ _______ _____ _____    ______ ____
ROOT
ATOM      1  C   UNL     1       4.105   3.968  17.076  0.00  0.00    +0.000 A 
ATOM      2  C   UNL     1       3.867   2.674  17.541  0.00  0.00    +0.000 A 
ATOM      3  C   UNL     1       2.880   2.444  18.505  0.00  0.00    +0.000 A 
ATOM      4  C   UNL     1       2.120   3.507  19.021  0.00  0.00    +0.000 A 
ATOM      5  C   UNL     1       2.407   4.811  18.590  0.00  0.00    +0.000 A 
ATOM      6  C   UNL     1       3.389   5.038  17.618  0.00  0.00    +0.000 A 
ENDROOT
BRANCH   4   7
ATOM      7  C   UNL     1       0.996   3.233  19.992  0.00  0.00    +0.000 C 
ATOM      8  F   UNL     1      -0.019   2.516  19.431  0.00  0.00    +0.000 F 
ATOM      9  F   UNL     1       1.396   2.523  21.083  0.00  0.00    +0.000 F 
ATOM     10  F   UNL     1       0.420   4.370  20.475  0.00  0.00    +0.000 F 
ENDBRANCH   4   7
BRANCH   1  12
ATOM     11  C   UNL     1       5.799   4.425  15.110  0.00  0.00    +0.000 C 
ATOM     12  C   UNL     1       5.040   4.192  16.013  0.00  0.00    +0.000 C 
BRANCH  11  17
ATOM     13  N   UNL     1       6.541   4.320  12.732  0.00  0.00    +0.000 N 
ATOM     14  C   UNL     1       7.598   4.813  12.018  0.00  0.00    +0.000 A 
ATOM     15  C   UNL     1       8.352   5.508  12.935  0.00  0.00    +0.000 A 
ATOM     16  N   UNL     1       7.782   5.450  14.182  0.00  0.00    +0.000 NA
ATOM     17  C   UNL     1       6.685   4.729  14.038  0.00  0.00    +0.000 A 
BRANCH  13  19
ATOM     18  C   UNL     1       4.601   2.845  11.728  0.00  0.00    +0.000 C 
ATOM     19  C   UNL     1       5.486   3.519  12.189  0.00  0.00    +0.000 C 
ENDBRANCH  13  19
ENDBRANCH  11  17
ENDBRANCH   1  12
TORSDOF 4
ENDMDL
MODEL 2
REMARK VINA RESULT:      -7.2      0.823      1.002
REMARK  Name = 
REMARK  4 active torsions:
REMARK  status: ('A' for Active; 'I' for Inactive)
REMARK    1  A    between atoms: C_2  and  N_3
REMARK    2  A    between atoms: C_7  and  C_8
REMARK    3  A    between atoms: C_9  and  C_10
REMARK    4  A    between atoms: C_13  and  C_14
REMARK                            x       y       z     vdW  Elec       q    Type
REMARK                         _______ _______ _______ _____ _____    ______ ____
ROOT
ATOM      1  C   UNL     1       4.172   3.880  17.211  0.00  0.00    +0.000 A 
ATOM      2  C   UNL     1       2.818   3.596  17.024  0.00  0.00    +0.000 A 
ATOM      3  C   UNL     1       1.969   3.468  18.127  0.00  0.00    +0.000 A 
ATOM      4  C   UNL     1       2.463   3.619  19.434  0.00  0.00    +0.000 A 
ATOM      5  C   UNL     1       3.835   3.847  19.613  0.00  0.00    +0.000 A 
ATOM      6  C   UNL     1       4.683   3.985  18.506  0.00  0.00    +0.000 A 
ENDROOT
BRANCH   4   7
ATOM      7  C   UNL     1       1.517   3.570  20.611  0.00  0.00    +0.000 C 
ATOM      8  F   UNL     1       1.014   2.322  20.829  0.00  0.00    +0.000 F 
ATOM      9  F   UNL     1       2.103   3.946  21.781  0.00  0.00    +0.000 F 
ATOM     10  F   UNL     1       0.433   4.382  20.458  0.00  0.00    +0.000 F 
ENDBRANCH   4   7
BRANCH   1  12
ATOM     11  C   UNL     1       5.751   4.359  15.157  0.00  0.00    +0.000 C 
ATOM     12  C   UNL     1       5.021   4.117  16.080  0.00  0.00    +0.000 C 
BRANCH  11  17
ATOM     13  N   UNL     1       6.458   4.293  12.766  0.00  0.00    +0.000 N 
ATOM     14  C   UNL     1       7.515   4.781  12.048  0.00  0.00    +0.000 A 
ATOM     15  C   UNL     1       8.296   5.438  12.969  0.00  0.00    +0.000 A 
ATOM     16  N   UNL     1       7.743   5.363  14.223  0.00  0.00    +0.000 NA
ATOM     17  C   UNL     1       6.629   4.669  14.078  0.00  0.00    +0.000 A 
BRANCH  13  19
ATOM     18  C   UNL     1       4.472   2.884  11.757  0.00  0.00    +0.000 C 
ATOM     19  C   UNL     1       5.378   3.527  12.220  0.00  0.00    +0.000 C 
ENDBRANCH  13  19
ENDBRANCH  11  17
ENDBRANCH   1  12
TORSDOF 4
ENDMDL
MODEL 3
REMARK VINA RESULT:      -7.2      0.523      1.559
REMARK  Name = 
REMARK  4 active torsions:
REMARK  status: ('A' for Active; 'I' for Inactive)
REMARK    1  A    between atoms: C_2  and  N_3
REMARK    2  A    between atoms: C_7  and  C_8
REMARK    3  A    between atoms: C_9  and  C_10
REMARK    4  A    between atoms: C_13  and  C_14
REMARK                            x       y       z     vdW  Elec       q    Type
REMARK                         _______ _______ _______ _____ _____    ______ ____
ROOT
ATOM      1  C   UNL     1       4.007   4.068  17.071  0.00  0.00    +0.000 A 
ATOM      2  C   UNL     1       3.376   5.175  17.643  0.00  0.00    +0.000 A 
ATOM      3  C   UNL     1       2.544   5.013  18.755  0.00  0.00    +0.000 A 
ATOM      4  C   UNL     1       2.328   3.740  19.309  0.00  0.00    +0.000 A 
ATOM      5  C   UNL     1       2.921   2.628  18.693  0.00  0.00    +0.000 A 
ATOM      6  C   UNL     1       3.761   2.793  17.585  0.00  0.00    +0.000 A 
ENDROOT
BRANCH   4   7
ATOM      7  C   UNL     1       1.503   3.591  20.565  0.00  0.00    +0.000 C 
ATOM      8  F   UNL     1       2.094   4.163  21.653  0.00  0.00    +0.000 F 
ATOM      9  F   UNL     1       0.272   4.164  20.465  0.00  0.00    +0.000 F 
ATOM     10  F   UNL     1       1.284   2.290  20.909  0.00  0.00    +0.000 F 
ENDBRANCH   4   7
BRANCH   1  12
ATOM     11  C   UNL     1       5.716   4.446  15.102  0.00  0.00    +0.000 C 
ATOM     12  C   UNL     1       4.942   4.245  15.999  0.00  0.00    +0.000 C 
BRANCH  11  17
ATOM     13  N   UNL     1       6.499   4.300  12.739  0.00  0.00    +0.000 N 
ATOM     14  C   UNL     1       7.584   4.756  12.042  0.00  0.00    +0.000 A 
ATOM     15  C   UNL     1       8.342   5.434  12.967  0.00  0.00    +0.000 A 
ATOM     16  N   UNL     1       7.747   5.403  14.204  0.00  0.00    +0.000 NA
ATOM     17  C   UNL     1       6.632   4.715  14.044  0.00  0.00    +0.000 A 
BRANCH  13  19
ATOM     18  C   UNL     1       4.529   2.883  11.711  0.00  0.00    +0.000 C 
ATOM     19  C   UNL     1       5.430   3.528  12.182  0.00  0.00    +0.000 C 
ENDBRANCH  13  19
ENDBRANCH  11  17
ENDBRANCH   1  12
TORSDOF 4
ENDMDL
MODEL 4
REMARK VINA RESULT:      -6.9      0.601      1.135
REMARK  Name = 
REMARK  4 active torsions:
REMARK  status: ('A' for Active; 'I' for Inactive)
REMARK    1  A    between atoms: C_2  and  N_3
REMARK    2  A    between atoms: C_7  and  C_8
REMARK    3  A    between atoms: C_9  and  C_10
REMARK    4  A    between atoms: C_13  and  C_14
REMARK                            x       y       z     vdW  Elec       q    Type
REMARK                         _______ _______ _______ _____ _____    ______ ____
ROOT
ATOM      1  C   UNL     1       4.026   4.285  17.066  0.00  0.00    +0.000 A 
ATOM      2  C   UNL     1       3.985   5.197  18.122  0.00  0.00    +0.000 A 
ATOM      3  C   UNL     1       3.106   4.997  19.190  0.00  0.00    +0.000 A 
ATOM      4  C   UNL     1       2.251   3.883  19.216  0.00  0.00    +0.000 A 
ATOM      5  C   UNL     1       2.257   3.003  18.123  0.00  0.00    +0.000 A 
ATOM      6  C   UNL     1       3.146   3.200  17.058  0.00  0.00    +0.000 A 
ENDROOT
BRANCH   4   7
ATOM      7  C   UNL     1       1.373   3.629  20.419  0.00  0.00    +0.000 C 
ATOM      8  F   UNL     1       0.532   2.571  20.241  0.00  0.00    +0.000 F 
ATOM      9  F   UNL     1       2.082   3.357  21.548  0.00  0.00    +0.000 F 
ATOM     10  F   UNL     1       0.571   4.687  20.727  0.00  0.00    +0.000 F 
ENDBRANCH   4   7
BRANCH   1  12
ATOM     11  C   UNL     1       5.781   4.586  15.125  0.00  0.00    +0.000 C 
ATOM     12  C   UNL     1       4.999   4.431  16.024  0.00  0.00    +0.000 C 
BRANCH  11  17
ATOM     13  N   UNL     1       6.528   4.337  12.759  0.00  0.00    +0.000 N 
ATOM     14  C   UNL     1       7.617   4.736  12.033  0.00  0.00    +0.000 A 
ATOM     15  C   UNL     1       8.406   5.422  12.926  0.00  0.00    +0.000 A 
ATOM     16  N   UNL     1       7.828   5.451  14.170  0.00  0.00    +0.000 NA
ATOM     17  C   UNL     1       6.690   4.791  14.047  0.00  0.00    +0.000 A 
BRANCH  13  19
ATOM     18  C   UNL     1       4.504   2.941  11.810  0.00  0.00    +0.000 C 
ATOM     19  C   UNL     1       5.430   3.578  12.241  0.00  0.00    +0.000 C 
ENDBRANCH  13  19
ENDBRANCH  11  17
ENDBRANCH   1  12
TORSDOF 4
ENDMDL
MODEL 5
REMARK VINA RESULT:      -6.7      4.235      5.753
REMARK  Name = 
REMARK  4 active torsions:
REMARK  status: ('A' for Active; 'I' for Inactive)
REMARK    1  A    between atoms: C_2  and  N_3
REMARK    2  A    between atoms: C_7  and  C_8
REMARK    3  A    between atoms: C_9  and  C_10
REMARK    4  A    between atoms: C_13  and  C_14
REMARK                            x       y       z     vdW  Elec       q    Type
REMARK                         _______ _______ _______ _____ _____    ______ ____
ROOT
ATOM      1  C   UNL     1       2.417   7.721  18.628  0.00  0.00    +0.000 A 
ATOM      2  C   UNL     1       1.815   8.822  18.017  0.00  0.00    +0.000 A 
ATOM      3  C   UNL     1       0.973   9.660  18.754  0.00  0.00    +0.000 A 
ATOM      4  C   UNL     1       0.717   9.406  20.112  0.00  0.00    +0.000 A 
ATOM      5  C   UNL     1       1.280   8.265  20.701  0.00  0.00    +0.000 A 
ATOM      6  C   UNL     1       2.132   7.431  19.964  0.00  0.00    +0.000 A 
ENDROOT
BRANCH   4   7
ATOM      7  C   UNL     1      -0.119  10.371  20.918  0.00  0.00    +0.000 C 
ATOM      8  F   UNL     1      -0.672   9.792  22.022  0.00  0.00    +0.000 F 
ATOM      9  F   UNL     1       0.590  11.440  21.374  0.00  0.00    +0.000 F 
ATOM     10  F   UNL     1      -1.166  10.888  20.214  0.00  0.00    +0.000 F 
ENDBRANCH   4   7
BRANCH   1  12
ATOM     11  C   UNL     1       4.178   6.240  17.344  0.00  0.00    +0.000 C 
ATOM     12  C   UNL     1       3.363   6.923  17.904  0.00  0.00    +0.000 C 
BRANCH  11  17
ATOM     13  N   UNL     1       6.504   5.671  16.649  0.00  0.00    +0.000 N 
ATOM     14  C   UNL     1       7.091   4.653  15.948  0.00  0.00    +0.000 A 
ATOM     15  C   UNL     1       6.055   3.817  15.603  0.00  0.00    +0.000 A 
ATOM     16  N   UNL     1       4.859   4.298  16.074  0.00  0.00    +0.000 NA
ATOM     17  C   UNL     1       5.153   5.419  16.707  0.00  0.00    +0.000 A 
BRANCH  13  19
ATOM     18  C   UNL     1       7.789   7.728  17.681  0.00  0.00    +0.000 C 
ATOM     19  C   UNL     1       7.200   6.790  17.209  0.00  0.00    +0.000 C 
ENDBRANCH  13  19
ENDBRANCH  11  17
ENDBRANCH   1  12
TORSDOF 4
ENDMDL
MODEL 6
REMARK VINA RESULT:      -6.6      7.872      9.309
REMARK  Name = 
REMARK  4 active torsions:
REMARK  status: ('A' for Active; 'I' for Inactive)
REMARK    1  A    between atoms: C_2  and  N_3
REMARK    2  A    between atoms: C_7  and  C_8
REMARK    3  A    between atoms: C_9  and  C_10
REMARK    4  A    between atoms: C_13  and  C_14
REMARK                            x       y       z     vdW  Elec       q    Type
REMARK                         _______ _______ _______ _____ _____    ______ ____
ROOT
ATOM      1  C   UNL     1       8.477   9.740  18.248  0.00  0.00    +0.000 A 
ATOM      2  C   UNL     1       8.321  10.933  17.542  0.00  0.00    +0.000 A 
ATOM      3  C   UNL     1       9.018  12.080  17.936  0.00  0.00    +0.000 A 
ATOM      4  C   UNL     1       9.879  12.049  19.045  0.00  0.00    +0.000 A 
ATOM      5  C   UNL     1       9.986  10.861  19.783  0.00  0.00    +0.000 A 
ATOM      6  C   UNL     1       9.294   9.711  19.381  0.00  0.00    +0.000 A 
ENDROOT
BRANCH   4   7
ATOM      7  C   UNL     1      10.696  13.268  19.403  0.00  0.00    +0.000 C 
ATOM      8  F   UNL     1      11.987  12.961  19.718  0.00  0.00    +0.000 F 
ATOM      9  F   UNL     1      10.765  14.179  18.394  0.00  0.00    +0.000 F 
ATOM     10  F   UNL     1      10.206  13.942  20.482  0.00  0.00    +0.000 F 
ENDBRANCH   4   7
BRANCH   1  12
ATOM     11  C   UNL     1       7.367   7.511  17.388  0.00  0.00    +0.000 C 
ATOM     12  C   UNL     1       7.847   8.539  17.784  0.00  0.00    +0.000 C 
BRANCH  11  17
ATOM     13  N   UNL     1       5.494   5.937  16.907  0.00  0.00    +0.000 N 
ATOM     14  C   UNL     1       5.389   4.676  16.387  0.00  0.00    +0.000 A 
ATOM     15  C   UNL     1       6.682   4.299  16.107  0.00  0.00    +0.000 A 
ATOM     16  N   UNL     1       7.565   5.295  16.440  0.00  0.00    +0.000 NA
ATOM     17  C   UNL     1       6.826   6.279  16.919  0.00  0.00    +0.000 A 
BRANCH  13  19
ATOM     18  C   UNL     1       3.463   7.406  17.723  0.00  0.00    +0.000 C 
ATOM     19  C   UNL     1       4.392   6.735  17.352  0.00  0.00    +0.000 C 
ENDBRANCH  13  19
ENDBRANCH  11  17
ENDBRANCH   1  12
TORSDOF 4
ENDMDL
MODEL 7
REMARK VINA RESULT:      -6.6      4.143      5.638
REMARK  Name = 
REMARK  4 active torsions:
REMARK  status: ('A' for Active; 'I' for Inactive)
REMARK    1  A    between atoms: C_2  and  N_3
REMARK    2  A    between atoms: C_7  and  C_8
REMARK    3  A    between atoms: C_9  and  C_10
REMARK    4  A    between atoms: C_13  and  C_14
REMARK                            x       y       z     vdW  Elec       q    Type
REMARK                         _______ _______ _______ _____ _____    ______ ____
ROOT
ATOM      1  C   UNL     1       2.366   7.908  18.519  0.00  0.00    +0.000 A 
ATOM      2  C   UNL     1       1.750   8.978  17.868  0.00  0.00    +0.000 A 
ATOM      3  C   UNL     1       0.890   9.827  18.571  0.00  0.00    +0.000 A 
ATOM      4  C   UNL     1       0.630   9.615  19.936  0.00  0.00    +0.000 A 
ATOM      5  C   UNL     1       1.209   8.504  20.566  0.00  0.00    +0.000 A 
ATOM      6  C   UNL     1       2.078   7.660  19.863  0.00  0.00    +0.000 A 
ENDROOT
BRANCH   4   7
ATOM      7  C   UNL     1      -0.226  10.593  20.704  0.00  0.00    +0.000 C 
ATOM      8  F   UNL     1       0.437  11.744  21.012  0.00  0.00    +0.000 F 
ATOM      9  F   UNL     1      -1.341  10.976  20.023  0.00  0.00    +0.000 F 
ATOM     10  F   UNL     1      -0.668  10.095  21.894  0.00  0.00    +0.000 F 
ENDBRANCH   4   7
BRANCH   1  12
ATOM     11  C   UNL     1       4.101   6.421  17.208  0.00  0.00    +0.000 C 
ATOM     12  C   UNL     1       3.329   7.102  17.827  0.00  0.00    +0.000 C 
BRANCH  11  17
ATOM     13  N   UNL     1       5.052   4.241  16.459  0.00  0.00    +0.000 N 
ATOM     14  C   UNL     1       6.047   3.854  15.603  0.00  0.00    +0.000 A 
ATOM     15  C   UNL     1       6.564   5.027  15.105  0.00  0.00    +0.000 A 
ATOM     16  N   UNL     1       5.912   6.113  15.634  0.00  0.00    +0.000 NA
ATOM     17  C   UNL     1       4.998   5.616  16.449  0.00  0.00    +0.000 A 
BRANCH  13  19
ATOM     18  C   UNL     1       3.543   2.596  17.859  0.00  0.00    +0.000 C 
ATOM     19  C   UNL     1       4.230   3.349  17.219  0.00  0.00    +0.000 C 
ENDBRANCH  13  19
ENDBRANCH  11  17
ENDBRANCH   1  12
TORSDOF 4
ENDMDL
MODEL 8
REMARK VINA RESULT:      -6.6      4.454      5.939
REMARK  Name = 
REMARK  4 active torsions:
REMARK  status: ('A' for Active; 'I' for Inactive)
REMARK    1  A    between atoms: C_2  and  N_3
REMARK    2  A    between atoms: C_7  and  C_8
REMARK    3  A    between atoms: C_9  and  C_10
REMARK    4  A    between atoms: C_13  and  C_14
REMARK                            x       y       z     vdW  Elec       q    Type
REMARK                         _______ _______ _______ _____ _____    ______ ____
ROOT
ATOM      1  C   UNL     1       2.463   8.067  18.501  0.00  0.00    +0.000 A 
ATOM      2  C   UNL     1       1.991   7.896  19.804  0.00  0.00    +0.000 A 
ATOM      3  C   UNL     1       1.030   8.769  20.323  0.00  0.00    +0.000 A 
ATOM      4  C   UNL     1       0.529   9.828  19.547  0.00  0.00    +0.000 A 
ATOM      5  C   UNL     1       1.052  10.026  18.261  0.00  0.00    +0.000 A 
ATOM      6  C   UNL     1       2.007   9.145  17.739  0.00  0.00    +0.000 A 
ENDROOT
BRANCH   4   7
ATOM      7  C   UNL     1      -0.575  10.706  20.087  0.00  0.00    +0.000 C 
ATOM      8  F   UNL     1      -0.911  10.396  21.372  0.00  0.00    +0.000 F 
ATOM      9  F   UNL     1      -0.250  12.028  20.095  0.00  0.00    +0.000 F 
ATOM     10  F   UNL     1      -1.732  10.609  19.372  0.00  0.00    +0.000 F 
ENDBRANCH   4   7
BRANCH   1  12
ATOM     11  C   UNL     1       4.142   6.350  17.419  0.00  0.00    +0.000 C 
ATOM     12  C   UNL     1       3.367   7.113  17.931  0.00  0.00    +0.000 C 
BRANCH  11  17
ATOM     13  N   UNL     1       6.434   5.656  16.722  0.00  0.00    +0.000 N 
ATOM     14  C   UNL     1       6.967   4.595  16.043  0.00  0.00    +0.000 A 
ATOM     15  C   UNL     1       5.891   3.800  15.725  0.00  0.00    +0.000 A 
ATOM     16  N   UNL     1       4.723   4.348  16.192  0.00  0.00    +0.000 NA
ATOM     17  C   UNL     1       5.073   5.470  16.795  0.00  0.00    +0.000 A 
BRANCH  13  19
ATOM     18  C   UNL     1       7.819   7.679  17.689  0.00  0.00    +0.000 C 
ATOM     19  C   UNL     1       7.186   6.755  17.250  0.00  0.00    +0.000 C 
ENDBRANCH  13  19
ENDBRANCH  11  17
ENDBRANCH   1  12
TORSDOF 4
ENDMDL
MODEL 9
REMARK VINA RESULT:      -6.6      7.870      9.216
REMARK  Name = 
REMARK  4 active torsions:
REMARK  status: ('A' for Active; 'I' for Inactive)
REMARK    1  A    between atoms: C_2  and  N_3
REMARK    2  A    between atoms: C_7  and  C_8
REMARK    3  A    between atoms: C_9  and  C_10
REMARK    4  A    between atoms: C_13  and  C_14
REMARK                            x       y       z     vdW  Elec       q    Type
REMARK                         _______ _______ _______ _____ _____    ______ ____
ROOT
ATOM      1  C   UNL     1       8.543   9.824  18.247  0.00  0.00    +0.000 A 
ATOM      2  C   UNL     1       9.327   9.831  19.401  0.00  0.00    +0.000 A 
ATOM      3  C   UNL     1       9.865  11.030  19.878  0.00  0.00    +0.000 A 
ATOM      4  C   UNL     1       9.630  12.240  19.203  0.00  0.00    +0.000 A 
ATOM      5  C   UNL     1       8.890  12.214  18.012  0.00  0.00    +0.000 A 
ATOM      6  C   UNL     1       8.344  11.013  17.541  0.00  0.00    +0.000 A 
ENDROOT
BRANCH   4   7
ATOM      7  C   UNL     1      10.139  13.539  19.780  0.00  0.00    +0.000 C 
ATOM      8  F   UNL     1       9.177  14.504  19.831  0.00  0.00    +0.000 F 
ATOM      9  F   UNL     1      10.608  13.412  21.052  0.00  0.00    +0.000 F 
ATOM     10  F   UNL     1      11.162  14.080  19.057  0.00  0.00    +0.000 F 
ENDBRANCH   4   7
BRANCH   1  12
ATOM     11  C   UNL     1       7.416   7.580  17.448  0.00  0.00    +0.000 C 
ATOM     12  C   UNL     1       7.904   8.615  17.817  0.00  0.00    +0.000 C 
BRANCH  11  17
ATOM     13  N   UNL     1       5.528   6.023  16.971  0.00  0.00    +0.000 N 
ATOM     14  C   UNL     1       5.415   4.744  16.496  0.00  0.00    +0.000 A 
ATOM     15  C   UNL     1       6.708   4.335  16.269  0.00  0.00    +0.000 A 
ATOM     16  N   UNL     1       7.600   5.327  16.590  0.00  0.00    +0.000 NA
ATOM     17  C   UNL     1       6.866   6.341  17.010  0.00  0.00    +0.000 A 
BRANCH  13  19
ATOM     18  C   UNL     1       3.507   7.562  17.671  0.00  0.00    +0.000 C 
ATOM     19  C   UNL     1       4.429   6.857  17.352  0.00  0.00    +0.000 C 
ENDBRANCH  13  19
ENDBRANCH  11  17
ENDBRANCH   1  12
TORSDOF 4
ENDMDL
