MODEL 1
REMARK VINA RESULT:      -6.7      0.000      0.000
REMARK  Name = 
REMARK  19 active torsions:
REMARK  status: ('A' for Active; 'I' for Inactive)
REMARK    1  A    between atoms: C_1  and  C_2
REMARK    2  A    between atoms: C_2  and  C_3
REMARK    3  A    between atoms: C_4  and  C_5
REMARK    4  A    between atoms: C_5  and  C_6
REMARK    5  A    between atoms: C_6  and  C_7
REMARK    6  A    between atoms: C_7  and  C_8
REMARK    7  A    between atoms: C_9  and  C_10
REMARK    8  A    between atoms: C_10  and  C_11
REMARK    9  A    between atoms: C_11  and  C_12
REMARK   10  A    between atoms: C_12  and  C_13
REMARK   11  A    between atoms: C_14  and  C_15
REMARK   12  A    between atoms: C_15  and  C_16
REMARK   13  A    between atoms: C_16  and  C_17
REMARK   14  A    between atoms: C_17  and  C_18
REMARK   15  A    between atoms: C_19  and  C_20
REMARK   16  A    between atoms: C_20  and  S_21
REMARK   17  A    between atoms: S_21  and  C_22
REMARK   18  A    between atoms: C_22  and  C_23
REMARK   19  A    between atoms: C_23  and  O_24
REMARK                            x       y       z     vdW  Elec       q    Type
REMARK                         _______ _______ _______ _____ _____    ______ ____
ROOT
ATOM      1  C   UNL     1       7.492   7.095  17.990  0.00  0.00    +0.000 C 
ATOM      2  C   UNL     1       6.531   7.793  17.054  0.00  0.00    +0.000 C 
ATOM      3  C   UNL     1       8.456   7.795  18.624  0.00  0.00    +0.000 C 
ENDROOT
BRANCH   1   4
ATOM      4  C   UNL     1       7.407   5.596  18.190  0.00  0.00    +0.000 C 
BRANCH   4   5
ATOM      5  C   UNL     1       6.191   5.149  19.002  0.00  0.00    +0.000 C 
BRANCH   5   8
ATOM      6  C   UNL     1       4.050   4.533  17.862  0.00  0.00    +0.000 C 
ATOM      7  C   UNL     1       3.477   5.902  18.123  0.00  0.00    +0.000 C 
ATOM      8  C   UNL     1       5.293   4.209  18.274  0.00  0.00    +0.000 C 
BRANCH   6   9
ATOM      9  C   UNL     1       3.142   3.570  17.117  0.00  0.00    +0.000 C 
BRANCH   9  10
ATOM     10  C   UNL     1       1.953   3.087  17.954  0.00  0.00    +0.000 C 
BRANCH  10  14
ATOM     11  C   UNL     1       2.189   2.603  21.782  0.00  0.00    +0.000 C 
ATOM     12  C   UNL     1       1.837   3.162  20.442  0.00  0.00    +0.000 C 
ATOM     13  C   UNL     1       0.968   4.394  20.398  0.00  0.00    +0.000 C 
ATOM     14  C   UNL     1       2.284   2.564  19.316  0.00  0.00    +0.000 C 
ENDBRANCH  10  14
ENDBRANCH   9  10
ENDBRANCH   6   9
ENDBRANCH   5   8
ENDBRANCH   4   5
ENDBRANCH   1   4
BRANCH   3  15
ATOM     15  C   UNL     1       8.645   9.278  18.474  0.00  0.00    +0.000 C 
BRANCH  15  16
ATOM     16  C   UNL     1       9.408   9.916  19.636  0.00  0.00    +0.000 C 
BRANCH  16  17
ATOM     17  C   UNL     1      10.099  11.184  19.182  0.00  0.00    +0.000 C 
ATOM     18  C   UNL     1      10.917  11.912  20.220  0.00  0.00    +0.000 C 
ATOM     19  C   UNL     1       9.990  11.627  17.911  0.00  0.00    +0.000 C 
BRANCH  19  20
ATOM     20  C   UNL     1      10.624  12.881  17.390  0.00  0.00    +0.000 C 
BRANCH  20  21
ATOM     21  S   UNL     1       9.772  14.379  17.973  0.00  0.00    +0.000 S 
BRANCH  21  22
ATOM     22  C   UNL     1      11.166  15.554  18.166  0.00  0.00    +0.000 C 
BRANCH  22  23
ATOM     23  C   UNL     1      11.505  16.333  16.899  0.00  0.00    +0.000 C 
BRANCH  23  24
ATOM     24  O   UNL     1      10.622  16.010  15.830  0.00  0.00    +0.000 OA
ATOM     25  H   UNL     1      11.002  15.236  15.374  0.00  0.00    +0.000 HD
ENDBRANCH  23  24
ENDBRANCH  22  23
ENDBRANCH  21  22
ENDBRANCH  20  21
ENDBRANCH  19  20
ENDBRANCH  16  17
ENDBRANCH  15  16
ENDBRANCH   3  15
TORSDOF 14
ENDMDL
MODEL 2
REMARK VINA RESULT:      -6.6      1.556      1.980
REMARK  Name = 
REMARK  19 active torsions:
REMARK  status: ('A' for Active; 'I' for Inactive)
REMARK    1  A    between atoms: C_1  and  C_2
REMARK    2  A    between atoms: C_2  and  C_3
REMARK    3  A    between atoms: C_4  and  C_5
REMARK    4  A    between atoms: C_5  and  C_6
REMARK    5  A    between atoms: C_6  and  C_7
REMARK    6  A    between atoms: C_7  and  C_8
REMARK    7  A    between atoms: C_9  and  C_10
REMARK    8  A    between atoms: C_10  and  C_11
REMARK    9  A    between atoms: C_11  and  C_12
REMARK   10  A    between atoms: C_12  and  C_13
REMARK   11  A    between atoms: C_14  and  C_15
REMARK   12  A    between atoms: C_15  and  C_16
REMARK   13  A    between atoms: C_16  and  C_17
REMARK   14  A    between atoms: C_17  and  C_18
REMARK   15  A    between atoms: C_19  and  C_20
REMARK   16  A    between atoms: C_20  and  S_21
REMARK   17  A    between atoms: S_21  and  C_22
REMARK   18  A    between atoms: C_22  and  C_23
REMARK   19  A    between atoms: C_23  and  O_24
REMARK                            x       y       z     vdW  Elec       q    Type
REMARK                         _______ _______ _______ _____ _____    ______ ____
ROOT
ATOM      1  C   UNL     1       7.547   6.582  17.640  0.00  0.00    +0.000 C 
ATOM      2  C   UNL     1       7.967   6.038  18.986  0.00  0.00    +0.000 C 
ATOM      3  C   UNL     1       7.648   7.901  17.375  0.00  0.00    +0.000 C 
ENDROOT
BRANCH   1   4
ATOM      4  C   UNL     1       6.968   5.655  16.591  0.00  0.00    +0.000 C 
BRANCH   4   5
ATOM      5  C   UNL     1       6.052   4.571  17.162  0.00  0.00    +0.000 C 
BRANCH   5   8
ATOM      6  C   UNL     1       3.851   5.354  18.061  0.00  0.00    +0.000 C 
ATOM      7  C   UNL     1       4.453   5.591  19.422  0.00  0.00    +0.000 C 
ATOM      8  C   UNL     1       4.600   4.886  17.041  0.00  0.00    +0.000 C 
BRANCH   6   9
ATOM      9  C   UNL     1       2.373   5.675  17.929  0.00  0.00    +0.000 C 
BRANCH   9  10
ATOM     10  C   UNL     1       1.468   4.451  18.104  0.00  0.00    +0.000 C 
BRANCH  10  14
ATOM     11  C   UNL     1       1.536   2.561  21.475  0.00  0.00    +0.000 C 
ATOM     12  C   UNL     1       1.818   2.948  20.060  0.00  0.00    +0.000 C 
ATOM     13  C   UNL     1       2.799   2.107  19.281  0.00  0.00    +0.000 C 
ATOM     14  C   UNL     1       1.212   4.026  19.515  0.00  0.00    +0.000 C 
ENDBRANCH  10  14
ENDBRANCH   9  10
ENDBRANCH   6   9
ENDBRANCH   5   8
ENDBRANCH   4   5
ENDBRANCH   1   4
BRANCH   3  15
ATOM     15  C   UNL     1       8.182   8.909  18.354  0.00  0.00    +0.000 C 
BRANCH  15  16
ATOM     16  C   UNL     1       9.043   9.992  17.703  0.00  0.00    +0.000 C 
BRANCH  16  17
ATOM     17  C   UNL     1       9.649  10.892  18.760  0.00  0.00    +0.000 C 
ATOM     18  C   UNL     1       9.203  10.655  20.181  0.00  0.00    +0.000 C 
ATOM     19  C   UNL     1      10.548  11.848  18.437  0.00  0.00    +0.000 C 
BRANCH  19  20
ATOM     20  C   UNL     1      11.176  12.790  19.418  0.00  0.00    +0.000 C 
BRANCH  20  21
ATOM     21  S   UNL     1      10.757  14.526  19.073  0.00  0.00    +0.000 S 
BRANCH  21  22
ATOM     22  C   UNL     1       8.957  14.555  19.419  0.00  0.00    +0.000 C 
BRANCH  22  23
ATOM     23  C   UNL     1       8.080  14.406  18.178  0.00  0.00    +0.000 C 
BRANCH  23  24
ATOM     24  O   UNL     1       8.343  15.428  17.222  0.00  0.00    +0.000 OA
ATOM     25  H   UNL     1       7.614  16.074  17.293  0.00  0.00    +0.000 HD
ENDBRANCH  23  24
ENDBRANCH  22  23
ENDBRANCH  21  22
ENDBRANCH  20  21
ENDBRANCH  19  20
ENDBRANCH  16  17
ENDBRANCH  15  16
ENDBRANCH   3  15
TORSDOF 14
ENDMDL
MODEL 3
REMARK VINA RESULT:      -6.6      5.517      8.696
REMARK  Name = 
REMARK  19 active torsions:
REMARK  status: ('A' for Active; 'I' for Inactive)
REMARK    1  A    between atoms: C_1  and  C_2
REMARK    2  A    between atoms: C_2  and  C_3
REMARK    3  A    between atoms: C_4  and  C_5
REMARK    4  A    between atoms: C_5  and  C_6
REMARK    5  A    between atoms: C_6  and  C_7
REMARK    6  A    between atoms: C_7  and  C_8
REMARK    7  A    between atoms: C_9  and  C_10
REMARK    8  A    between atoms: C_10  and  C_11
REMARK    9  A    between atoms: C_11  and  C_12
REMARK   10  A    between atoms: C_12  and  C_13
REMARK   11  A    between atoms: C_14  and  C_15
REMARK   12  A    between atoms: C_15  and  C_16
REMARK   13  A    between atoms: C_16  and  C_17
REMARK   14  A    between atoms: C_17  and  C_18
REMARK   15  A    between atoms: C_19  and  C_20
REMARK   16  A    between atoms: C_20  and  S_21
REMARK   17  A    between atoms: S_21  and  C_22
REMARK   18  A    between atoms: C_22  and  C_23
REMARK   19  A    between atoms: C_23  and  O_24
REMARK                            x       y       z     vdW  Elec       q    Type
REMARK                         _______ _______ _______ _____ _____    ______ ____
ROOT
ATOM      1  C   UNL     1       1.282   3.666  19.974  0.00  0.00    +0.000 C 
ATOM      2  C   UNL     1       1.369   2.514  20.948  0.00  0.00    +0.000 C 
ATOM      3  C   UNL     1       1.508   3.466  18.658  0.00  0.00    +0.000 C 
ENDROOT
BRANCH   1   4
ATOM      4  C   UNL     1       0.981   5.065  20.472  0.00  0.00    +0.000 C 
BRANCH   4   5
ATOM      5  C   UNL     1       2.216   5.962  20.578  0.00  0.00    +0.000 C 
BRANCH   5   8
ATOM      6  C   UNL     1       1.739   8.256  19.698  0.00  0.00    +0.000 C 
ATOM      7  C   UNL     1       1.025   8.632  20.972  0.00  0.00    +0.000 C 
ATOM      8  C   UNL     1       2.275   7.029  19.539  0.00  0.00    +0.000 C 
BRANCH   6   9
ATOM      9  C   UNL     1       1.806   9.339  18.636  0.00  0.00    +0.000 C 
BRANCH   9  10
ATOM     10  C   UNL     1       0.490   9.525  17.875  0.00  0.00    +0.000 C 
BRANCH  10  14
ATOM     11  C   UNL     1      -2.684  11.593  18.646  0.00  0.00    +0.000 C 
ATOM     12  C   UNL     1      -1.739  10.632  18.001  0.00  0.00    +0.000 C 
ATOM     13  C   UNL     1      -2.233   9.847  16.812  0.00  0.00    +0.000 C 
ATOM     14  C   UNL     1      -0.488  10.478  18.487  0.00  0.00    +0.000 C 
ENDBRANCH  10  14
ENDBRANCH   9  10
ENDBRANCH   6   9
ENDBRANCH   5   8
ENDBRANCH   4   5
ENDBRANCH   1   4
BRANCH   3  15
ATOM     15  C   UNL     1       1.841   2.127  18.064  0.00  0.00    +0.000 C 
BRANCH  15  16
ATOM     16  C   UNL     1       3.331   1.786  18.125  0.00  0.00    +0.000 C 
BRANCH  16  17
ATOM     17  C   UNL     1       4.164   3.050  18.104  0.00  0.00    +0.000 C 
ATOM     18  C   UNL     1       4.792   3.462  19.413  0.00  0.00    +0.000 C 
ATOM     19  C   UNL     1       4.337   3.759  16.968  0.00  0.00    +0.000 C 
BRANCH  19  20
ATOM     20  C   UNL     1       5.127   5.028  16.869  0.00  0.00    +0.000 C 
BRANCH  20  21
ATOM     21  S   UNL     1       6.826   4.741  16.287  0.00  0.00    +0.000 S 
BRANCH  21  22
ATOM     22  C   UNL     1       7.759   4.674  17.864  0.00  0.00    +0.000 C 
BRANCH  22  23
ATOM     23  C   UNL     1       7.504   5.860  18.790  0.00  0.00    +0.000 C 
BRANCH  23  24
ATOM     24  O   UNL     1       7.809   5.545  20.145  0.00  0.00    +0.000 OA
ATOM     25  H   UNL     1       8.762   5.714  20.266  0.00  0.00    +0.000 HD
ENDBRANCH  23  24
ENDBRANCH  22  23
ENDBRANCH  21  22
ENDBRANCH  20  21
ENDBRANCH  19  20
ENDBRANCH  16  17
ENDBRANCH  15  16
ENDBRANCH   3  15
TORSDOF 14
ENDMDL
MODEL 4
REMARK VINA RESULT:      -6.2      1.435      1.968
REMARK  Name = 
REMARK  19 active torsions:
REMARK  status: ('A' for Active; 'I' for Inactive)
REMARK    1  A    between atoms: C_1  and  C_2
REMARK    2  A    between atoms: C_2  and  C_3
REMARK    3  A    between atoms: C_4  and  C_5
REMARK    4  A    between atoms: C_5  and  C_6
REMARK    5  A    between atoms: C_6  and  C_7
REMARK    6  A    between atoms: C_7  and  C_8
REMARK    7  A    between atoms: C_9  and  C_10
REMARK    8  A    between atoms: C_10  and  C_11
REMARK    9  A    between atoms: C_11  and  C_12
REMARK   10  A    between atoms: C_12  and  C_13
REMARK   11  A    between atoms: C_14  and  C_15
REMARK   12  A    between atoms: C_15  and  C_16
REMARK   13  A    between atoms: C_16  and  C_17
REMARK   14  A    between atoms: C_17  and  C_18
REMARK   15  A    between atoms: C_19  and  C_20
REMARK   16  A    between atoms: C_20  and  S_21
REMARK   17  A    between atoms: S_21  and  C_22
REMARK   18  A    between atoms: C_22  and  C_23
REMARK   19  A    between atoms: C_23  and  O_24
REMARK                            x       y       z     vdW  Elec       q    Type
REMARK                         _______ _______ _______ _____ _____    ______ ____
ROOT
ATOM      1  C   UNL     1       7.338   6.807  17.638  0.00  0.00    +0.000 C 
ATOM      2  C   UNL     1       7.827   6.044  18.848  0.00  0.00    +0.000 C 
ATOM      3  C   UNL     1       7.698   8.095  17.453  0.00  0.00    +0.000 C 
ENDROOT
BRANCH   1   4
ATOM      4  C   UNL     1       6.405   6.146  16.645  0.00  0.00    +0.000 C 
BRANCH   4   5
ATOM      5  C   UNL     1       4.977   6.693  16.680  0.00  0.00    +0.000 C 
BRANCH   5   8
ATOM      6  C   UNL     1       3.073   6.762  18.303  0.00  0.00    +0.000 C 
ATOM      7  C   UNL     1       2.644   8.115  17.793  0.00  0.00    +0.000 C 
ATOM      8  C   UNL     1       4.144   6.131  17.780  0.00  0.00    +0.000 C 
BRANCH   6   9
ATOM      9  C   UNL     1       2.227   6.181  19.421  0.00  0.00    +0.000 C 
BRANCH   9  10
ATOM     10  C   UNL     1       1.827   4.721  19.184  0.00  0.00    +0.000 C 
BRANCH  10  14
ATOM     11  C   UNL     1       4.282   1.988  20.385  0.00  0.00    +0.000 C 
ATOM     12  C   UNL     1       3.163   2.978  20.359  0.00  0.00    +0.000 C 
ATOM     13  C   UNL     1       2.303   3.103  21.593  0.00  0.00    +0.000 C 
ATOM     14  C   UNL     1       2.938   3.722  19.254  0.00  0.00    +0.000 C 
ENDBRANCH  10  14
ENDBRANCH   9  10
ENDBRANCH   6   9
ENDBRANCH   5   8
ENDBRANCH   4   5
ENDBRANCH   1   4
BRANCH   3  15
ATOM     15  C   UNL     1       8.595   8.853  18.390  0.00  0.00    +0.000 C 
BRANCH  15  16
ATOM     16  C   UNL     1       8.480  10.372  18.249  0.00  0.00    +0.000 C 
BRANCH  16  17
ATOM     17  C   UNL     1       9.706  11.051  18.823  0.00  0.00    +0.000 C 
ATOM     18  C   UNL     1       9.789  11.129  20.327  0.00  0.00    +0.000 C 
ATOM     19  C   UNL     1      10.672  11.549  18.022  0.00  0.00    +0.000 C 
BRANCH  19  20
ATOM     20  C   UNL     1      11.902  12.252  18.509  0.00  0.00    +0.000 C 
BRANCH  20  21
ATOM     21  S   UNL     1      11.603  14.016  18.841  0.00  0.00    +0.000 S 
BRANCH  21  22
ATOM     22  C   UNL     1      12.046  14.781  17.235  0.00  0.00    +0.000 C 
BRANCH  22  23
ATOM     23  C   UNL     1      11.194  15.992  16.865  0.00  0.00    +0.000 C 
BRANCH  23  24
ATOM     24  O   UNL     1      10.282  16.331  17.905  0.00  0.00    +0.000 OA
ATOM     25  H   UNL     1       9.732  15.541  18.066  0.00  0.00    +0.000 HD
ENDBRANCH  23  24
ENDBRANCH  22  23
ENDBRANCH  21  22
ENDBRANCH  20  21
ENDBRANCH  19  20
ENDBRANCH  16  17
ENDBRANCH  15  16
ENDBRANCH   3  15
TORSDOF 14
ENDMDL
MODEL 5
REMARK VINA RESULT:      -6.1      5.636      8.993
REMARK  Name = 
REMARK  19 active torsions:
REMARK  status: ('A' for Active; 'I' for Inactive)
REMARK    1  A    between atoms: C_1  and  C_2
REMARK    2  A    between atoms: C_2  and  C_3
REMARK    3  A    between atoms: C_4  and  C_5
REMARK    4  A    between atoms: C_5  and  C_6
REMARK    5  A    between atoms: C_6  and  C_7
REMARK    6  A    between atoms: C_7  and  C_8
REMARK    7  A    between atoms: C_9  and  C_10
REMARK    8  A    between atoms: C_10  and  C_11
REMARK    9  A    between atoms: C_11  and  C_12
REMARK   10  A    between atoms: C_12  and  C_13
REMARK   11  A    between atoms: C_14  and  C_15
REMARK   12  A    between atoms: C_15  and  C_16
REMARK   13  A    between atoms: C_16  and  C_17
REMARK   14  A    between atoms: C_17  and  C_18
REMARK   15  A    between atoms: C_19  and  C_20
REMARK   16  A    between atoms: C_20  and  S_21
REMARK   17  A    between atoms: S_21  and  C_22
REMARK   18  A    between atoms: C_22  and  C_23
REMARK   19  A    between atoms: C_23  and  O_24
REMARK                            x       y       z     vdW  Elec       q    Type
REMARK                         _______ _______ _______ _____ _____    ______ ____
ROOT
ATOM      1  C   UNL     1       4.005   2.636  19.575  0.00  0.00    +0.000 C 
ATOM      2  C   UNL     1       3.555   1.630  18.540  0.00  0.00    +0.000 C 
ATOM      3  C   UNL     1       3.154   3.053  20.536  0.00  0.00    +0.000 C 
ENDROOT
BRANCH   1   4
ATOM      4  C   UNL     1       5.403   3.216  19.517  0.00  0.00    +0.000 C 
BRANCH   4   5
ATOM      5  C   UNL     1       5.461   4.630  18.935  0.00  0.00    +0.000 C 
BRANCH   5   8
ATOM      6  C   UNL     1       6.327   5.467  16.741  0.00  0.00    +0.000 C 
ATOM      7  C   UNL     1       7.285   6.399  17.437  0.00  0.00    +0.000 C 
ATOM      8  C   UNL     1       5.501   4.667  17.446  0.00  0.00    +0.000 C 
BRANCH   6   9
ATOM      9  C   UNL     1       6.363   5.497  15.224  0.00  0.00    +0.000 C 
BRANCH   9  10
ATOM     10  C   UNL     1       6.391   4.102  14.589  0.00  0.00    +0.000 C 
BRANCH  10  14
ATOM     11  C   UNL     1       4.380   3.173  11.422  0.00  0.00    +0.000 C 
ATOM     12  C   UNL     1       5.518   3.471  12.343  0.00  0.00    +0.000 C 
ATOM     13  C   UNL     1       6.917   3.381  11.787  0.00  0.00    +0.000 C 
ATOM     14  C   UNL     1       5.282   3.800  13.632  0.00  0.00    +0.000 C 
ENDBRANCH  10  14
ENDBRANCH   9  10
ENDBRANCH   6   9
ENDBRANCH   5   8
ENDBRANCH   4   5
ENDBRANCH   1   4
BRANCH   3  15
ATOM     15  C   UNL     1       1.740   2.563  20.667  0.00  0.00    +0.000 C 
BRANCH  15  16
ATOM     16  C   UNL     1       0.694   3.610  20.280  0.00  0.00    +0.000 C 
BRANCH  16  17
ATOM     17  C   UNL     1       1.348   4.775  19.568  0.00  0.00    +0.000 C 
ATOM     18  C   UNL     1       1.515   4.642  18.075  0.00  0.00    +0.000 C 
ATOM     19  C   UNL     1       1.750   5.874  20.243  0.00  0.00    +0.000 C 
BRANCH  19  20
ATOM     20  C   UNL     1       2.423   7.057  19.617  0.00  0.00    +0.000 C 
BRANCH  20  21
ATOM     21  S   UNL     1       1.545   8.612  19.958  0.00  0.00    +0.000 S 
BRANCH  21  22
ATOM     22  C   UNL     1       1.049   8.388  21.708  0.00  0.00    +0.000 C 
BRANCH  22  23
ATOM     23  C   UNL     1       0.079   9.449  22.223  0.00  0.00    +0.000 C 
BRANCH  23  24
ATOM     24  O   UNL     1       0.321   9.765  23.590  0.00  0.00    +0.000 OA
ATOM     25  H   UNL     1       0.276  10.736  23.667  0.00  0.00    +0.000 HD
ENDBRANCH  23  24
ENDBRANCH  22  23
ENDBRANCH  21  22
ENDBRANCH  20  21
ENDBRANCH  19  20
ENDBRANCH  16  17
ENDBRANCH  15  16
ENDBRANCH   3  15
TORSDOF 14
ENDMDL
MODEL 6
REMARK VINA RESULT:      -6.1      6.449      7.727
REMARK  Name = 
REMARK  19 active torsions:
REMARK  status: ('A' for Active; 'I' for Inactive)
REMARK    1  A    between atoms: C_1  and  C_2
REMARK    2  A    between atoms: C_2  and  C_3
REMARK    3  A    between atoms: C_4  and  C_5
REMARK    4  A    between atoms: C_5  and  C_6
REMARK    5  A    between atoms: C_6  and  C_7
REMARK    6  A    between atoms: C_7  and  C_8
REMARK    7  A    between atoms: C_9  and  C_10
REMARK    8  A    between atoms: C_10  and  C_11
REMARK    9  A    between atoms: C_11  and  C_12
REMARK   10  A    between atoms: C_12  and  C_13
REMARK   11  A    between atoms: C_14  and  C_15
REMARK   12  A    between atoms: C_15  and  C_16
REMARK   13  A    between atoms: C_16  and  C_17
REMARK   14  A    between atoms: C_17  and  C_18
REMARK   15  A    between atoms: C_19  and  C_20
REMARK   16  A    between atoms: C_20  and  S_21
REMARK   17  A    between atoms: S_21  and  C_22
REMARK   18  A    between atoms: C_22  and  C_23
REMARK   19  A    between atoms: C_23  and  O_24
REMARK                            x       y       z     vdW  Elec       q    Type
REMARK                         _______ _______ _______ _____ _____    ______ ____
ROOT
ATOM      1  C   UNL     1       4.125   6.386  17.721  0.00  0.00    +0.000 C 
ATOM      2  C   UNL     1       4.488   6.154  19.170  0.00  0.00    +0.000 C 
ATOM      3  C   UNL     1       3.118   7.224  17.396  0.00  0.00    +0.000 C 
ENDROOT
BRANCH   1   4
ATOM      4  C   UNL     1       4.861   5.646  16.623  0.00  0.00    +0.000 C 
BRANCH   4   5
ATOM      5  C   UNL     1       5.160   4.184  16.957  0.00  0.00    +0.000 C 
BRANCH   5   8
ATOM      6  C   UNL     1       3.659   2.619  18.208  0.00  0.00    +0.000 C 
ATOM      7  C   UNL     1       4.587   2.626  19.396  0.00  0.00    +0.000 C 
ATOM      8  C   UNL     1       3.942   3.338  17.102  0.00  0.00    +0.000 C 
BRANCH   6   9
ATOM      9  C   UNL     1       2.414   1.762  18.349  0.00  0.00    +0.000 C 
BRANCH   9  10
ATOM     10  C   UNL     1       1.124   2.580  18.468  0.00  0.00    +0.000 C 
BRANCH  10  14
ATOM     11  C   UNL     1       1.498   5.523  20.946  0.00  0.00    +0.000 C 
ATOM     12  C   UNL     1       1.347   4.142  20.396  0.00  0.00    +0.000 C 
ATOM     13  C   UNL     1       1.294   2.995  21.375  0.00  0.00    +0.000 C 
ATOM     14  C   UNL     1       1.272   3.946  19.062  0.00  0.00    +0.000 C 
ENDBRANCH  10  14
ENDBRANCH   9  10
ENDBRANCH   6   9
ENDBRANCH   5   8
ENDBRANCH   4   5
ENDBRANCH   1   4
BRANCH   3  15
ATOM     15  C   UNL     1       2.307   7.985  18.406  0.00  0.00    +0.000 C 
BRANCH  15  16
ATOM     16  C   UNL     1       1.969   9.410  17.968  0.00  0.00    +0.000 C 
BRANCH  16  17
ATOM     17  C   UNL     1       0.687   9.877  18.625  0.00  0.00    +0.000 C 
ATOM     18  C   UNL     1      -0.557   9.838  17.773  0.00  0.00    +0.000 C 
ATOM     19  C   UNL     1       0.668  10.294  19.910  0.00  0.00    +0.000 C 
BRANCH  19  20
ATOM     20  C   UNL     1      -0.552  10.790  20.624  0.00  0.00    +0.000 C 
BRANCH  20  21
ATOM     21  S   UNL     1      -0.433  10.575  22.426  0.00  0.00    +0.000 S 
BRANCH  21  22
ATOM     22  C   UNL     1      -1.795  11.647  23.024  0.00  0.00    +0.000 C 
BRANCH  22  23
ATOM     23  C   UNL     1      -1.410  13.115  23.181  0.00  0.00    +0.000 C 
BRANCH  23  24
ATOM     24  O   UNL     1      -1.618  13.846  21.977  0.00  0.00    +0.000 OA
ATOM     25  H   UNL     1      -0.964  14.569  21.970  0.00  0.00    +0.000 HD
ENDBRANCH  23  24
ENDBRANCH  22  23
ENDBRANCH  21  22
ENDBRANCH  20  21
ENDBRANCH  19  20
ENDBRANCH  16  17
ENDBRANCH  15  16
ENDBRANCH   3  15
TORSDOF 14
ENDMDL
MODEL 7
REMARK VINA RESULT:      -6.0      5.113      8.533
REMARK  Name = 
REMARK  19 active torsions:
REMARK  status: ('A' for Active; 'I' for Inactive)
REMARK    1  A    between atoms: C_1  and  C_2
REMARK    2  A    between atoms: C_2  and  C_3
REMARK    3  A    between atoms: C_4  and  C_5
REMARK    4  A    between atoms: C_5  and  C_6
REMARK    5  A    between atoms: C_6  and  C_7
REMARK    6  A    between atoms: C_7  and  C_8
REMARK    7  A    between atoms: C_9  and  C_10
REMARK    8  A    between atoms: C_10  and  C_11
REMARK    9  A    between atoms: C_11  and  C_12
REMARK   10  A    between atoms: C_12  and  C_13
REMARK   11  A    between atoms: C_14  and  C_15
REMARK   12  A    between atoms: C_15  and  C_16
REMARK   13  A    between atoms: C_16  and  C_17
REMARK   14  A    between atoms: C_17  and  C_18
REMARK   15  A    between atoms: C_19  and  C_20
REMARK   16  A    between atoms: C_20  and  S_21
REMARK   17  A    between atoms: S_21  and  C_22
REMARK   18  A    between atoms: C_22  and  C_23
REMARK   19  A    between atoms: C_23  and  O_24
REMARK                            x       y       z     vdW  Elec       q    Type
REMARK                         _______ _______ _______ _____ _____    ______ ____
ROOT
ATOM      1  C   UNL     1       1.545   3.769  19.255  0.00  0.00    +0.000 C 
ATOM      2  C   UNL     1       1.143   4.406  17.945  0.00  0.00    +0.000 C 
ATOM      3  C   UNL     1       1.767   4.532  20.346  0.00  0.00    +0.000 C 
ENDROOT
BRANCH   1   4
ATOM      4  C   UNL     1       1.744   2.269  19.344  0.00  0.00    +0.000 C 
BRANCH   4   5
ATOM      5  C   UNL     1       3.129   1.803  18.892  0.00  0.00    +0.000 C 
BRANCH   5   8
ATOM      6  C   UNL     1       4.586   3.543  17.838  0.00  0.00    +0.000 C 
ATOM      7  C   UNL     1       5.132   3.949  19.183  0.00  0.00    +0.000 C 
ATOM      8  C   UNL     1       3.669   2.560  17.728  0.00  0.00    +0.000 C 
BRANCH   6   9
ATOM      9  C   UNL     1       5.134   4.308  16.646  0.00  0.00    +0.000 C 
BRANCH   9  10
ATOM     10  C   UNL     1       6.602   4.713  16.808  0.00  0.00    +0.000 C 
BRANCH  10  14
ATOM     11  C   UNL     1       7.776   8.299  17.645  0.00  0.00    +0.000 C 
ATOM     12  C   UNL     1       7.511   6.833  17.750  0.00  0.00    +0.000 C 
ATOM     13  C   UNL     1       7.973   6.120  18.997  0.00  0.00    +0.000 C 
ATOM     14  C   UNL     1       6.884   6.181  16.746  0.00  0.00    +0.000 C 
ENDBRANCH  10  14
ENDBRANCH   9  10
ENDBRANCH   6   9
ENDBRANCH   5   8
ENDBRANCH   4   5
ENDBRANCH   1   4
BRANCH   3  15
ATOM     15  C   UNL     1       1.625   6.028  20.360  0.00  0.00    +0.000 C 
BRANCH  15  16
ATOM     16  C   UNL     1       2.548   6.736  19.367  0.00  0.00    +0.000 C 
BRANCH  16  17
ATOM     17  C   UNL     1       2.055   8.142  19.096  0.00  0.00    +0.000 C 
ATOM     18  C   UNL     1       2.541   8.790  17.824  0.00  0.00    +0.000 C 
ATOM     19  C   UNL     1       1.217   8.769  19.950  0.00  0.00    +0.000 C 
BRANCH  19  20
ATOM     20  C   UNL     1       0.702  10.163  19.765  0.00  0.00    +0.000 C 
BRANCH  20  21
ATOM     21  S   UNL     1      -0.649  10.245  18.549  0.00  0.00    +0.000 S 
BRANCH  21  22
ATOM     22  C   UNL     1      -1.802  11.426  19.347  0.00  0.00    +0.000 C 
BRANCH  22  23
ATOM     23  C   UNL     1      -3.104  11.640  18.581  0.00  0.00    +0.000 C 
BRANCH  23  24
ATOM     24  O   UNL     1      -3.819  12.773  19.065  0.00  0.00    +0.000 OA
ATOM     25  H   UNL     1      -4.019  12.600  20.004  0.00  0.00    +0.000 HD
ENDBRANCH  23  24
ENDBRANCH  22  23
ENDBRANCH  21  22
ENDBRANCH  20  21
ENDBRANCH  19  20
ENDBRANCH  16  17
ENDBRANCH  15  16
ENDBRANCH   3  15
TORSDOF 14
ENDMDL
MODEL 8
REMARK VINA RESULT:      -6.0      3.282      4.598
REMARK  Name = 
REMARK  19 active torsions:
REMARK  status: ('A' for Active; 'I' for Inactive)
REMARK    1  A    between atoms: C_1  and  C_2
REMARK    2  A    between atoms: C_2  and  C_3
REMARK    3  A    between atoms: C_4  and  C_5
REMARK    4  A    between atoms: C_5  and  C_6
REMARK    5  A    between atoms: C_6  and  C_7
REMARK    6  A    between atoms: C_7  and  C_8
REMARK    7  A    between atoms: C_9  and  C_10
REMARK    8  A    between atoms: C_10  and  C_11
REMARK    9  A    between atoms: C_11  and  C_12
REMARK   10  A    between atoms: C_12  and  C_13
REMARK   11  A    between atoms: C_14  and  C_15
REMARK   12  A    between atoms: C_15  and  C_16
REMARK   13  A    between atoms: C_16  and  C_17
REMARK   14  A    between atoms: C_17  and  C_18
REMARK   15  A    between atoms: C_19  and  C_20
REMARK   16  A    between atoms: C_20  and  S_21
REMARK   17  A    between atoms: S_21  and  C_22
REMARK   18  A    between atoms: C_22  and  C_23
REMARK   19  A    between atoms: C_23  and  O_24
REMARK                            x       y       z     vdW  Elec       q    Type
REMARK                         _______ _______ _______ _____ _____    ______ ____
ROOT
ATOM      1  C   UNL     1       7.403   6.170  18.005  0.00  0.00    +0.000 C 
ATOM      2  C   UNL     1       7.776   5.709  19.395  0.00  0.00    +0.000 C 
ATOM      3  C   UNL     1       7.715   7.417  17.593  0.00  0.00    +0.000 C 
ENDROOT
BRANCH   1   4
ATOM      4  C   UNL     1       6.636   5.251  17.076  0.00  0.00    +0.000 C 
BRANCH   4   5
ATOM      5  C   UNL     1       5.650   5.979  16.162  0.00  0.00    +0.000 C 
BRANCH   5   8
ATOM      6  C   UNL     1       3.584   6.153  17.565  0.00  0.00    +0.000 C 
ATOM      7  C   UNL     1       3.450   4.652  17.611  0.00  0.00    +0.000 C 
ATOM      8  C   UNL     1       4.598   6.739  16.894  0.00  0.00    +0.000 C 
BRANCH   6   9
ATOM      9  C   UNL     1       2.518   6.933  18.311  0.00  0.00    +0.000 C 
BRANCH   9  10
ATOM     10  C   UNL     1       2.597   8.445  18.078  0.00  0.00    +0.000 C 
BRANCH  10  14
ATOM     11  C   UNL     1      -0.765  10.348  18.208  0.00  0.00    +0.000 C 
ATOM     12  C   UNL     1       0.508   9.685  18.626  0.00  0.00    +0.000 C 
ATOM     13  C   UNL     1       0.855   9.689  20.094  0.00  0.00    +0.000 C 
ATOM     14  C   UNL     1       1.313   9.115  17.704  0.00  0.00    +0.000 C 
ENDBRANCH  10  14
ENDBRANCH   9  10
ENDBRANCH   6   9
ENDBRANCH   5   8
ENDBRANCH   4   5
ENDBRANCH   1   4
BRANCH   3  15
ATOM     15  C   UNL     1       8.448   8.417  18.442  0.00  0.00    +0.000 C 
BRANCH  15  16
ATOM     16  C   UNL     1       8.382   9.844  17.898  0.00  0.00    +0.000 C 
BRANCH  16  17
ATOM     17  C   UNL     1       9.363  10.736  18.629  0.00  0.00    +0.000 C 
ATOM     18  C   UNL     1      10.320  11.527  17.772  0.00  0.00    +0.000 C 
ATOM     19  C   UNL     1       9.368  10.818  19.977  0.00  0.00    +0.000 C 
BRANCH  19  20
ATOM     20  C   UNL     1      10.317  11.658  20.775  0.00  0.00    +0.000 C 
BRANCH  20  21
ATOM     21  S   UNL     1       9.578  13.239  21.288  0.00  0.00    +0.000 S 
BRANCH  21  22
ATOM     22  C   UNL     1       8.759  12.777  22.863  0.00  0.00    +0.000 C 
BRANCH  22  23
ATOM     23  C   UNL     1       7.982  13.914  23.519  0.00  0.00    +0.000 C 
BRANCH  23  24
ATOM     24  O   UNL     1       8.724  14.520  24.573  0.00  0.00    +0.000 OA
ATOM     25  H   UNL     1       8.119  14.597  25.335  0.00  0.00    +0.000 HD
ENDBRANCH  23  24
ENDBRANCH  22  23
ENDBRANCH  21  22
ENDBRANCH  20  21
ENDBRANCH  19  20
ENDBRANCH  16  17
ENDBRANCH  15  16
ENDBRANCH   3  15
TORSDOF 14
ENDMDL
MODEL 9
REMARK VINA RESULT:      -6.0      1.707      2.305
REMARK  Name = 
REMARK  19 active torsions:
REMARK  status: ('A' for Active; 'I' for Inactive)
REMARK    1  A    between atoms: C_1  and  C_2
REMARK    2  A    between atoms: C_2  and  C_3
REMARK    3  A    between atoms: C_4  and  C_5
REMARK    4  A    between atoms: C_5  and  C_6
REMARK    5  A    between atoms: C_6  and  C_7
REMARK    6  A    between atoms: C_7  and  C_8
REMARK    7  A    between atoms: C_9  and  C_10
REMARK    8  A    between atoms: C_10  and  C_11
REMARK    9  A    between atoms: C_11  and  C_12
REMARK   10  A    between atoms: C_12  and  C_13
REMARK   11  A    between atoms: C_14  and  C_15
REMARK   12  A    between atoms: C_15  and  C_16
REMARK   13  A    between atoms: C_16  and  C_17
REMARK   14  A    between atoms: C_17  and  C_18
REMARK   15  A    between atoms: C_19  and  C_20
REMARK   16  A    between atoms: C_20  and  S_21
REMARK   17  A    between atoms: S_21  and  C_22
REMARK   18  A    between atoms: C_22  and  C_23
REMARK   19  A    between atoms: C_23  and  O_24
REMARK                            x       y       z     vdW  Elec       q    Type
REMARK                         _______ _______ _______ _____ _____    ______ ____
ROOT
ATOM      1  C   UNL     1       7.539   7.565  17.784  0.00  0.00    +0.000 C 
ATOM      2  C   UNL     1       8.136   6.680  18.854  0.00  0.00    +0.000 C 
ATOM      3  C   UNL     1       7.936   8.849  17.662  0.00  0.00    +0.000 C 
ENDROOT
BRANCH   1   4
ATOM      4  C   UNL     1       6.458   7.030  16.868  0.00  0.00    +0.000 C 
BRANCH   4   5
ATOM      5  C   UNL     1       6.618   5.549  16.523  0.00  0.00    +0.000 C 
BRANCH   5   8
ATOM      6  C   UNL     1       4.807   4.139  17.522  0.00  0.00    +0.000 C 
ATOM      7  C   UNL     1       5.515   4.113  18.853  0.00  0.00    +0.000 C 
ATOM      8  C   UNL     1       5.330   4.801  16.470  0.00  0.00    +0.000 C 
BRANCH   6   9
ATOM      9  C   UNL     1       3.493   3.381  17.461  0.00  0.00    +0.000 C 
BRANCH   9  10
ATOM     10  C   UNL     1       2.263   4.291  17.556  0.00  0.00    +0.000 C 
BRANCH  10  14
ATOM     11  C   UNL     1       2.035   6.834  20.458  0.00  0.00    +0.000 C 
ATOM     12  C   UNL     1       2.290   6.235  19.113  0.00  0.00    +0.000 C 
ATOM     13  C   UNL     1       2.833   7.136  18.031  0.00  0.00    +0.000 C 
ATOM     14  C   UNL     1       2.027   4.929  18.888  0.00  0.00    +0.000 C 
ENDBRANCH  10  14
ENDBRANCH   9  10
ENDBRANCH   6   9
ENDBRANCH   5   8
ENDBRANCH   4   5
ENDBRANCH   1   4
BRANCH   3  15
ATOM     15  C   UNL     1       8.980   9.487  18.536  0.00  0.00    +0.000 C 
BRANCH  15  16
ATOM     16  C   UNL     1       8.823  11.002  18.665  0.00  0.00    +0.000 C 
BRANCH  16  17
ATOM     17  C   UNL     1      10.056  11.709  18.144  0.00  0.00    +0.000 C 
ATOM     18  C   UNL     1      11.366  10.979  18.303  0.00  0.00    +0.000 C 
ATOM     19  C   UNL     1       9.975  12.925  17.561  0.00  0.00    +0.000 C 
BRANCH  19  20
ATOM     20  C   UNL     1      11.148  13.697  17.040  0.00  0.00    +0.000 C 
BRANCH  20  21
ATOM     21  S   UNL     1      11.428  15.237  17.966  0.00  0.00    +0.000 S 
BRANCH  21  22
ATOM     22  C   UNL     1      10.303  16.403  17.108  0.00  0.00    +0.000 C 
BRANCH  22  23
ATOM     23  C   UNL     1       9.199  16.972  17.995  0.00  0.00    +0.000 C 
BRANCH  23  24
ATOM     24  O   UNL     1       9.272  16.459  19.321  0.00  0.00    +0.000 OA
ATOM     25  H   UNL     1       9.537  17.201  19.896  0.00  0.00    +0.000 HD
ENDBRANCH  23  24
ENDBRANCH  22  23
ENDBRANCH  21  22
ENDBRANCH  20  21
ENDBRANCH  19  20
ENDBRANCH  16  17
ENDBRANCH  15  16
ENDBRANCH   3  15
TORSDOF 14
ENDMDL
