MODEL 1
REMARK VINA RESULT:      -9.5      0.000      0.000
REMARK  Name = 
REMARK  5 active torsions:
REMARK  status: ('A' for Active; 'I' for Inactive)
REMARK    1  A    between atoms: N_11  and  C_12
REMARK    2  A    between atoms: C_12  and  C_13
REMARK    3  A    between atoms: C_13  and  C_14
REMARK    4  A    between atoms: C_14  and  C_15
REMARK    5  A    between atoms: C_15  and  C_16
REMARK                            x       y       z     vdW  Elec       q    Type
REMARK                         _______ _______ _______ _____ _____    ______ ____
ROOT
ATOM      1  C   UNL     1       6.424   7.056  17.297  0.00  0.00    +0.000 C 
ATOM      2  C   UNL     1       4.928   7.273  16.837  0.00  0.00    +0.000 C 
ATOM      3  C   UNL     1       3.990   6.883  17.956  0.00  0.00    +0.000 A 
ATOM      4  C   UNL     1       2.949   7.691  18.406  0.00  0.00    +0.000 A 
ATOM      5  C   UNL     1       2.194   7.289  19.510  0.00  0.00    +0.000 A 
ATOM      6  C   UNL     1       2.445   6.062  20.131  0.00  0.00    +0.000 A 
ATOM      7  C   UNL     1       3.496   5.255  19.693  0.00  0.00    +0.000 A 
ATOM      8  C   UNL     1       4.294   5.683  18.625  0.00  0.00    +0.000 A 
ATOM      9  C   UNL     1       5.654   5.080  18.331  0.00  0.00    +0.000 C 
ATOM     10  O   UNL     1       6.515   6.271  18.499  0.00  0.00    +0.000 OA
ATOM     11  C   UNL     1       5.879   4.489  16.957  0.00  0.00    +0.000 A 
ATOM     12  C   UNL     1       6.762   5.071  16.136  0.00  0.00    +0.000 A 
ATOM     13  C   UNL     1       7.004   4.651  14.783  0.00  0.00    +0.000 A 
ATOM     14  C   UNL     1       8.084   5.154  14.047  0.00  0.00    +0.000 A 
ATOM     15  C   UNL     1       8.060   5.078  12.664  0.00  0.00    +0.000 A 
ATOM     16  C   UNL     1       6.960   4.494  12.031  0.00  0.00    +0.000 A 
ATOM     17  C   UNL     1       5.925   3.910  12.782  0.00  0.00    +0.000 A 
ATOM     18  C   UNL     1       5.978   3.963  14.169  0.00  0.00    +0.000 A 
ATOM     19  O   UNL     1       4.981   3.363  14.974  0.00  0.00    +0.000 OA
ATOM     20  C   UNL     1       5.018   3.435  16.387  0.00  0.00    +0.000 A 
ATOM     21  O   UNL     1       4.295   2.737  17.086  0.00  0.00    +0.000 OA
ATOM     22  O   UNL     1       7.225   6.343  16.347  0.00  0.00    +0.000 OA
ENDROOT
BRANCH   1  23
ATOM     23  C   UNL     1       7.147   8.412  17.324  0.00  0.00    +0.000 C 
BRANCH  23  24
ATOM     24  C   UNL     1       8.314   8.576  18.294  0.00  0.00    +0.000 C 
BRANCH  24  25
ATOM     25  C   UNL     1       8.784  10.010  18.453  0.00  0.00    +0.000 C 
BRANCH  25  26
ATOM     26  C   UNL     1       9.613  10.169  19.726  0.00  0.00    +0.000 C 
BRANCH  26  37
ATOM     27  O   UNL     1       8.591  12.165  21.644  0.00  0.00    +0.000 OA
ATOM     28  C   UNL     1       9.484  12.365  20.844  0.00  0.00    +0.000 C 
ATOM     29  C   UNL     1      10.211  13.622  20.732  0.00  0.00    +0.000 A 
ATOM     30  C   UNL     1      10.080  14.788  21.462  0.00  0.00    +0.000 A 
ATOM     31  C   UNL     1      10.950  15.831  21.142  0.00  0.00    +0.000 A 
ATOM     32  C   UNL     1      11.910  15.688  20.117  0.00  0.00    +0.000 A 
ATOM     33  C   UNL     1      12.017  14.501  19.391  0.00  0.00    +0.000 A 
ATOM     34  C   UNL     1      11.150  13.478  19.727  0.00  0.00    +0.000 A 
ATOM     35  C   UNL     1      11.024  12.130  19.190  0.00  0.00    +0.000 C 
ATOM     36  O   UNL     1      11.701  11.680  18.286  0.00  0.00    +0.000 OA
ATOM     37  N   UNL     1      10.033  11.529  19.914  0.00  0.00    +0.000 N 
ENDBRANCH  26  37
ENDBRANCH  25  26
ENDBRANCH  24  25
ENDBRANCH  23  24
ENDBRANCH   1  23
TORSDOF 5
ENDMDL
MODEL 2
REMARK VINA RESULT:      -9.4      0.281      1.461
REMARK  Name = 
REMARK  5 active torsions:
REMARK  status: ('A' for Active; 'I' for Inactive)
REMARK    1  A    between atoms: N_11  and  C_12
REMARK    2  A    between atoms: C_12  and  C_13
REMARK    3  A    between atoms: C_13  and  C_14
REMARK    4  A    between atoms: C_14  and  C_15
REMARK    5  A    between atoms: C_15  and  C_16
REMARK                            x       y       z     vdW  Elec       q    Type
REMARK                         _______ _______ _______ _____ _____    ______ ____
ROOT
ATOM      1  C   UNL     1       6.249   7.118  17.301  0.00  0.00    +0.000 C 
ATOM      2  C   UNL     1       4.748   7.277  16.834  0.00  0.00    +0.000 C 
ATOM      3  C   UNL     1       3.821   6.895  17.965  0.00  0.00    +0.000 A 
ATOM      4  C   UNL     1       2.756   7.687  18.389  0.00  0.00    +0.000 A 
ATOM      5  C   UNL     1       2.011   7.298  19.504  0.00  0.00    +0.000 A 
ATOM      6  C   UNL     1       2.297   6.099  20.164  0.00  0.00    +0.000 A 
ATOM      7  C   UNL     1       3.371   5.309  19.752  0.00  0.00    +0.000 A 
ATOM      8  C   UNL     1       4.159   5.726  18.671  0.00  0.00    +0.000 A 
ATOM      9  C   UNL     1       5.536   5.155  18.397  0.00  0.00    +0.000 C 
ATOM     10  O   UNL     1       6.362   6.374  18.527  0.00  0.00    +0.000 OA
ATOM     11  C   UNL     1       5.779   4.527  17.042  0.00  0.00    +0.000 A 
ATOM     12  C   UNL     1       6.645   5.109  16.203  0.00  0.00    +0.000 A 
ATOM     13  C   UNL     1       6.901   4.653  14.864  0.00  0.00    +0.000 A 
ATOM     14  C   UNL     1       7.967   5.165  14.113  0.00  0.00    +0.000 A 
ATOM     15  C   UNL     1       7.947   5.044  12.733  0.00  0.00    +0.000 A 
ATOM     16  C   UNL     1       6.866   4.409  12.119  0.00  0.00    +0.000 A 
ATOM     17  C   UNL     1       5.847   3.818  12.888  0.00  0.00    +0.000 A 
ATOM     18  C   UNL     1       5.897   3.917  14.272  0.00  0.00    +0.000 A 
ATOM     19  O   UNL     1       4.917   3.314  15.095  0.00  0.00    +0.000 OA
ATOM     20  C   UNL     1       4.950   3.431  16.505  0.00  0.00    +0.000 A 
ATOM     21  O   UNL     1       4.247   2.735  17.226  0.00  0.00    +0.000 OA
ATOM     22  O   UNL     1       7.072   6.400  16.374  0.00  0.00    +0.000 OA
ENDROOT
BRANCH   1  23
ATOM     23  C   UNL     1       6.933   8.495  17.285  0.00  0.00    +0.000 C 
BRANCH  23  24
ATOM     24  C   UNL     1       8.295   8.620  17.962  0.00  0.00    +0.000 C 
BRANCH  24  25
ATOM     25  C   UNL     1       8.656  10.038  18.360  0.00  0.00    +0.000 C 
BRANCH  25  26
ATOM     26  C   UNL     1       9.591  10.040  19.567  0.00  0.00    +0.000 C 
BRANCH  26  37
ATOM     27  O   UNL     1      11.611  11.827  18.371  0.00  0.00    +0.000 OA
ATOM     28  C   UNL     1      10.906  12.114  19.318  0.00  0.00    +0.000 C 
ATOM     29  C   UNL     1      10.931  13.404  19.991  0.00  0.00    +0.000 A 
ATOM     30  C   UNL     1      11.690  14.528  19.724  0.00  0.00    +0.000 A 
ATOM     31  C   UNL     1      11.471  15.643  20.534  0.00  0.00    +0.000 A 
ATOM     32  C   UNL     1      10.516  15.608  21.574  0.00  0.00    +0.000 A 
ATOM     33  C   UNL     1       9.766  14.459  21.826  0.00  0.00    +0.000 A 
ATOM     34  C   UNL     1       9.996  13.367  21.009  0.00  0.00    +0.000 A 
ATOM     35  C   UNL     1       9.372  12.051  20.993  0.00  0.00    +0.000 C 
ATOM     36  O   UNL     1       8.508  11.686  21.766  0.00  0.00    +0.000 OA
ATOM     37  N   UNL     1       9.949  11.376  19.954  0.00  0.00    +0.000 N 
ENDBRANCH  26  37
ENDBRANCH  25  26
ENDBRANCH  24  25
ENDBRANCH  23  24
ENDBRANCH   1  23
TORSDOF 5
ENDMDL
MODEL 3
REMARK VINA RESULT:      -9.4      6.170     11.195
REMARK  Name = 
REMARK  5 active torsions:
REMARK  status: ('A' for Active; 'I' for Inactive)
REMARK    1  A    between atoms: N_11  and  C_12
REMARK    2  A    between atoms: C_12  and  C_13
REMARK    3  A    between atoms: C_13  and  C_14
REMARK    4  A    between atoms: C_14  and  C_15
REMARK    5  A    between atoms: C_15  and  C_16
REMARK                            x       y       z     vdW  Elec       q    Type
REMARK                         _______ _______ _______ _____ _____    ______ ____
ROOT
ATOM      1  C   UNL     1       0.433  11.714  19.622  0.00  0.00    +0.000 C 
ATOM      2  C   UNL     1       0.545  12.114  21.147  0.00  0.00    +0.000 C 
ATOM      3  C   UNL     1      -0.838  12.268  21.736  0.00  0.00    +0.000 A 
ATOM      4  C   UNL     1      -1.240  11.664  22.926  0.00  0.00    +0.000 A 
ATOM      5  C   UNL     1      -2.567  11.784  23.343  0.00  0.00    +0.000 A 
ATOM      6  C   UNL     1      -3.477  12.545  22.602  0.00  0.00    +0.000 A 
ATOM      7  C   UNL     1      -3.083  13.141  21.403  0.00  0.00    +0.000 A 
ATOM      8  C   UNL     1      -1.768  12.972  20.950  0.00  0.00    +0.000 A 
ATOM      9  C   UNL     1      -1.359  13.246  19.516  0.00  0.00    +0.000 C 
ATOM     10  O   UNL     1      -0.898  11.901  19.108  0.00  0.00    +0.000 OA
ATOM     11  C   UNL     1      -0.250  14.248  19.281  0.00  0.00    +0.000 A 
ATOM     12  C   UNL     1       0.912  13.823  18.771  0.00  0.00    +0.000 A 
ATOM     13  C   UNL     1       2.063  14.662  18.577  0.00  0.00    +0.000 A 
ATOM     14  C   UNL     1       3.172  14.218  17.845  0.00  0.00    +0.000 A 
ATOM     15  C   UNL     1       4.397  14.840  18.021  0.00  0.00    +0.000 A 
ATOM     16  C   UNL     1       4.500  15.903  18.921  0.00  0.00    +0.000 A 
ATOM     17  C   UNL     1       3.362  16.399  19.582  0.00  0.00    +0.000 A 
ATOM     18  C   UNL     1       2.133  15.787  19.370  0.00  0.00    +0.000 A 
ATOM     19  O   UNL     1       0.951  16.266  19.982  0.00  0.00    +0.000 OA
ATOM     20  C   UNL     1      -0.300  15.633  19.789  0.00  0.00    +0.000 A 
ATOM     21  O   UNL     1      -1.350  16.164  20.126  0.00  0.00    +0.000 OA
ATOM     22  O   UNL     1       1.261  12.498  18.755  0.00  0.00    +0.000 OA
ENDROOT
BRANCH   1  23
ATOM     23  C   UNL     1       1.042  10.318  19.418  0.00  0.00    +0.000 C 
BRANCH  23  24
ATOM     24  C   UNL     1       1.784  10.050  18.112  0.00  0.00    +0.000 C 
BRANCH  24  25
ATOM     25  C   UNL     1       1.811   8.588  17.709  0.00  0.00    +0.000 C 
BRANCH  25  26
ATOM     26  C   UNL     1       3.052   7.895  18.267  0.00  0.00    +0.000 C 
BRANCH  26  37
ATOM     27  O   UNL     1       1.590   7.046  20.685  0.00  0.00    +0.000 OA
ATOM     28  C   UNL     1       2.063   6.290  19.859  0.00  0.00    +0.000 C 
ATOM     29  C   UNL     1       1.950   4.839  19.923  0.00  0.00    +0.000 A 
ATOM     30  C   UNL     1       1.316   4.041  20.856  0.00  0.00    +0.000 A 
ATOM     31  C   UNL     1       1.353   2.664  20.634  0.00  0.00    +0.000 A 
ATOM     32  C   UNL     1       2.012   2.127  19.507  0.00  0.00    +0.000 A 
ATOM     33  C   UNL     1       2.649   2.956  18.583  0.00  0.00    +0.000 A 
ATOM     34  C   UNL     1       2.597   4.318  18.818  0.00  0.00    +0.000 A 
ATOM     35  C   UNL     1       3.130   5.432  18.045  0.00  0.00    +0.000 C 
ATOM     36  O   UNL     1       3.761   5.318  17.013  0.00  0.00    +0.000 OA
ATOM     37  N   UNL     1       2.755   6.564  18.715  0.00  0.00    +0.000 N 
ENDBRANCH  26  37
ENDBRANCH  25  26
ENDBRANCH  24  25
ENDBRANCH  23  24
ENDBRANCH   1  23
TORSDOF 5
ENDMDL
MODEL 4
REMARK VINA RESULT:      -9.2      5.418     10.794
REMARK  Name = 
REMARK  5 active torsions:
REMARK  status: ('A' for Active; 'I' for Inactive)
REMARK    1  A    between atoms: N_11  and  C_12
REMARK    2  A    between atoms: C_12  and  C_13
REMARK    3  A    between atoms: C_13  and  C_14
REMARK    4  A    between atoms: C_14  and  C_15
REMARK    5  A    between atoms: C_15  and  C_16
REMARK                            x       y       z     vdW  Elec       q    Type
REMARK                         _______ _______ _______ _____ _____    ______ ____
ROOT
ATOM      1  C   UNL     1       0.799  11.724  19.140  0.00  0.00    +0.000 C 
ATOM      2  C   UNL     1       1.499  11.092  20.408  0.00  0.00    +0.000 C 
ATOM      3  C   UNL     1       0.487  10.931  21.520  0.00  0.00    +0.000 A 
ATOM      4  C   UNL     1       0.308   9.747  22.233  0.00  0.00    +0.000 A 
ATOM      5  C   UNL     1      -0.716   9.663  23.178  0.00  0.00    +0.000 A 
ATOM      6  C   UNL     1      -1.527  10.770  23.445  0.00  0.00    +0.000 A 
ATOM      7  C   UNL     1      -1.360  11.954  22.725  0.00  0.00    +0.000 A 
ATOM      8  C   UNL     1      -0.374  12.023  21.733  0.00  0.00    +0.000 A 
ATOM      9  C   UNL     1      -0.367  13.098  20.664  0.00  0.00    +0.000 C 
ATOM     10  O   UNL     1      -0.498  12.266  19.448  0.00  0.00    +0.000 OA
ATOM     11  C   UNL     1       0.868  13.965  20.546  0.00  0.00    +0.000 A 
ATOM     12  C   UNL     1       1.621  13.876  19.443  0.00  0.00    +0.000 A 
ATOM     13  C   UNL     1       2.855  14.588  19.249  0.00  0.00    +0.000 A 
ATOM     14  C   UNL     1       3.484  14.625  17.999  0.00  0.00    +0.000 A 
ATOM     15  C   UNL     1       4.833  14.933  17.925  0.00  0.00    +0.000 A 
ATOM     16  C   UNL     1       5.536  15.206  19.100  0.00  0.00    +0.000 A 
ATOM     17  C   UNL     1       4.874  15.256  20.340  0.00  0.00    +0.000 A 
ATOM     18  C   UNL     1       3.515  14.979  20.395  0.00  0.00    +0.000 A 
ATOM     19  O   UNL     1       2.792  15.047  21.610  0.00  0.00    +0.000 OA
ATOM     20  C   UNL     1       1.412  14.742  21.676  0.00  0.00    +0.000 A 
ATOM     21  O   UNL     1       0.739  15.014  22.662  0.00  0.00    +0.000 OA
ATOM     22  O   UNL     1       1.516  12.825  18.571  0.00  0.00    +0.000 OA
ENDROOT
BRANCH   1  23
ATOM     23  C   UNL     1       0.847  10.717  17.980  0.00  0.00    +0.000 C 
BRANCH  23  24
ATOM     24  C   UNL     1       2.136   9.924  17.781  0.00  0.00    +0.000 C 
BRANCH  24  25
ATOM     25  C   UNL     1       1.924   8.427  17.660  0.00  0.00    +0.000 C 
BRANCH  25  26
ATOM     26  C   UNL     1       3.164   7.665  18.120  0.00  0.00    +0.000 C 
BRANCH  26  37
ATOM     27  O   UNL     1       1.719   6.966  20.595  0.00  0.00    +0.000 OA
ATOM     28  C   UNL     1       2.147   6.161  19.792  0.00  0.00    +0.000 C 
ATOM     29  C   UNL     1       1.982   4.720  19.914  0.00  0.00    +0.000 A 
ATOM     30  C   UNL     1       1.337   3.982  20.888  0.00  0.00    +0.000 A 
ATOM     31  C   UNL     1       1.318   2.597  20.720  0.00  0.00    +0.000 A 
ATOM     32  C   UNL     1       1.934   1.993  19.603  0.00  0.00    +0.000 A 
ATOM     33  C   UNL     1       2.584   2.761  18.636  0.00  0.00    +0.000 A 
ATOM     34  C   UNL     1       2.588   4.132  18.819  0.00  0.00    +0.000 A 
ATOM     35  C   UNL     1       3.146   5.194  17.994  0.00  0.00    +0.000 C 
ATOM     36  O   UNL     1       3.753   5.016  16.956  0.00  0.00    +0.000 OA
ATOM     37  N   UNL     1       2.827   6.364  18.625  0.00  0.00    +0.000 N 
ENDBRANCH  26  37
ENDBRANCH  25  26
ENDBRANCH  24  25
ENDBRANCH  23  24
ENDBRANCH   1  23
TORSDOF 5
ENDMDL
MODEL 5
REMARK VINA RESULT:      -9.1      2.767     10.803
REMARK  Name = 
REMARK  5 active torsions:
REMARK  status: ('A' for Active; 'I' for Inactive)
REMARK    1  A    between atoms: N_11  and  C_12
REMARK    2  A    between atoms: C_12  and  C_13
REMARK    3  A    between atoms: C_13  and  C_14
REMARK    4  A    between atoms: C_14  and  C_15
REMARK    5  A    between atoms: C_15  and  C_16
REMARK                            x       y       z     vdW  Elec       q    Type
REMARK                         _______ _______ _______ _____ _____    ______ ____
ROOT
ATOM      1  C   UNL     1       9.359  12.444  19.284  0.00  0.00    +0.000 C 
ATOM      2  C   UNL     1       8.692  13.806  18.840  0.00  0.00    +0.000 C 
ATOM      3  C   UNL     1       9.757  14.751  18.332  0.00  0.00    +0.000 A 
ATOM      4  C   UNL     1       9.667  15.433  17.120  0.00  0.00    +0.000 A 
ATOM      5  C   UNL     1      10.743  16.211  16.688  0.00  0.00    +0.000 A 
ATOM      6  C   UNL     1      11.884  16.348  17.485  0.00  0.00    +0.000 A 
ATOM      7  C   UNL     1      11.984  15.656  18.693  0.00  0.00    +0.000 A 
ATOM      8  C   UNL     1      10.933  14.826  19.101  0.00  0.00    +0.000 A 
ATOM      9  C   UNL     1      11.099  13.766  20.172  0.00  0.00    +0.000 C 
ATOM     10  O   UNL     1      10.790  12.548  19.393  0.00  0.00    +0.000 OA
ATOM     11  C   UNL     1      10.186  13.835  21.377  0.00  0.00    +0.000 A 
ATOM     12  C   UNL     1       9.290  12.860  21.569  0.00  0.00    +0.000 A 
ATOM     13  C   UNL     1       8.319  12.854  22.629  0.00  0.00    +0.000 A 
ATOM     14  C   UNL     1       7.555  11.714  22.909  0.00  0.00    +0.000 A 
ATOM     15  C   UNL     1       6.369  11.845  23.615  0.00  0.00    +0.000 A 
ATOM     16  C   UNL     1       5.964  13.113  24.038  0.00  0.00    +0.000 A 
ATOM     17  C   UNL     1       6.784  14.237  23.832  0.00  0.00    +0.000 A 
ATOM     18  C   UNL     1       7.985  14.085  23.152  0.00  0.00    +0.000 A 
ATOM     19  O   UNL     1       8.864  15.175  22.946  0.00  0.00    +0.000 OA
ATOM     20  C   UNL     1      10.078  15.031  22.234  0.00  0.00    +0.000 A 
ATOM     21  O   UNL     1      10.939  15.902  22.246  0.00  0.00    +0.000 OA
ATOM     22  O   UNL     1       8.938  11.986  20.574  0.00  0.00    +0.000 OA
ENDROOT
BRANCH   1  23
ATOM     23  C   UNL     1       8.834  11.308  18.390  0.00  0.00    +0.000 C 
BRANCH  23  24
ATOM     24  C   UNL     1       8.965   9.878  18.907  0.00  0.00    +0.000 C 
BRANCH  24  25
ATOM     25  C   UNL     1       8.067   8.883  18.197  0.00  0.00    +0.000 C 
BRANCH  25  26
ATOM     26  C   UNL     1       8.442   7.452  18.572  0.00  0.00    +0.000 C 
BRANCH  26  37
ATOM     27  O   UNL     1       7.565   5.261  20.342  0.00  0.00    +0.000 OA
ATOM     28  C   UNL     1       7.019   5.573  19.303  0.00  0.00    +0.000 C 
ATOM     29  C   UNL     1       5.821   4.927  18.786  0.00  0.00    +0.000 A 
ATOM     30  C   UNL     1       5.069   3.898  19.320  0.00  0.00    +0.000 A 
ATOM     31  C   UNL     1       3.940   3.504  18.601  0.00  0.00    +0.000 A 
ATOM     32  C   UNL     1       3.596   4.136  17.386  0.00  0.00    +0.000 A 
ATOM     33  C   UNL     1       4.375   5.170  16.866  0.00  0.00    +0.000 A 
ATOM     34  C   UNL     1       5.487   5.548  17.596  0.00  0.00    +0.000 A 
ATOM     35  C   UNL     1       6.473   6.590  17.345  0.00  0.00    +0.000 C 
ATOM     36  O   UNL     1       6.474   7.323  16.375  0.00  0.00    +0.000 OA
ATOM     37  N   UNL     1       7.333   6.556  18.408  0.00  0.00    +0.000 N 
ENDBRANCH  26  37
ENDBRANCH  25  26
ENDBRANCH  24  25
ENDBRANCH  23  24
ENDBRANCH   1  23
TORSDOF 5
ENDMDL
MODEL 6
REMARK VINA RESULT:      -9.1      1.421      1.627
REMARK  Name = 
REMARK  5 active torsions:
REMARK  status: ('A' for Active; 'I' for Inactive)
REMARK    1  A    between atoms: N_11  and  C_12
REMARK    2  A    between atoms: C_12  and  C_13
REMARK    3  A    between atoms: C_13  and  C_14
REMARK    4  A    between atoms: C_14  and  C_15
REMARK    5  A    between atoms: C_15  and  C_16
REMARK                            x       y       z     vdW  Elec       q    Type
REMARK                         _______ _______ _______ _____ _____    ______ ____
ROOT
ATOM      1  C   UNL     1       6.304   7.039  17.380  0.00  0.00    +0.000 C 
ATOM      2  C   UNL     1       4.801   7.215  16.923  0.00  0.00    +0.000 C 
ATOM      3  C   UNL     1       3.877   6.806  18.046  0.00  0.00    +0.000 A 
ATOM      4  C   UNL     1       2.816   7.590  18.495  0.00  0.00    +0.000 A 
ATOM      5  C   UNL     1       2.075   7.174  19.602  0.00  0.00    +0.000 A 
ATOM      6  C   UNL     1       2.359   5.957  20.229  0.00  0.00    +0.000 A 
ATOM      7  C   UNL     1       3.429   5.174  19.792  0.00  0.00    +0.000 A 
ATOM      8  C   UNL     1       4.214   5.617  18.720  0.00  0.00    +0.000 A 
ATOM      9  C   UNL     1       5.588   5.049  18.425  0.00  0.00    +0.000 C 
ATOM     10  O   UNL     1       6.418   6.262  18.585  0.00  0.00    +0.000 OA
ATOM     11  C   UNL     1       5.824   4.457  17.053  0.00  0.00    +0.000 A 
ATOM     12  C   UNL     1       6.689   5.058  16.227  0.00  0.00    +0.000 A 
ATOM     13  C   UNL     1       6.939   4.638  14.875  0.00  0.00    +0.000 A 
ATOM     14  C   UNL     1       8.004   5.166  14.134  0.00  0.00    +0.000 A 
ATOM     15  C   UNL     1       7.978   5.082  12.751  0.00  0.00    +0.000 A 
ATOM     16  C   UNL     1       6.893   4.467  12.125  0.00  0.00    +0.000 A 
ATOM     17  C   UNL     1       5.874   3.860  12.881  0.00  0.00    +0.000 A 
ATOM     18  C   UNL     1       5.930   3.922  14.267  0.00  0.00    +0.000 A 
ATOM     19  O   UNL     1       4.950   3.299  15.077  0.00  0.00    +0.000 OA
ATOM     20  C   UNL     1       4.989   3.379  16.490  0.00  0.00    +0.000 A 
ATOM     21  O   UNL     1       4.286   2.666  17.194  0.00  0.00    +0.000 OA
ATOM     22  O   UNL     1       7.121   6.342  16.431  0.00  0.00    +0.000 OA
ENDROOT
BRANCH   1  23
ATOM     23  C   UNL     1       6.992   8.413  17.399  0.00  0.00    +0.000 C 
BRANCH  23  24
ATOM     24  C   UNL     1       8.355   8.517  18.079  0.00  0.00    +0.000 C 
BRANCH  24  25
ATOM     25  C   UNL     1       8.627   9.870  18.708  0.00  0.00    +0.000 C 
BRANCH  25  26
ATOM     26  C   UNL     1       9.618  10.668  17.865  0.00  0.00    +0.000 C 
BRANCH  26  37
ATOM     27  O   UNL     1      11.470  12.224  19.555  0.00  0.00    +0.000 OA
ATOM     28  C   UNL     1      10.500  12.683  18.986  0.00  0.00    +0.000 C 
ATOM     29  C   UNL     1      10.120  14.088  19.027  0.00  0.00    +0.000 A 
ATOM     30  C   UNL     1      10.733  15.152  19.659  0.00  0.00    +0.000 A 
ATOM     31  C   UNL     1      10.145  16.407  19.492  0.00  0.00    +0.000 A 
ATOM     32  C   UNL     1       8.979  16.564  18.712  0.00  0.00    +0.000 A 
ATOM     33  C   UNL     1       8.377  15.472  18.087  0.00  0.00    +0.000 A 
ATOM     34  C   UNL     1       8.978  14.238  18.262  0.00  0.00    +0.000 A 
ATOM     35  C   UNL     1       8.620  12.929  17.732  0.00  0.00    +0.000 C 
ATOM     36  O   UNL     1       7.659  12.710  17.022  0.00  0.00    +0.000 OA
ATOM     37  N   UNL     1       9.578  12.067  18.188  0.00  0.00    +0.000 N 
ENDBRANCH  26  37
ENDBRANCH  25  26
ENDBRANCH  24  25
ENDBRANCH  23  24
ENDBRANCH   1  23
TORSDOF 5
ENDMDL
MODEL 7
REMARK VINA RESULT:      -9.1      5.965     11.135
REMARK  Name = 
REMARK  5 active torsions:
REMARK  status: ('A' for Active; 'I' for Inactive)
REMARK    1  A    between atoms: N_11  and  C_12
REMARK    2  A    between atoms: C_12  and  C_13
REMARK    3  A    between atoms: C_13  and  C_14
REMARK    4  A    between atoms: C_14  and  C_15
REMARK    5  A    between atoms: C_15  and  C_16
REMARK                            x       y       z     vdW  Elec       q    Type
REMARK                         _______ _______ _______ _____ _____    ______ ____
ROOT
ATOM      1  C   UNL     1       0.346  11.598  19.484  0.00  0.00    +0.000 C 
ATOM      2  C   UNL     1       0.596  11.751  21.037  0.00  0.00    +0.000 C 
ATOM      3  C   UNL     1      -0.717  12.013  21.740  0.00  0.00    +0.000 A 
ATOM      4  C   UNL     1      -1.144  11.305  22.861  0.00  0.00    +0.000 A 
ATOM      5  C   UNL     1      -2.414  11.551  23.386  0.00  0.00    +0.000 A 
ATOM      6  C   UNL     1      -3.235  12.534  22.824  0.00  0.00    +0.000 A 
ATOM      7  C   UNL     1      -2.817  13.236  21.692  0.00  0.00    +0.000 A 
ATOM      8  C   UNL     1      -1.568  12.949  21.126  0.00  0.00    +0.000 A 
ATOM      9  C   UNL     1      -1.196  13.369  19.718  0.00  0.00    +0.000 C 
ATOM     10  O   UNL     1      -0.966  12.046  19.097  0.00  0.00    +0.000 OA
ATOM     11  C   UNL     1       0.038  14.226  19.542  0.00  0.00    +0.000 A 
ATOM     12  C   UNL     1       1.095  13.718  18.896  0.00  0.00    +0.000 A 
ATOM     13  C   UNL     1       2.348  14.404  18.736  0.00  0.00    +0.000 A 
ATOM     14  C   UNL     1       3.338  13.918  17.872  0.00  0.00    +0.000 A 
ATOM     15  C   UNL     1       4.651  14.327  18.042  0.00  0.00    +0.000 A 
ATOM     16  C   UNL     1       4.959  15.221  19.070  0.00  0.00    +0.000 A 
ATOM     17  C   UNL     1       3.945  15.772  19.873  0.00  0.00    +0.000 A 
ATOM     18  C   UNL     1       2.629  15.380  19.669  0.00  0.00    +0.000 A 
ATOM     19  O   UNL     1       1.565  15.928  20.424  0.00  0.00    +0.000 OA
ATOM     20  C   UNL     1       0.225  15.514  20.237  0.00  0.00    +0.000 A 
ATOM     21  O   UNL     1      -0.714  16.135  20.719  0.00  0.00    +0.000 OA
ATOM     22  O   UNL     1       1.237  12.374  18.674  0.00  0.00    +0.000 OA
ENDROOT
BRANCH   1  23
ATOM     23  C   UNL     1       0.725  10.174  19.047  0.00  0.00    +0.000 C 
BRANCH  23  24
ATOM     24  C   UNL     1       1.987  10.001  18.206  0.00  0.00    +0.000 C 
BRANCH  24  25
ATOM     25  C   UNL     1       2.114   8.632  17.564  0.00  0.00    +0.000 C 
BRANCH  25  26
ATOM     26  C   UNL     1       3.272   7.851  18.181  0.00  0.00    +0.000 C 
BRANCH  26  37
ATOM     27  O   UNL     1       3.773   5.217  16.950  0.00  0.00    +0.000 OA
ATOM     28  C   UNL     1       3.149   5.395  17.977  0.00  0.00    +0.000 C 
ATOM     29  C   UNL     1       2.576   4.322  18.777  0.00  0.00    +0.000 A 
ATOM     30  C   UNL     1       2.616   2.955  18.585  0.00  0.00    +0.000 A 
ATOM     31  C   UNL     1       1.992   2.164  19.550  0.00  0.00    +0.000 A 
ATOM     32  C   UNL     1       1.352   2.749  20.665  0.00  0.00    +0.000 A 
ATOM     33  C   UNL     1       1.322   4.134  20.833  0.00  0.00    +0.000 A 
ATOM     34  C   UNL     1       1.950   4.899  19.868  0.00  0.00    +0.000 A 
ATOM     35  C   UNL     1       2.117   6.342  19.766  0.00  0.00    +0.000 C 
ATOM     36  O   UNL     1       1.679   7.147  20.565  0.00  0.00    +0.000 OA
ATOM     37  N   UNL     1       2.852   6.555  18.633  0.00  0.00    +0.000 N 
ENDBRANCH  26  37
ENDBRANCH  25  26
ENDBRANCH  24  25
ENDBRANCH  23  24
ENDBRANCH   1  23
TORSDOF 5
ENDMDL
MODEL 8
REMARK VINA RESULT:      -9.1      6.388     10.976
REMARK  Name = 
REMARK  5 active torsions:
REMARK  status: ('A' for Active; 'I' for Inactive)
REMARK    1  A    between atoms: N_11  and  C_12
REMARK    2  A    between atoms: C_12  and  C_13
REMARK    3  A    between atoms: C_13  and  C_14
REMARK    4  A    between atoms: C_14  and  C_15
REMARK    5  A    between atoms: C_15  and  C_16
REMARK                            x       y       z     vdW  Elec       q    Type
REMARK                         _______ _______ _______ _____ _____    ______ ____
ROOT
ATOM      1  C   UNL     1       0.616  11.717  19.141  0.00  0.00    +0.000 C 
ATOM      2  C   UNL     1       0.306  13.227  18.789  0.00  0.00    +0.000 C 
ATOM      3  C   UNL     1       0.290  14.051  20.055  0.00  0.00    +0.000 A 
ATOM      4  C   UNL     1       0.995  15.243  20.207  0.00  0.00    +0.000 A 
ATOM      5  C   UNL     1       0.997  15.887  21.446  0.00  0.00    +0.000 A 
ATOM      6  C   UNL     1       0.259  15.370  22.515  0.00  0.00    +0.000 A 
ATOM      7  C   UNL     1      -0.438  14.169  22.372  0.00  0.00    +0.000 A 
ATOM      8  C   UNL     1      -0.393  13.488  21.149  0.00  0.00    +0.000 A 
ATOM      9  C   UNL     1      -0.786  12.030  21.012  0.00  0.00    +0.000 C 
ATOM     10  O   UNL     1       0.494  11.451  20.550  0.00  0.00    +0.000 OA
ATOM     11  C   UNL     1      -1.878  11.686  20.024  0.00  0.00    +0.000 A 
ATOM     12  C   UNL     1      -1.571  10.957  18.944  0.00  0.00    +0.000 A 
ATOM     13  C   UNL     1      -2.502  10.633  17.898  0.00  0.00    +0.000 A 
ATOM     14  C   UNL     1      -2.186   9.693  16.909  0.00  0.00    +0.000 A 
ATOM     15  C   UNL     1      -2.882   9.705  15.711  0.00  0.00    +0.000 A 
ATOM     16  C   UNL     1      -3.891  10.652  15.517  0.00  0.00    +0.000 A 
ATOM     17  C   UNL     1      -4.261  11.531  16.551  0.00  0.00    +0.000 A 
ATOM     18  C   UNL     1      -3.577  11.485  17.758  0.00  0.00    +0.000 A 
ATOM     19  O   UNL     1      -3.930  12.322  18.843  0.00  0.00    +0.000 OA
ATOM     20  C   UNL     1      -3.221  12.297  20.068  0.00  0.00    +0.000 A 
ATOM     21  O   UNL     1      -3.653  12.846  21.073  0.00  0.00    +0.000 OA
ATOM     22  O   UNL     1      -0.278  10.783  18.525  0.00  0.00    +0.000 OA
ENDROOT
BRANCH   1  23
ATOM     23  C   UNL     1       1.949  11.310  18.493  0.00  0.00    +0.000 C 
BRANCH  23  24
ATOM     24  C   UNL     1       1.959  10.066  17.609  0.00  0.00    +0.000 C 
BRANCH  24  25
ATOM     25  C   UNL     1       1.694   8.775  18.361  0.00  0.00    +0.000 C 
BRANCH  25  26
ATOM     26  C   UNL     1       2.975   7.957  18.500  0.00  0.00    +0.000 C 
BRANCH  26  37
ATOM     27  O   UNL     1       1.525   6.954  20.865  0.00  0.00    +0.000 OA
ATOM     28  C   UNL     1       2.006   6.252  19.998  0.00  0.00    +0.000 C 
ATOM     29  C   UNL     1       1.911   4.799  19.979  0.00  0.00    +0.000 A 
ATOM     30  C   UNL     1       1.287   3.941  20.865  0.00  0.00    +0.000 A 
ATOM     31  C   UNL     1       1.340   2.579  20.565  0.00  0.00    +0.000 A 
ATOM     32  C   UNL     1       2.005   2.115  19.410  0.00  0.00    +0.000 A 
ATOM     33  C   UNL     1       2.632   3.003  18.534  0.00  0.00    +0.000 A 
ATOM     34  C   UNL     1       2.564   4.348  18.847  0.00  0.00    +0.000 A 
ATOM     35  C   UNL     1       3.083   5.511  18.139  0.00  0.00    +0.000 C 
ATOM     36  O   UNL     1       3.715   5.463  17.102  0.00  0.00    +0.000 OA
ATOM     37  N   UNL     1       2.695   6.598  18.871  0.00  0.00    +0.000 N 
ENDBRANCH  26  37
ENDBRANCH  25  26
ENDBRANCH  24  25
ENDBRANCH  23  24
ENDBRANCH   1  23
TORSDOF 5
ENDMDL
MODEL 9
REMARK VINA RESULT:      -9.0      6.339     11.066
REMARK  Name = 
REMARK  5 active torsions:
REMARK  status: ('A' for Active; 'I' for Inactive)
REMARK    1  A    between atoms: N_11  and  C_12
REMARK    2  A    between atoms: C_12  and  C_13
REMARK    3  A    between atoms: C_13  and  C_14
REMARK    4  A    between atoms: C_14  and  C_15
REMARK    5  A    between atoms: C_15  and  C_16
REMARK                            x       y       z     vdW  Elec       q    Type
REMARK                         _______ _______ _______ _____ _____    ______ ____
ROOT
ATOM      1  C   UNL     1       0.747  11.719  19.007  0.00  0.00    +0.000 C 
ATOM      2  C   UNL     1       0.440  13.227  18.649  0.00  0.00    +0.000 C 
ATOM      3  C   UNL     1       0.496  14.068  19.904  0.00  0.00    +0.000 A 
ATOM      4  C   UNL     1       1.223  15.253  20.005  0.00  0.00    +0.000 A 
ATOM      5  C   UNL     1       1.293  15.913  21.233  0.00  0.00    +0.000 A 
ATOM      6  C   UNL     1       0.601  15.419  22.344  0.00  0.00    +0.000 A 
ATOM      7  C   UNL     1      -0.118  14.227  22.251  0.00  0.00    +0.000 A 
ATOM      8  C   UNL     1      -0.141  13.529  21.036  0.00  0.00    +0.000 A 
ATOM      9  C   UNL     1      -0.558  12.075  20.939  0.00  0.00    +0.000 C 
ATOM     10  O   UNL     1       0.690  11.473  20.423  0.00  0.00    +0.000 OA
ATOM     11  C   UNL     1      -1.702  11.733  20.009  0.00  0.00    +0.000 A 
ATOM     12  C   UNL     1      -1.456  10.985  18.926  0.00  0.00    +0.000 A 
ATOM     13  C   UNL     1      -2.441  10.660  17.930  0.00  0.00    +0.000 A 
ATOM     14  C   UNL     1      -2.185   9.703  16.940  0.00  0.00    +0.000 A 
ATOM     15  C   UNL     1      -2.938   9.709  15.777  0.00  0.00    +0.000 A 
ATOM     16  C   UNL     1      -3.943  10.666  15.619  0.00  0.00    +0.000 A 
ATOM     17  C   UNL     1      -4.251  11.564  16.657  0.00  0.00    +0.000 A 
ATOM     18  C   UNL     1      -3.510  11.525  17.831  0.00  0.00    +0.000 A 
ATOM     19  O   UNL     1      -3.799  12.381  18.920  0.00  0.00    +0.000 OA
ATOM     20  C   UNL     1      -3.033  12.362  20.109  0.00  0.00    +0.000 A 
ATOM     21  O   UNL     1      -3.409  12.930  21.127  0.00  0.00    +0.000 OA
ATOM     22  O   UNL     1      -0.188  10.789  18.448  0.00  0.00    +0.000 OA
ENDROOT
BRANCH   1  23
ATOM     23  C   UNL     1       2.042  11.284  18.302  0.00  0.00    +0.000 C 
BRANCH  23  24
ATOM     24  C   UNL     1       2.053   9.925  17.607  0.00  0.00    +0.000 C 
BRANCH  24  25
ATOM     25  C   UNL     1       1.854   8.753  18.549  0.00  0.00    +0.000 C 
BRANCH  25  26
ATOM     26  C   UNL     1       3.056   7.813  18.504  0.00  0.00    +0.000 C 
BRANCH  26  37
ATOM     27  O   UNL     1       3.611   5.310  17.043  0.00  0.00    +0.000 OA
ATOM     28  C   UNL     1       3.006   5.380  18.095  0.00  0.00    +0.000 C 
ATOM     29  C   UNL     1       2.487   4.225  18.814  0.00  0.00    +0.000 A 
ATOM     30  C   UNL     1       2.566   2.881  18.505  0.00  0.00    +0.000 A 
ATOM     31  C   UNL     1       1.991   1.991  19.414  0.00  0.00    +0.000 A 
ATOM     32  C   UNL     1       1.361   2.458  20.587  0.00  0.00    +0.000 A 
ATOM     33  C   UNL     1       1.290   3.822  20.873  0.00  0.00    +0.000 A 
ATOM     34  C   UNL     1       1.870   4.686  19.962  0.00  0.00    +0.000 A 
ATOM     35  C   UNL     1       1.988   6.138  19.980  0.00  0.00    +0.000 C 
ATOM     36  O   UNL     1       1.544   6.857  20.854  0.00  0.00    +0.000 OA
ATOM     37  N   UNL     1       2.689   6.470  18.854  0.00  0.00    +0.000 N 
ENDBRANCH  26  37
ENDBRANCH  25  26
ENDBRANCH  24  25
ENDBRANCH  23  24
ENDBRANCH   1  23
TORSDOF 5
ENDMDL
