MODEL 1
REMARK VINA RESULT:      -8.9      0.000      0.000
REMARK  Name = 
REMARK  5 active torsions:
REMARK  status: ('A' for Active; 'I' for Inactive)
REMARK    1  A    between atoms: C_2  and  C_20
REMARK    2  A    between atoms: N_3  and  C_4
REMARK    3  A    between atoms: C_8  and  N_9
REMARK    4  A    between atoms: N_9  and  C_10
REMARK    5  A    between atoms: C_10  and  C_11
REMARK                            x       y       z     vdW  Elec       q    Type
REMARK                         _______ _______ _______ _____ _____    ______ ____
ROOT
ATOM      1  C   UNL     1       3.197   3.373  19.430  0.00  0.00    +0.000 C 
ATOM      2  C   UNL     1       1.892   2.598  19.236  0.00  0.00    +0.000 C 
ATOM      3  C   UNL     1       1.142   2.770  20.555  0.00  0.00    +0.000 C 
ATOM      4  C   UNL     1       1.864   3.881  21.319  0.00  0.00    +0.000 C 
ATOM      5  C   UNL     1       2.767   4.589  20.295  0.00  0.00    +0.000 C 
ENDROOT
BRANCH   1   8
ATOM      6  O   UNL     1       5.872   4.176  19.154  0.00  0.00    +0.000 OA
ATOM      7  C   UNL     1       5.180   4.079  18.148  0.00  0.00    +0.000 C 
ATOM      8  N   UNL     1       3.847   3.714  18.179  0.00  0.00    +0.000 N 
ATOM      9  H   UNL     1       3.348   3.467  17.332  0.00  0.00    +0.000 HD
BRANCH   7  10
ATOM     10  C   UNL     1       5.785   4.342  16.810  0.00  0.00    +0.000 A 
ATOM     11  C   UNL     1       5.003   4.107  15.665  0.00  0.00    +0.000 A 
ATOM     12  C   UNL     1       5.533   4.325  14.390  0.00  0.00    +0.000 A 
ATOM     13  C   UNL     1       6.846   4.764  14.263  0.00  0.00    +0.000 A 
ATOM     14  F   UNL     1       7.358   4.969  13.045  0.00  0.00    +0.000 F 
ATOM     15  C   UNL     1       7.639   4.982  15.386  0.00  0.00    +0.000 A 
ATOM     16  C   UNL     1       7.111   4.766  16.663  0.00  0.00    +0.000 A 
ENDBRANCH   7  10
ENDBRANCH   1   8
BRANCH   5  17
ATOM     17  N   UNL     1       2.074   5.642  19.520  0.00  0.00    +0.000 NA
ATOM     18  H   UNL     1       1.244   5.963  20.014  0.00  0.00    +0.000 HD
BRANCH  17  19
ATOM     19  C   UNL     1       2.948   6.798  19.294  0.00  0.00    +0.000 C 
BRANCH  19  20
ATOM     20  C   UNL     1       2.115   7.999  18.996  0.00  0.00    +0.000 A 
ATOM     21  C   UNL     1       2.052   8.664  17.785  0.00  0.00    +0.000 A 
ATOM     22  N   UNL     1       1.233   9.749  17.929  0.00  0.00    +0.000 N 
ATOM     23  C   UNL     1       0.757   9.820  19.216  0.00  0.00    +0.000 A 
ATOM     24  C   UNL     1      -0.091  10.764  19.810  0.00  0.00    +0.000 A 
ATOM     25  C   UNL     1      -0.412  10.592  21.159  0.00  0.00    +0.000 A 
ATOM     26  C   UNL     1       0.100   9.520  21.884  0.00  0.00    +0.000 A 
ATOM     27  C   UNL     1       0.951   8.587  21.278  0.00  0.00    +0.000 A 
ATOM     28  C   UNL     1       1.288   8.734  19.913  0.00  0.00    +0.000 A 
ATOM     29  H   UNL     1       1.017  10.416  17.202  0.00  0.00    +0.000 HD
ENDBRANCH  19  20
ENDBRANCH  17  19
ENDBRANCH   5  17
TORSDOF 5
ENDMDL
MODEL 2
REMARK VINA RESULT:      -8.5      0.798      1.360
REMARK  Name = 
REMARK  5 active torsions:
REMARK  status: ('A' for Active; 'I' for Inactive)
REMARK    1  A    between atoms: C_2  and  C_20
REMARK    2  A    between atoms: N_3  and  C_4
REMARK    3  A    between atoms: C_8  and  N_9
REMARK    4  A    between atoms: N_9  and  C_10
REMARK    5  A    between atoms: C_10  and  C_11
REMARK                            x       y       z     vdW  Elec       q    Type
REMARK                         _______ _______ _______ _____ _____    ______ ____
ROOT
ATOM      1  C   UNL     1       3.034   3.951  19.109  0.00  0.00    +0.000 C 
ATOM      2  C   UNL     1       1.594   3.466  18.926  0.00  0.00    +0.000 C 
ATOM      3  C   UNL     1       0.913   3.769  20.259  0.00  0.00    +0.000 C 
ATOM      4  C   UNL     1       1.860   4.694  21.025  0.00  0.00    +0.000 C 
ATOM      5  C   UNL     1       2.876   5.216  19.996  0.00  0.00    +0.000 C 
ENDROOT
BRANCH   1   8
ATOM      6  O   UNL     1       5.818   4.112  18.790  0.00  0.00    +0.000 OA
ATOM      7  C   UNL     1       5.104   4.213  17.799  0.00  0.00    +0.000 C 
ATOM      8  N   UNL     1       3.724   4.169  17.852  0.00  0.00    +0.000 N 
ATOM      9  H   UNL     1       3.166   4.073  17.012  0.00  0.00    +0.000 HD
BRANCH   7  10
ATOM     10  C   UNL     1       5.731   4.368  16.454  0.00  0.00    +0.000 A 
ATOM     11  C   UNL     1       7.001   4.967  16.372  0.00  0.00    +0.000 A 
ATOM     12  C   UNL     1       7.620   5.147  15.132  0.00  0.00    +0.000 A 
ATOM     13  C   UNL     1       6.963   4.740  13.976  0.00  0.00    +0.000 A 
ATOM     14  F   UNL     1       7.550   4.915  12.788  0.00  0.00    +0.000 F 
ATOM     15  C   UNL     1       5.697   4.165  14.038  0.00  0.00    +0.000 A 
ATOM     16  C   UNL     1       5.075   3.982  15.278  0.00  0.00    +0.000 A 
ENDBRANCH   7  10
ENDBRANCH   1   8
BRANCH   5  17
ATOM     17  N   UNL     1       2.407   6.401  19.245  0.00  0.00    +0.000 NA
ATOM     18  H   UNL     1       1.610   6.161  18.658  0.00  0.00    +0.000 HD
BRANCH  17  19
ATOM     19  C   UNL     1       1.998   7.479  20.153  0.00  0.00    +0.000 C 
BRANCH  19  20
ATOM     20  C   UNL     1       1.553   8.658  19.354  0.00  0.00    +0.000 A 
ATOM     21  C   UNL     1       1.981   8.983  18.080  0.00  0.00    +0.000 A 
ATOM     22  N   UNL     1       1.398  10.165  17.716  0.00  0.00    +0.000 N 
ATOM     23  C   UNL     1       0.596  10.634  18.730  0.00  0.00    +0.000 A 
ATOM     24  C   UNL     1      -0.172  11.803  18.800  0.00  0.00    +0.000 A 
ATOM     25  C   UNL     1      -0.896  12.035  19.973  0.00  0.00    +0.000 A 
ATOM     26  C   UNL     1      -0.848  11.134  21.033  0.00  0.00    +0.000 A 
ATOM     27  C   UNL     1      -0.071   9.971  20.949  0.00  0.00    +0.000 A 
ATOM     28  C   UNL     1       0.667   9.709  19.773  0.00  0.00    +0.000 A 
ATOM     29  H   UNL     1       1.543  10.640  16.837  0.00  0.00    +0.000 HD
ENDBRANCH  19  20
ENDBRANCH  17  19
ENDBRANCH   5  17
TORSDOF 5
ENDMDL
MODEL 3
REMARK VINA RESULT:      -8.4      0.928      1.421
REMARK  Name = 
REMARK  5 active torsions:
REMARK  status: ('A' for Active; 'I' for Inactive)
REMARK    1  A    between atoms: C_2  and  C_20
REMARK    2  A    between atoms: N_3  and  C_4
REMARK    3  A    between atoms: C_8  and  N_9
REMARK    4  A    between atoms: N_9  and  C_10
REMARK    5  A    between atoms: C_10  and  C_11
REMARK                            x       y       z     vdW  Elec       q    Type
REMARK                         _______ _______ _______ _____ _____    ______ ____
ROOT
ATOM      1  C   UNL     1       3.117   4.354  19.009  0.00  0.00    +0.000 C 
ATOM      2  C   UNL     1       1.830   3.532  18.911  0.00  0.00    +0.000 C 
ATOM      3  C   UNL     1       1.038   3.905  20.162  0.00  0.00    +0.000 C 
ATOM      4  C   UNL     1       1.721   5.141  20.751  0.00  0.00    +0.000 C 
ATOM      5  C   UNL     1       2.643   5.688  19.649  0.00  0.00    +0.000 C 
ENDROOT
BRANCH   1   8
ATOM      6  O   UNL     1       5.880   4.066  18.606  0.00  0.00    +0.000 OA
ATOM      7  C   UNL     1       5.166   4.314  17.641  0.00  0.00    +0.000 C 
ATOM      8  N   UNL     1       3.799   4.496  17.738  0.00  0.00    +0.000 N 
ATOM      9  H   UNL     1       3.211   4.520  16.913  0.00  0.00    +0.000 HD
BRANCH   7  10
ATOM     10  C   UNL     1       5.773   4.408  16.282  0.00  0.00    +0.000 A 
ATOM     11  C   UNL     1       7.002   5.077  16.142  0.00  0.00    +0.000 A 
ATOM     12  C   UNL     1       7.601   5.201  14.885  0.00  0.00    +0.000 A 
ATOM     13  C   UNL     1       6.963   4.670  13.770  0.00  0.00    +0.000 A 
ATOM     14  F   UNL     1       7.531   4.792  12.566  0.00  0.00    +0.000 F 
ATOM     15  C   UNL     1       5.737   4.023  13.889  0.00  0.00    +0.000 A 
ATOM     16  C   UNL     1       5.135   3.895  15.145  0.00  0.00    +0.000 A 
ENDBRANCH   7  10
ENDBRANCH   1   8
BRANCH   5  17
ATOM     17  N   UNL     1       1.959   6.584  18.692  0.00  0.00    +0.000 NA
ATOM     18  H   UNL     1       0.966   6.648  18.908  0.00  0.00    +0.000 HD
BRANCH  17  19
ATOM     19  C   UNL     1       2.524   7.937  18.732  0.00  0.00    +0.000 C 
BRANCH  19  20
ATOM     20  C   UNL     1       1.448   8.915  19.065  0.00  0.00    +0.000 A 
ATOM     21  C   UNL     1       0.805   9.750  18.169  0.00  0.00    +0.000 A 
ATOM     22  N   UNL     1      -0.067  10.541  18.865  0.00  0.00    +0.000 N 
ATOM     23  C   UNL     1      -0.008  10.251  20.207  0.00  0.00    +0.000 A 
ATOM     24  C   UNL     1      -0.706  10.819  21.280  0.00  0.00    +0.000 A 
ATOM     25  C   UNL     1      -0.441  10.327  22.561  0.00  0.00    +0.000 A 
ATOM     26  C   UNL     1       0.490   9.310  22.758  0.00  0.00    +0.000 A 
ATOM     27  C   UNL     1       1.183   8.756  21.674  0.00  0.00    +0.000 A 
ATOM     28  C   UNL     1       0.931   9.231  20.368  0.00  0.00    +0.000 A 
ATOM     29  H   UNL     1      -0.661  11.250  18.459  0.00  0.00    +0.000 HD
ENDBRANCH  19  20
ENDBRANCH  17  19
ENDBRANCH   5  17
TORSDOF 5
ENDMDL
MODEL 4
REMARK VINA RESULT:      -8.3      2.154      2.844
REMARK  Name = 
REMARK  5 active torsions:
REMARK  status: ('A' for Active; 'I' for Inactive)
REMARK    1  A    between atoms: C_2  and  C_20
REMARK    2  A    between atoms: N_3  and  C_4
REMARK    3  A    between atoms: C_8  and  N_9
REMARK    4  A    between atoms: N_9  and  C_10
REMARK    5  A    between atoms: C_10  and  C_11
REMARK                            x       y       z     vdW  Elec       q    Type
REMARK                         _______ _______ _______ _____ _____    ______ ____
ROOT
ATOM      1  C   UNL     1       2.672   3.391  19.175  0.00  0.00    +0.000 C 
ATOM      2  C   UNL     1       1.662   3.093  18.065  0.00  0.00    +0.000 C 
ATOM      3  C   UNL     1       0.513   2.376  18.772  0.00  0.00    +0.000 C 
ATOM      4  C   UNL     1       0.739   2.575  20.271  0.00  0.00    +0.000 C 
ATOM      5  C   UNL     1       1.774   3.705  20.403  0.00  0.00    +0.000 C 
ENDROOT
BRANCH   1   8
ATOM      6  O   UNL     1       5.433   3.332  19.674  0.00  0.00    +0.000 OA
ATOM      7  C   UNL     1       4.960   4.303  19.096  0.00  0.00    +0.000 C 
ATOM      8  N   UNL     1       3.611   4.438  18.823  0.00  0.00    +0.000 N 
ATOM      9  H   UNL     1       3.270   5.153  18.192  0.00  0.00    +0.000 HD
BRANCH   7  10
ATOM     10  C   UNL     1       5.863   5.396  18.633  0.00  0.00    +0.000 A 
ATOM     11  C   UNL     1       5.439   6.207  17.565  0.00  0.00    +0.000 A 
ATOM     12  C   UNL     1       6.258   7.235  17.088  0.00  0.00    +0.000 A 
ATOM     13  C   UNL     1       7.503   7.440  17.671  0.00  0.00    +0.000 A 
ATOM     14  F   UNL     1       8.291   8.419  17.214  0.00  0.00    +0.000 F 
ATOM     15  C   UNL     1       7.946   6.633  18.715  0.00  0.00    +0.000 A 
ATOM     16  C   UNL     1       7.128   5.605  19.196  0.00  0.00    +0.000 A 
ENDBRANCH   7  10
ENDBRANCH   1   8
BRANCH   5  17
ATOM     17  N   UNL     1       1.183   5.060  20.363  0.00  0.00    +0.000 NA
ATOM     18  H   UNL     1       0.213   5.038  20.673  0.00  0.00    +0.000 HD
BRANCH  17  19
ATOM     19  C   UNL     1       1.919   5.988  21.230  0.00  0.00    +0.000 C 
BRANCH  19  20
ATOM     20  C   UNL     1       1.485   7.386  20.942  0.00  0.00    +0.000 A 
ATOM     21  C   UNL     1       0.690   8.172  21.755  0.00  0.00    +0.000 A 
ATOM     22  N   UNL     1       0.461   9.359  21.118  0.00  0.00    +0.000 N 
ATOM     23  C   UNL     1       1.083   9.372  19.892  0.00  0.00    +0.000 A 
ATOM     24  C   UNL     1       1.104  10.365  18.905  0.00  0.00    +0.000 A 
ATOM     25  C   UNL     1       1.823  10.104  17.736  0.00  0.00    +0.000 A 
ATOM     26  C   UNL     1       2.490   8.894  17.562  0.00  0.00    +0.000 A 
ATOM     27  C   UNL     1       2.455   7.909  18.557  0.00  0.00    +0.000 A 
ATOM     28  C   UNL     1       1.740   8.149  19.751  0.00  0.00    +0.000 A 
ATOM     29  H   UNL     1      -0.099  10.117  21.482  0.00  0.00    +0.000 HD
ENDBRANCH  19  20
ENDBRANCH  17  19
ENDBRANCH   5  17
TORSDOF 5
ENDMDL
MODEL 5
REMARK VINA RESULT:      -8.2      1.997      2.196
REMARK  Name = 
REMARK  5 active torsions:
REMARK  status: ('A' for Active; 'I' for Inactive)
REMARK    1  A    between atoms: C_2  and  C_20
REMARK    2  A    between atoms: N_3  and  C_4
REMARK    3  A    between atoms: C_8  and  N_9
REMARK    4  A    between atoms: N_9  and  C_10
REMARK    5  A    between atoms: C_10  and  C_11
REMARK                            x       y       z     vdW  Elec       q    Type
REMARK                         _______ _______ _______ _____ _____    ______ ____
ROOT
ATOM      1  C   UNL     1       2.696   3.530  19.321  0.00  0.00    +0.000 C 
ATOM      2  C   UNL     1       1.702   3.216  18.200  0.00  0.00    +0.000 C 
ATOM      3  C   UNL     1       0.535   2.525  18.903  0.00  0.00    +0.000 C 
ATOM      4  C   UNL     1       0.737   2.755  20.401  0.00  0.00    +0.000 C 
ATOM      5  C   UNL     1       1.779   3.879  20.526  0.00  0.00    +0.000 C 
ENDROOT
BRANCH   1   8
ATOM      6  O   UNL     1       5.486   3.300  19.516  0.00  0.00    +0.000 OA
ATOM      7  C   UNL     1       5.010   4.340  19.077  0.00  0.00    +0.000 C 
ATOM      8  N   UNL     1       3.650   4.561  18.963  0.00  0.00    +0.000 N 
ATOM      9  H   UNL     1       3.286   5.346  18.436  0.00  0.00    +0.000 HD
BRANCH   7  10
ATOM     10  C   UNL     1       5.920   5.429  18.616  0.00  0.00    +0.000 A 
ATOM     11  C   UNL     1       5.494   6.254  17.560  0.00  0.00    +0.000 A 
ATOM     12  C   UNL     1       6.319   7.279  17.086  0.00  0.00    +0.000 A 
ATOM     13  C   UNL     1       7.571   7.466  17.659  0.00  0.00    +0.000 A 
ATOM     14  F   UNL     1       8.365   8.442  17.204  0.00  0.00    +0.000 F 
ATOM     15  C   UNL     1       8.016   6.645  18.690  0.00  0.00    +0.000 A 
ATOM     16  C   UNL     1       7.192   5.620  19.169  0.00  0.00    +0.000 A 
ENDBRANCH   7  10
ENDBRANCH   1   8
BRANCH   5  17
ATOM     17  N   UNL     1       1.201   5.238  20.446  0.00  0.00    +0.000 NA
ATOM     18  H   UNL     1       0.422   5.335  21.095  0.00  0.00    +0.000 HD
BRANCH  17  19
ATOM     19  C   UNL     1       2.200   6.262  20.773  0.00  0.00    +0.000 C 
BRANCH  19  20
ATOM     20  C   UNL     1       1.813   7.554  20.135  0.00  0.00    +0.000 A 
ATOM     21  C   UNL     1       2.168   7.971  18.865  0.00  0.00    +0.000 A 
ATOM     22  N   UNL     1       1.680   9.233  18.672  0.00  0.00    +0.000 N 
ATOM     23  C   UNL     1       1.014   9.664  19.795  0.00  0.00    +0.000 A 
ATOM     24  C   UNL     1       0.375  10.885  20.047  0.00  0.00    +0.000 A 
ATOM     25  C   UNL     1      -0.226  11.058  21.297  0.00  0.00    +0.000 A 
ATOM     26  C   UNL     1      -0.183  10.049  22.256  0.00  0.00    +0.000 A 
ATOM     27  C   UNL     1       0.463   8.836  21.990  0.00  0.00    +0.000 A 
ATOM     28  C   UNL     1       1.075   8.632  20.732  0.00  0.00    +0.000 A 
ATOM     29  H   UNL     1       1.801   9.782  17.833  0.00  0.00    +0.000 HD
ENDBRANCH  19  20
ENDBRANCH  17  19
ENDBRANCH   5  17
TORSDOF 5
ENDMDL
MODEL 6
REMARK VINA RESULT:      -8.2      0.992      1.599
REMARK  Name = 
REMARK  5 active torsions:
REMARK  status: ('A' for Active; 'I' for Inactive)
REMARK    1  A    between atoms: C_2  and  C_20
REMARK    2  A    between atoms: N_3  and  C_4
REMARK    3  A    between atoms: C_8  and  N_9
REMARK    4  A    between atoms: N_9  and  C_10
REMARK    5  A    between atoms: C_10  and  C_11
REMARK                            x       y       z     vdW  Elec       q    Type
REMARK                         _______ _______ _______ _____ _____    ______ ____
ROOT
ATOM      1  C   UNL     1       3.212   3.510  19.487  0.00  0.00    +0.000 C 
ATOM      2  C   UNL     1       1.952   2.659  19.318  0.00  0.00    +0.000 C 
ATOM      3  C   UNL     1       1.177   2.854  20.620  0.00  0.00    +0.000 C 
ATOM      4  C   UNL     1       1.831   4.037  21.336  0.00  0.00    +0.000 C 
ATOM      5  C   UNL     1       2.707   4.742  20.288  0.00  0.00    +0.000 C 
ENDROOT
BRANCH   1   8
ATOM      6  O   UNL     1       5.907   4.231  19.179  0.00  0.00    +0.000 OA
ATOM      7  C   UNL     1       5.201   4.150  18.180  0.00  0.00    +0.000 C 
ATOM      8  N   UNL     1       3.858   3.825  18.227  0.00  0.00    +0.000 N 
ATOM      9  H   UNL     1       3.343   3.589  17.387  0.00  0.00    +0.000 HD
BRANCH   7  10
ATOM     10  C   UNL     1       5.799   4.387  16.834  0.00  0.00    +0.000 A 
ATOM     11  C   UNL     1       5.006   4.147  15.698  0.00  0.00    +0.000 A 
ATOM     12  C   UNL     1       5.529   4.342  14.416  0.00  0.00    +0.000 A 
ATOM     13  C   UNL     1       6.846   4.762  14.274  0.00  0.00    +0.000 A 
ATOM     14  F   UNL     1       7.351   4.945  13.049  0.00  0.00    +0.000 F 
ATOM     15  C   UNL     1       7.650   4.984  15.388  0.00  0.00    +0.000 A 
ATOM     16  C   UNL     1       7.130   4.792  16.672  0.00  0.00    +0.000 A 
ENDBRANCH   7  10
ENDBRANCH   1   8
BRANCH   5  17
ATOM     17  N   UNL     1       1.971   5.718  19.456  0.00  0.00    +0.000 NA
ATOM     18  H   UNL     1       1.011   5.816  19.783  0.00  0.00    +0.000 HD
BRANCH  17  19
ATOM     19  C   UNL     1       2.605   7.040  19.498  0.00  0.00    +0.000 C 
BRANCH  19  20
ATOM     20  C   UNL     1       1.721   7.992  20.230  0.00  0.00    +0.000 A 
ATOM     21  C   UNL     1       1.413   7.941  21.578  0.00  0.00    +0.000 A 
ATOM     22  N   UNL     1       0.523   8.941  21.856  0.00  0.00    +0.000 N 
ATOM     23  C   UNL     1       0.229   9.650  20.716  0.00  0.00    +0.000 A 
ATOM     24  C   UNL     1      -0.636  10.736  20.531  0.00  0.00    +0.000 A 
ATOM     25  C   UNL     1      -0.749  11.266  19.243  0.00  0.00    +0.000 A 
ATOM     26  C   UNL     1      -0.027  10.724  18.182  0.00  0.00    +0.000 A 
ATOM     27  C   UNL     1       0.830   9.635  18.382  0.00  0.00    +0.000 A 
ATOM     28  C   UNL     1       0.967   9.083  19.676  0.00  0.00    +0.000 A 
ATOM     29  H   UNL     1       0.122   9.127  22.765  0.00  0.00    +0.000 HD
ENDBRANCH  19  20
ENDBRANCH  17  19
ENDBRANCH   5  17
TORSDOF 5
ENDMDL
MODEL 7
REMARK VINA RESULT:      -8.2      0.996      1.864
REMARK  Name = 
REMARK  5 active torsions:
REMARK  status: ('A' for Active; 'I' for Inactive)
REMARK    1  A    between atoms: C_2  and  C_20
REMARK    2  A    between atoms: N_3  and  C_4
REMARK    3  A    between atoms: C_8  and  N_9
REMARK    4  A    between atoms: N_9  and  C_10
REMARK    5  A    between atoms: C_10  and  C_11
REMARK                            x       y       z     vdW  Elec       q    Type
REMARK                         _______ _______ _______ _____ _____    ______ ____
ROOT
ATOM      1  C   UNL     1       3.368   3.313  19.674  0.00  0.00    +0.000 C 
ATOM      2  C   UNL     1       2.166   2.370  19.581  0.00  0.00    +0.000 C 
ATOM      3  C   UNL     1       1.432   2.550  20.909  0.00  0.00    +0.000 C 
ATOM      4  C   UNL     1       2.027   3.796  21.565  0.00  0.00    +0.000 C 
ATOM      5  C   UNL     1       2.809   4.530  20.462  0.00  0.00    +0.000 C 
ENDROOT
BRANCH   1   8
ATOM      6  O   UNL     1       5.957   4.306  19.244  0.00  0.00    +0.000 OA
ATOM      7  C   UNL     1       5.236   4.101  18.275  0.00  0.00    +0.000 C 
ATOM      8  N   UNL     1       3.939   3.635  18.381  0.00  0.00    +0.000 N 
ATOM      9  H   UNL     1       3.430   3.304  17.570  0.00  0.00    +0.000 HD
BRANCH   7  10
ATOM     10  C   UNL     1       5.766   4.337  16.900  0.00  0.00    +0.000 A 
ATOM     11  C   UNL     1       7.099   4.764  16.761  0.00  0.00    +0.000 A 
ATOM     12  C   UNL     1       7.634   5.011  15.493  0.00  0.00    +0.000 A 
ATOM     13  C   UNL     1       6.832   4.843  14.370  0.00  0.00    +0.000 A 
ATOM     14  F   UNL     1       7.339   5.083  13.156  0.00  0.00    +0.000 F 
ATOM     15  C   UNL     1       5.505   4.441  14.492  0.00  0.00    +0.000 A 
ATOM     16  C   UNL     1       4.967   4.191  15.759  0.00  0.00    +0.000 A 
ENDBRANCH   7  10
ENDBRANCH   1   8
BRANCH   5  17
ATOM     17  N   UNL     1       1.972   5.426  19.636  0.00  0.00    +0.000 NA
ATOM     18  H   UNL     1       1.052   5.547  20.057  0.00  0.00    +0.000 HD
BRANCH  17  19
ATOM     19  C   UNL     1       2.588   6.750  19.494  0.00  0.00    +0.000 C 
BRANCH  19  20
ATOM     20  C   UNL     1       1.727   7.772  20.158  0.00  0.00    +0.000 A 
ATOM     21  C   UNL     1       1.111   7.639  21.389  0.00  0.00    +0.000 A 
ATOM     22  N   UNL     1       0.358   8.756  21.619  0.00  0.00    +0.000 N 
ATOM     23  C   UNL     1       0.457   9.626  20.559  0.00  0.00    +0.000 A 
ATOM     24  C   UNL     1      -0.150  10.872  20.360  0.00  0.00    +0.000 A 
ATOM     25  C   UNL     1       0.128  11.547  19.168  0.00  0.00    +0.000 A 
ATOM     26  C   UNL     1       0.977  10.992  18.214  0.00  0.00    +0.000 A 
ATOM     27  C   UNL     1       1.573   9.742  18.426  0.00  0.00    +0.000 A 
ATOM     28  C   UNL     1       1.313   9.041  19.625  0.00  0.00    +0.000 A 
ATOM     29  H   UNL     1      -0.206   8.919  22.441  0.00  0.00    +0.000 HD
ENDBRANCH  19  20
ENDBRANCH  17  19
ENDBRANCH   5  17
TORSDOF 5
ENDMDL
MODEL 8
REMARK VINA RESULT:      -8.2      2.788      5.358
REMARK  Name = 
REMARK  5 active torsions:
REMARK  status: ('A' for Active; 'I' for Inactive)
REMARK    1  A    between atoms: C_2  and  C_20
REMARK    2  A    between atoms: N_3  and  C_4
REMARK    3  A    between atoms: C_8  and  N_9
REMARK    4  A    between atoms: N_9  and  C_10
REMARK    5  A    between atoms: C_10  and  C_11
REMARK                            x       y       z     vdW  Elec       q    Type
REMARK                         _______ _______ _______ _____ _____    ______ ____
ROOT
ATOM      1  C   UNL     1       5.262   4.069  16.545  0.00  0.00    +0.000 C 
ATOM      2  C   UNL     1       6.784   4.112  16.699  0.00  0.00    +0.000 C 
ATOM      3  C   UNL     1       7.276   4.855  15.459  0.00  0.00    +0.000 C 
ATOM      4  C   UNL     1       6.041   5.489  14.818  0.00  0.00    +0.000 C 
ATOM      5  C   UNL     1       4.930   5.434  15.880  0.00  0.00    +0.000 C 
ENDROOT
BRANCH   1   8
ATOM      6  O   UNL     1       2.581   3.275  16.786  0.00  0.00    +0.000 OA
ATOM      7  C   UNL     1       3.250   3.407  17.804  0.00  0.00    +0.000 C 
ATOM      8  N   UNL     1       4.571   3.815  17.794  0.00  0.00    +0.000 N 
ATOM      9  H   UNL     1       5.151   3.744  18.621  0.00  0.00    +0.000 HD
BRANCH   7  10
ATOM     10  C   UNL     1       2.641   3.098  19.130  0.00  0.00    +0.000 A 
ATOM     11  C   UNL     1       1.263   3.318  19.301  0.00  0.00    +0.000 A 
ATOM     12  C   UNL     1       0.652   3.057  20.531  0.00  0.00    +0.000 A 
ATOM     13  C   UNL     1       1.422   2.590  21.590  0.00  0.00    +0.000 A 
ATOM     14  F   UNL     1       0.842   2.343  22.769  0.00  0.00    +0.000 F 
ATOM     15  C   UNL     1       2.791   2.387  21.443  0.00  0.00    +0.000 A 
ATOM     16  C   UNL     1       3.406   2.646  20.213  0.00  0.00    +0.000 A 
ENDBRANCH   7  10
ENDBRANCH   1   8
BRANCH   5  17
ATOM     17  N   UNL     1       4.958   6.568  16.829  0.00  0.00    +0.000 NA
ATOM     18  H   UNL     1       5.755   7.173  16.641  0.00  0.00    +0.000 HD
BRANCH  17  19
ATOM     19  C   UNL     1       3.737   7.375  16.731  0.00  0.00    +0.000 C 
BRANCH  19  20
ATOM     20  C   UNL     1       3.096   7.471  18.074  0.00  0.00    +0.000 A 
ATOM     21  C   UNL     1       3.249   6.571  19.113  0.00  0.00    +0.000 A 
ATOM     22  N   UNL     1       2.452   6.968  20.150  0.00  0.00    +0.000 N 
ATOM     23  C   UNL     1       1.767   8.112  19.816  0.00  0.00    +0.000 A 
ATOM     24  C   UNL     1       0.838   8.852  20.558  0.00  0.00    +0.000 A 
ATOM     25  C   UNL     1       0.284   9.987  19.959  0.00  0.00    +0.000 A 
ATOM     26  C   UNL     1       0.644  10.361  18.667  0.00  0.00    +0.000 A 
ATOM     27  C   UNL     1       1.571   9.607  17.936  0.00  0.00    +0.000 A 
ATOM     28  C   UNL     1       2.150   8.458  18.520  0.00  0.00    +0.000 A 
ATOM     29  H   UNL     1       2.363   6.486  21.034  0.00  0.00    +0.000 HD
ENDBRANCH  19  20
ENDBRANCH  17  19
ENDBRANCH   5  17
TORSDOF 5
ENDMDL
MODEL 9
REMARK VINA RESULT:      -8.0      0.922      1.279
REMARK  Name = 
REMARK  5 active torsions:
REMARK  status: ('A' for Active; 'I' for Inactive)
REMARK    1  A    between atoms: C_2  and  C_20
REMARK    2  A    between atoms: N_3  and  C_4
REMARK    3  A    between atoms: C_8  and  N_9
REMARK    4  A    between atoms: N_9  and  C_10
REMARK    5  A    between atoms: C_10  and  C_11
REMARK                            x       y       z     vdW  Elec       q    Type
REMARK                         _______ _______ _______ _____ _____    ______ ____
ROOT
ATOM      1  C   UNL     1       3.638   3.556  19.704  0.00  0.00    +0.000 C 
ATOM      2  C   UNL     1       2.546   2.558  19.312  0.00  0.00    +0.000 C 
ATOM      3  C   UNL     1       1.430   2.787  20.330  0.00  0.00    +0.000 C 
ATOM      4  C   UNL     1       1.764   4.097  21.046  0.00  0.00    +0.000 C 
ATOM      5  C   UNL     1       2.834   4.793  20.190  0.00  0.00    +0.000 C 
ENDROOT
BRANCH   1   8
ATOM      6  O   UNL     1       3.027   3.523  16.965  0.00  0.00    +0.000 OA
ATOM      7  C   UNL     1       4.170   3.800  17.310  0.00  0.00    +0.000 C 
ATOM      8  N   UNL     1       4.577   3.821  18.631  0.00  0.00    +0.000 N 
ATOM      9  H   UNL     1       5.466   4.224  18.903  0.00  0.00    +0.000 HD
BRANCH   7  10
ATOM     10  C   UNL     1       5.185   4.156  16.277  0.00  0.00    +0.000 A 
ATOM     11  C   UNL     1       6.266   4.972  16.656  0.00  0.00    +0.000 A 
ATOM     12  C   UNL     1       7.234   5.344  15.718  0.00  0.00    +0.000 A 
ATOM     13  C   UNL     1       7.112   4.910  14.403  0.00  0.00    +0.000 A 
ATOM     14  F   UNL     1       8.033   5.268  13.503  0.00  0.00    +0.000 F 
ATOM     15  C   UNL     1       6.037   4.120  14.008  0.00  0.00    +0.000 A 
ATOM     16  C   UNL     1       5.067   3.744  14.944  0.00  0.00    +0.000 A 
ENDBRANCH   7  10
ENDBRANCH   1   8
BRANCH   5  17
ATOM     17  N   UNL     1       2.277   5.600  19.082  0.00  0.00    +0.000 NA
ATOM     18  H   UNL     1       1.322   5.885  19.292  0.00  0.00    +0.000 HD
BRANCH  17  19
ATOM     19  C   UNL     1       3.075   6.808  18.849  0.00  0.00    +0.000 C 
BRANCH  19  20
ATOM     20  C   UNL     1       2.173   7.994  18.782  0.00  0.00    +0.000 A 
ATOM     21  C   UNL     1       1.977   8.804  17.678  0.00  0.00    +0.000 A 
ATOM     22  N   UNL     1       1.132   9.819  18.031  0.00  0.00    +0.000 N 
ATOM     23  C   UNL     1       0.770   9.702  19.352  0.00  0.00    +0.000 A 
ATOM     24  C   UNL     1      -0.058  10.519  20.133  0.00  0.00    +0.000 A 
ATOM     25  C   UNL     1      -0.250  10.160  21.470  0.00  0.00    +0.000 A 
ATOM     26  C   UNL     1       0.366   9.031  22.003  0.00  0.00    +0.000 A 
ATOM     27  C   UNL     1       1.195   8.227  21.210  0.00  0.00    +0.000 A 
ATOM     28  C   UNL     1       1.403   8.564  19.854  0.00  0.00    +0.000 A 
ATOM     29  H   UNL     1       0.826  10.562  17.419  0.00  0.00    +0.000 HD
ENDBRANCH  19  20
ENDBRANCH  17  19
ENDBRANCH   5  17
TORSDOF 5
ENDMDL
