MODEL 1
REMARK VINA RESULT:      -7.9      0.000      0.000
REMARK  Name = 
REMARK  7 active torsions:
REMARK  status: ('A' for Active; 'I' for Inactive)
REMARK    1  A    between atoms: C_1  and  C_2
REMARK    2  A    between atoms: C_2  and  O_3
REMARK    3  A    between atoms: O_3  and  C_4
REMARK    4  A    between atoms: C_4  and  C_6
REMARK    5  A    between atoms: C_8  and  C_9
REMARK    6  A    between atoms: C_12  and  O_13
REMARK    7  A    between atoms: O_13  and  C_14
REMARK                            x       y       z     vdW  Elec       q    Type
REMARK                         _______ _______ _______ _____ _____    ______ ____
ROOT
ATOM      1  C   UNL     1       2.536   4.697  20.505  0.00  0.00    +0.000 A 
ATOM      2  C   UNL     1       1.844   5.915  20.547  0.00  0.00    +0.000 A 
ATOM      3  C   UNL     1       2.309   6.993  19.809  0.00  0.00    +0.000 A 
ATOM      4  N   UNL     1       3.468   6.920  19.113  0.00  0.00    +0.000 NA
ATOM      5  C   UNL     1       4.121   5.739  19.084  0.00  0.00    +0.000 A 
ATOM      6  N   UNL     1       5.299   5.724  18.343  0.00  0.00    +0.000 N 
ATOM      7  C   UNL     1       6.083   4.625  18.221  0.00  0.00    +0.000 A 
ATOM      8  S   UNL     1       7.498   4.656  17.351  0.00  0.00    +0.000 S 
ATOM      9  N   UNL     1       5.644   3.487  18.833  0.00  0.00    +0.000 N 
ATOM     10  C   UNL     1       4.413   3.344  19.433  0.00  0.00    +0.000 A 
ATOM     11  O   UNL     1       3.919   2.236  19.597  0.00  0.00    +0.000 OA
ATOM     12  C   UNL     1       3.681   4.590  19.723  0.00  0.00    +0.000 A 
ATOM     13  H   UNL     1       5.570   6.592  17.896  0.00  0.00    +0.000 HD
ATOM     14  H   UNL     1       6.150   2.630  18.646  0.00  0.00    +0.000 HD
ENDROOT
BRANCH   3  15
ATOM     15  C   UNL     1       1.563   8.256  19.704  0.00  0.00    +0.000 A 
ATOM     16  C   UNL     1       0.851   8.775  20.797  0.00  0.00    +0.000 A 
ATOM     17  C   UNL     1       0.164   9.993  20.708  0.00  0.00    +0.000 A 
ATOM     18  C   UNL     1       0.194  10.732  19.527  0.00  0.00    +0.000 A 
ATOM     19  C   UNL     1       0.870  10.228  18.420  0.00  0.00    +0.000 A 
ATOM     20  C   UNL     1       1.548   9.006  18.510  0.00  0.00    +0.000 A 
BRANCH  18  21
ATOM     21  O   UNL     1      -0.504  11.909  19.544  0.00  0.00    +0.000 OA
ATOM     22  C   UNL     1      -1.859  11.812  19.117  0.00  0.00    +0.000 C 
ENDBRANCH  18  21
ENDBRANCH   3  15
BRANCH   1  23
ATOM     23  C   UNL     1       2.019   3.582  21.323  0.00  0.00    +0.000 C 
ATOM     24  O   UNL     1       2.553   3.126  22.313  0.00  0.00    +0.000 OA
BRANCH  23  25
ATOM     25  O   UNL     1       0.850   3.188  20.759  0.00  0.00    +0.000 OA
BRANCH  25  27
ATOM     26  C   UNL     1       0.616   2.587  18.489  0.00  0.00    +0.000 C 
ATOM     27  C   UNL     1       0.906   2.060  19.879  0.00  0.00    +0.000 C 
ENDBRANCH  25  27
ENDBRANCH  23  25
ENDBRANCH   1  23
TORSDOF 5
ENDMDL
MODEL 2
REMARK VINA RESULT:      -7.8      0.282      1.002
REMARK  Name = 
REMARK  7 active torsions:
REMARK  status: ('A' for Active; 'I' for Inactive)
REMARK    1  A    between atoms: C_1  and  C_2
REMARK    2  A    between atoms: C_2  and  O_3
REMARK    3  A    between atoms: O_3  and  C_4
REMARK    4  A    between atoms: C_4  and  C_6
REMARK    5  A    between atoms: C_8  and  C_9
REMARK    6  A    between atoms: C_12  and  O_13
REMARK    7  A    between atoms: O_13  and  C_14
REMARK                            x       y       z     vdW  Elec       q    Type
REMARK                         _______ _______ _______ _____ _____    ______ ____
ROOT
ATOM      1  C   UNL     1       2.543   4.609  20.529  0.00  0.00    +0.000 A 
ATOM      2  C   UNL     1       1.845   5.821  20.623  0.00  0.00    +0.000 A 
ATOM      3  C   UNL     1       2.293   6.926  19.916  0.00  0.00    +0.000 A 
ATOM      4  N   UNL     1       3.442   6.884  19.201  0.00  0.00    +0.000 NA
ATOM      5  C   UNL     1       4.101   5.709  19.120  0.00  0.00    +0.000 A 
ATOM      6  N   UNL     1       5.268   5.726  18.362  0.00  0.00    +0.000 N 
ATOM      7  C   UNL     1       6.056   4.637  18.190  0.00  0.00    +0.000 A 
ATOM      8  S   UNL     1       7.457   4.706  17.301  0.00  0.00    +0.000 S 
ATOM      9  N   UNL     1       5.632   3.476  18.769  0.00  0.00    +0.000 N 
ATOM     10  C   UNL     1       4.411   3.305  19.382  0.00  0.00    +0.000 A 
ATOM     11  O   UNL     1       3.925   2.189  19.516  0.00  0.00    +0.000 OA
ATOM     12  C   UNL     1       3.677   4.536  19.726  0.00  0.00    +0.000 A 
ATOM     13  H   UNL     1       5.527   6.611  17.941  0.00  0.00    +0.000 HD
ATOM     14  H   UNL     1       6.140   2.629  18.546  0.00  0.00    +0.000 HD
ENDROOT
BRANCH   3  15
ATOM     15  C   UNL     1       1.539   8.188  19.866  0.00  0.00    +0.000 A 
ATOM     16  C   UNL     1       1.487   8.959  18.693  0.00  0.00    +0.000 A 
ATOM     17  C   UNL     1       0.744  10.145  18.634  0.00  0.00    +0.000 A 
ATOM     18  C   UNL     1       0.018  10.577  19.742  0.00  0.00    +0.000 A 
ATOM     19  C   UNL     1       0.074   9.845  20.925  0.00  0.00    +0.000 A 
ATOM     20  C   UNL     1       0.823   8.664  20.983  0.00  0.00    +0.000 A 
BRANCH  18  21
ATOM     21  O   UNL     1      -0.678  11.744  19.580  0.00  0.00    +0.000 OA
ATOM     22  C   UNL     1      -1.081  12.024  18.243  0.00  0.00    +0.000 C 
ENDBRANCH  18  21
ENDBRANCH   3  15
BRANCH   1  23
ATOM     23  C   UNL     1       2.045   3.463  21.315  0.00  0.00    +0.000 C 
ATOM     24  O   UNL     1       2.599   2.972  22.276  0.00  0.00    +0.000 OA
BRANCH  23  25
ATOM     25  O   UNL     1       0.864   3.089  20.761  0.00  0.00    +0.000 OA
BRANCH  25  27
ATOM     26  C   UNL     1       0.597   2.645  18.458  0.00  0.00    +0.000 C 
ATOM     27  C   UNL     1       0.910   2.025  19.805  0.00  0.00    +0.000 C 
ENDBRANCH  25  27
ENDBRANCH  23  25
ENDBRANCH   1  23
TORSDOF 5
ENDMDL
MODEL 3
REMARK VINA RESULT:      -7.8      2.808      4.117
REMARK  Name = 
REMARK  7 active torsions:
REMARK  status: ('A' for Active; 'I' for Inactive)
REMARK    1  A    between atoms: C_1  and  C_2
REMARK    2  A    between atoms: C_2  and  O_3
REMARK    3  A    between atoms: O_3  and  C_4
REMARK    4  A    between atoms: C_4  and  C_6
REMARK    5  A    between atoms: C_8  and  C_9
REMARK    6  A    between atoms: C_12  and  O_13
REMARK    7  A    between atoms: O_13  and  C_14
REMARK                            x       y       z     vdW  Elec       q    Type
REMARK                         _______ _______ _______ _____ _____    ______ ____
ROOT
ATOM      1  C   UNL     1       4.829   6.517  17.544  0.00  0.00    +0.000 A 
ATOM      2  C   UNL     1       3.836   7.498  17.666  0.00  0.00    +0.000 A 
ATOM      3  C   UNL     1       2.804   7.318  18.574  0.00  0.00    +0.000 A 
ATOM      4  N   UNL     1       2.687   6.172  19.287  0.00  0.00    +0.000 NA
ATOM      5  C   UNL     1       3.653   5.239  19.157  0.00  0.00    +0.000 A 
ATOM      6  N   UNL     1       3.484   4.090  19.923  0.00  0.00    +0.000 N 
ATOM      7  C   UNL     1       4.353   3.050  19.901  0.00  0.00    +0.000 A 
ATOM      8  S   UNL     1       4.100   1.682  20.809  0.00  0.00    +0.000 S 
ATOM      9  N   UNL     1       5.456   3.189  19.109  0.00  0.00    +0.000 N 
ATOM     10  C   UNL     1       5.812   4.347  18.456  0.00  0.00    +0.000 A 
ATOM     11  O   UNL     1       6.969   4.543  18.109  0.00  0.00    +0.000 OA
ATOM     12  C   UNL     1       4.762   5.376  18.337  0.00  0.00    +0.000 A 
ATOM     13  H   UNL     1       2.656   4.046  20.506  0.00  0.00    +0.000 HD
ATOM     14  H   UNL     1       6.174   2.479  19.179  0.00  0.00    +0.000 HD
ENDROOT
BRANCH   3  15
ATOM     15  C   UNL     1       1.803   8.361  18.848  0.00  0.00    +0.000 A 
ATOM     16  C   UNL     1       1.266   9.144  17.813  0.00  0.00    +0.000 A 
ATOM     17  C   UNL     1       0.292  10.118  18.067  0.00  0.00    +0.000 A 
ATOM     18  C   UNL     1      -0.185  10.315  19.361  0.00  0.00    +0.000 A 
ATOM     19  C   UNL     1       0.349   9.570  20.409  0.00  0.00    +0.000 A 
ATOM     20  C   UNL     1       1.329   8.604  20.153  0.00  0.00    +0.000 A 
BRANCH  18  21
ATOM     21  O   UNL     1      -1.139  11.285  19.503  0.00  0.00    +0.000 OA
ATOM     22  C   UNL     1      -1.219  12.212  18.424  0.00  0.00    +0.000 C 
ENDBRANCH  18  21
ENDBRANCH   3  15
BRANCH   1  23
ATOM     23  C   UNL     1       5.898   6.739  16.550  0.00  0.00    +0.000 C 
ATOM     24  O   UNL     1       6.905   7.392  16.730  0.00  0.00    +0.000 OA
BRANCH  23  25
ATOM     25  O   UNL     1       5.536   6.070  15.426  0.00  0.00    +0.000 OA
BRANCH  25  27
ATOM     26  C   UNL     1       5.999   3.863  14.732  0.00  0.00    +0.000 C 
ATOM     27  C   UNL     1       6.546   5.274  14.797  0.00  0.00    +0.000 C 
ENDBRANCH  25  27
ENDBRANCH  23  25
ENDBRANCH   1  23
TORSDOF 5
ENDMDL
MODEL 4
REMARK VINA RESULT:      -7.6      2.821      4.451
REMARK  Name = 
REMARK  7 active torsions:
REMARK  status: ('A' for Active; 'I' for Inactive)
REMARK    1  A    between atoms: C_1  and  C_2
REMARK    2  A    between atoms: C_2  and  O_3
REMARK    3  A    between atoms: O_3  and  C_4
REMARK    4  A    between atoms: C_4  and  C_6
REMARK    5  A    between atoms: C_8  and  C_9
REMARK    6  A    between atoms: C_12  and  O_13
REMARK    7  A    between atoms: O_13  and  C_14
REMARK                            x       y       z     vdW  Elec       q    Type
REMARK                         _______ _______ _______ _____ _____    ______ ____
ROOT
ATOM      1  C   UNL     1       4.636   6.522  17.442  0.00  0.00    +0.000 A 
ATOM      2  C   UNL     1       3.670   7.517  17.643  0.00  0.00    +0.000 A 
ATOM      3  C   UNL     1       2.714   7.353  18.635  0.00  0.00    +0.000 A 
ATOM      4  N   UNL     1       2.642   6.211  19.359  0.00  0.00    +0.000 NA
ATOM      5  C   UNL     1       3.581   5.264  19.152  0.00  0.00    +0.000 A 
ATOM      6  N   UNL     1       3.460   4.119  19.933  0.00  0.00    +0.000 N 
ATOM      7  C   UNL     1       4.309   3.067  19.842  0.00  0.00    +0.000 A 
ATOM      8  S   UNL     1       4.114   1.705  20.773  0.00  0.00    +0.000 S 
ATOM      9  N   UNL     1       5.344   3.189  18.961  0.00  0.00    +0.000 N 
ATOM     10  C   UNL     1       5.661   4.341  18.276  0.00  0.00    +0.000 A 
ATOM     11  O   UNL     1       6.788   4.519  17.833  0.00  0.00    +0.000 OA
ATOM     12  C   UNL     1       4.619   5.384  18.241  0.00  0.00    +0.000 A 
ATOM     13  H   UNL     1       2.683   4.089  20.583  0.00  0.00    +0.000 HD
ATOM     14  H   UNL     1       6.056   2.469  18.973  0.00  0.00    +0.000 HD
ENDROOT
BRANCH   3  15
ATOM     15  C   UNL     1       1.755   8.411  18.987  0.00  0.00    +0.000 A 
ATOM     16  C   UNL     1       1.223   9.267  18.009  0.00  0.00    +0.000 A 
ATOM     17  C   UNL     1       0.287  10.255  18.338  0.00  0.00    +0.000 A 
ATOM     18  C   UNL     1      -0.157  10.396  19.651  0.00  0.00    +0.000 A 
ATOM     19  C   UNL     1       0.374   9.578  20.644  0.00  0.00    +0.000 A 
ATOM     20  C   UNL     1       1.316   8.597  20.314  0.00  0.00    +0.000 A 
BRANCH  18  21
ATOM     21  O   UNL     1      -1.076  11.387  19.867  0.00  0.00    +0.000 OA
ATOM     22  C   UNL     1      -1.282  11.729  21.235  0.00  0.00    +0.000 C 
ENDBRANCH  18  21
ENDBRANCH   3  15
BRANCH   1  23
ATOM     23  C   UNL     1       5.621   6.727  16.362  0.00  0.00    +0.000 C 
ATOM     24  O   UNL     1       5.701   6.068  15.345  0.00  0.00    +0.000 OA
BRANCH  23  25
ATOM     25  O   UNL     1       6.393   7.782  16.726  0.00  0.00    +0.000 OA
BRANCH  25  27
ATOM     26  C   UNL     1       8.144   8.817  17.921  0.00  0.00    +0.000 C 
ATOM     27  C   UNL     1       7.577   7.486  17.473  0.00  0.00    +0.000 C 
ENDBRANCH  25  27
ENDBRANCH  23  25
ENDBRANCH   1  23
TORSDOF 5
ENDMDL
MODEL 5
REMARK VINA RESULT:      -7.6      2.740      3.943
REMARK  Name = 
REMARK  7 active torsions:
REMARK  status: ('A' for Active; 'I' for Inactive)
REMARK    1  A    between atoms: C_1  and  C_2
REMARK    2  A    between atoms: C_2  and  O_3
REMARK    3  A    between atoms: O_3  and  C_4
REMARK    4  A    between atoms: C_4  and  C_6
REMARK    5  A    between atoms: C_8  and  C_9
REMARK    6  A    between atoms: C_12  and  O_13
REMARK    7  A    between atoms: O_13  and  C_14
REMARK                            x       y       z     vdW  Elec       q    Type
REMARK                         _______ _______ _______ _____ _____    ______ ____
ROOT
ATOM      1  C   UNL     1       4.665   6.477  17.603  0.00  0.00    +0.000 A 
ATOM      2  C   UNL     1       3.691   7.475  17.735  0.00  0.00    +0.000 A 
ATOM      3  C   UNL     1       2.677   7.324  18.670  0.00  0.00    +0.000 A 
ATOM      4  N   UNL     1       2.559   6.190  19.400  0.00  0.00    +0.000 NA
ATOM      5  C   UNL     1       3.506   5.239  19.260  0.00  0.00    +0.000 A 
ATOM      6  N   UNL     1       3.336   4.103  20.045  0.00  0.00    +0.000 N 
ATOM      7  C   UNL     1       4.187   3.048  20.016  0.00  0.00    +0.000 A 
ATOM      8  S   UNL     1       3.933   1.697  20.948  0.00  0.00    +0.000 S 
ATOM      9  N   UNL     1       5.273   3.159  19.197  0.00  0.00    +0.000 N 
ATOM     10  C   UNL     1       5.633   4.302  18.520  0.00  0.00    +0.000 A 
ATOM     11  O   UNL     1       6.784   4.474  18.143  0.00  0.00    +0.000 OA
ATOM     12  C   UNL     1       4.598   5.347  18.412  0.00  0.00    +0.000 A 
ATOM     13  H   UNL     1       2.522   4.081  20.647  0.00  0.00    +0.000 HD
ATOM     14  H   UNL     1       5.981   2.438  19.259  0.00  0.00    +0.000 HD
ENDROOT
BRANCH   3  15
ATOM     15  C   UNL     1       1.701   8.388  18.953  0.00  0.00    +0.000 A 
ATOM     16  C   UNL     1       1.230   8.617  20.256  0.00  0.00    +0.000 A 
ATOM     17  C   UNL     1       0.324   9.648  20.532  0.00  0.00    +0.000 A 
ATOM     18  C   UNL     1      -0.116  10.490  19.513  0.00  0.00    +0.000 A 
ATOM     19  C   UNL     1       0.314  10.268  18.208  0.00  0.00    +0.000 A 
ATOM     20  C   UNL     1       1.214   9.231  17.933  0.00  0.00    +0.000 A 
BRANCH  18  21
ATOM     21  O   UNL     1      -0.996  11.469  19.887  0.00  0.00    +0.000 OA
ATOM     22  C   UNL     1      -1.995  11.781  18.921  0.00  0.00    +0.000 C 
ENDBRANCH  18  21
ENDBRANCH   3  15
BRANCH   1  23
ATOM     23  C   UNL     1       5.713   6.668  16.581  0.00  0.00    +0.000 C 
ATOM     24  O   UNL     1       6.721   7.329  16.720  0.00  0.00    +0.000 OA
BRANCH  23  25
ATOM     25  O   UNL     1       5.331   5.961  15.487  0.00  0.00    +0.000 OA
BRANCH  25  27
ATOM     26  C   UNL     1       5.957   3.795  14.791  0.00  0.00    +0.000 C 
ATOM     27  C   UNL     1       6.359   5.256  14.784  0.00  0.00    +0.000 C 
ENDBRANCH  25  27
ENDBRANCH  23  25
ENDBRANCH   1  23
TORSDOF 5
ENDMDL
MODEL 6
REMARK VINA RESULT:      -7.3      1.437      1.494
REMARK  Name = 
REMARK  7 active torsions:
REMARK  status: ('A' for Active; 'I' for Inactive)
REMARK    1  A    between atoms: C_1  and  C_2
REMARK    2  A    between atoms: C_2  and  O_3
REMARK    3  A    between atoms: O_3  and  C_4
REMARK    4  A    between atoms: C_4  and  C_6
REMARK    5  A    between atoms: C_8  and  C_9
REMARK    6  A    between atoms: C_12  and  O_13
REMARK    7  A    between atoms: O_13  and  C_14
REMARK                            x       y       z     vdW  Elec       q    Type
REMARK                         _______ _______ _______ _____ _____    ______ ____
ROOT
ATOM      1  C   UNL     1       3.068   4.324  19.739  0.00  0.00    +0.000 A 
ATOM      2  C   UNL     1       2.466   5.502  20.202  0.00  0.00    +0.000 A 
ATOM      3  C   UNL     1       2.569   6.664  19.452  0.00  0.00    +0.000 A 
ATOM      4  N   UNL     1       3.313   6.707  18.321  0.00  0.00    +0.000 NA
ATOM      5  C   UNL     1       3.886   5.563  17.891  0.00  0.00    +0.000 A 
ATOM      6  N   UNL     1       4.628   5.668  16.719  0.00  0.00    +0.000 N 
ATOM      7  C   UNL     1       5.279   4.621  16.157  0.00  0.00    +0.000 A 
ATOM      8  S   UNL     1       6.179   4.794  14.772  0.00  0.00    +0.000 S 
ATOM      9  N   UNL     1       5.144   3.412  16.776  0.00  0.00    +0.000 N 
ATOM     10  C   UNL     1       4.293   3.160  17.829  0.00  0.00    +0.000 A 
ATOM     11  O   UNL     1       3.916   2.021  18.074  0.00  0.00    +0.000 OA
ATOM     12  C   UNL     1       3.762   4.341  18.534  0.00  0.00    +0.000 A 
ATOM     13  H   UNL     1       4.681   6.586  16.291  0.00  0.00    +0.000 HD
ATOM     14  H   UNL     1       5.517   2.599  16.302  0.00  0.00    +0.000 HD
ENDROOT
BRANCH   3  15
ATOM     15  C   UNL     1       1.854   7.899  19.810  0.00  0.00    +0.000 A 
ATOM     16  C   UNL     1       1.384   8.116  21.115  0.00  0.00    +0.000 A 
ATOM     17  C   UNL     1       0.730   9.303  21.466  0.00  0.00    +0.000 A 
ATOM     18  C   UNL     1       0.551  10.313  20.522  0.00  0.00    +0.000 A 
ATOM     19  C   UNL     1       0.984  10.113  19.215  0.00  0.00    +0.000 A 
ATOM     20  C   UNL     1       1.630   8.922  18.865  0.00  0.00    +0.000 A 
BRANCH  18  21
ATOM     21  O   UNL     1      -0.095  11.435  20.966  0.00  0.00    +0.000 OA
ATOM     22  C   UNL     1      -0.751  11.295  22.223  0.00  0.00    +0.000 C 
ENDBRANCH  18  21
ENDBRANCH   3  15
BRANCH   1  23
ATOM     23  C   UNL     1       2.952   3.115  20.579  0.00  0.00    +0.000 C 
ATOM     24  O   UNL     1       3.876   2.532  21.108  0.00  0.00    +0.000 OA
BRANCH  23  25
ATOM     25  O   UNL     1       1.633   2.804  20.642  0.00  0.00    +0.000 OA
BRANCH  25  27
ATOM     26  C   UNL     1       0.422   2.645  18.623  0.00  0.00    +0.000 C 
ATOM     27  C   UNL     1       1.150   1.852  19.689  0.00  0.00    +0.000 C 
ENDBRANCH  25  27
ENDBRANCH  23  25
ENDBRANCH   1  23
TORSDOF 5
ENDMDL
MODEL 7
REMARK VINA RESULT:      -7.3      1.422      1.473
REMARK  Name = 
REMARK  7 active torsions:
REMARK  status: ('A' for Active; 'I' for Inactive)
REMARK    1  A    between atoms: C_1  and  C_2
REMARK    2  A    between atoms: C_2  and  O_3
REMARK    3  A    between atoms: O_3  and  C_4
REMARK    4  A    between atoms: C_4  and  C_6
REMARK    5  A    between atoms: C_8  and  C_9
REMARK    6  A    between atoms: C_12  and  O_13
REMARK    7  A    between atoms: O_13  and  C_14
REMARK                            x       y       z     vdW  Elec       q    Type
REMARK                         _______ _______ _______ _____ _____    ______ ____
ROOT
ATOM      1  C   UNL     1       3.113   4.659  19.344  0.00  0.00    +0.000 A 
ATOM      2  C   UNL     1       2.535   5.894  19.668  0.00  0.00    +0.000 A 
ATOM      3  C   UNL     1       2.709   6.975  18.817  0.00  0.00    +0.000 A 
ATOM      4  N   UNL     1       3.498   6.886  17.720  0.00  0.00    +0.000 NA
ATOM      5  C   UNL     1       4.046   5.689  17.424  0.00  0.00    +0.000 A 
ATOM      6  N   UNL     1       4.837   5.658  16.279  0.00  0.00    +0.000 N 
ATOM      7  C   UNL     1       5.471   4.541  15.847  0.00  0.00    +0.000 A 
ATOM      8  S   UNL     1       6.431   4.552  14.491  0.00  0.00    +0.000 S 
ATOM      9  N   UNL     1       5.269   3.402  16.571  0.00  0.00    +0.000 N 
ATOM     10  C   UNL     1       4.369   3.279  17.606  0.00  0.00    +0.000 A 
ATOM     11  O   UNL     1       3.942   2.182  17.941  0.00  0.00    +0.000 OA
ATOM     12  C   UNL     1       3.854   4.538  18.173  0.00  0.00    +0.000 A 
ATOM     13  H   UNL     1       4.939   6.528  15.770  0.00  0.00    +0.000 HD
ATOM     14  H   UNL     1       5.632   2.536  16.192  0.00  0.00    +0.000 HD
ENDROOT
BRANCH   3  15
ATOM     15  C   UNL     1       2.026   8.261  19.026  0.00  0.00    +0.000 A 
ATOM     16  C   UNL     1       1.381   8.554  20.239  0.00  0.00    +0.000 A 
ATOM     17  C   UNL     1       0.755   9.788  20.451  0.00  0.00    +0.000 A 
ATOM     18  C   UNL     1       0.780  10.769  19.462  0.00  0.00    +0.000 A 
ATOM     19  C   UNL     1       1.389  10.495  18.241  0.00  0.00    +0.000 A 
ATOM     20  C   UNL     1       2.007   9.257  18.028  0.00  0.00    +0.000 A 
BRANCH  18  21
ATOM     21  O   UNL     1       0.145  11.942  19.769  0.00  0.00    +0.000 OA
ATOM     22  C   UNL     1      -0.723  12.440  18.755  0.00  0.00    +0.000 C 
ENDBRANCH  18  21
ENDBRANCH   3  15
BRANCH   1  23
ATOM     23  C   UNL     1       2.921   3.540  20.288  0.00  0.00    +0.000 C 
ATOM     24  O   UNL     1       3.808   2.915  20.831  0.00  0.00    +0.000 OA
BRANCH  23  25
ATOM     25  O   UNL     1       1.583   3.366  20.427  0.00  0.00    +0.000 OA
BRANCH  25  27
ATOM     26  C   UNL     1       0.623   2.253  18.581  0.00  0.00    +0.000 C 
ATOM     27  C   UNL     1       1.053   2.099  20.025  0.00  0.00    +0.000 C 
ENDBRANCH  25  27
ENDBRANCH  23  25
ENDBRANCH   1  23
TORSDOF 5
ENDMDL
MODEL 8
REMARK VINA RESULT:      -7.3      1.463      1.813
REMARK  Name = 
REMARK  7 active torsions:
REMARK  status: ('A' for Active; 'I' for Inactive)
REMARK    1  A    between atoms: C_1  and  C_2
REMARK    2  A    between atoms: C_2  and  O_3
REMARK    3  A    between atoms: O_3  and  C_4
REMARK    4  A    between atoms: C_4  and  C_6
REMARK    5  A    between atoms: C_8  and  C_9
REMARK    6  A    between atoms: C_12  and  O_13
REMARK    7  A    between atoms: O_13  and  C_14
REMARK                            x       y       z     vdW  Elec       q    Type
REMARK                         _______ _______ _______ _____ _____    ______ ____
ROOT
ATOM      1  C   UNL     1       3.154   4.602  19.354  0.00  0.00    +0.000 A 
ATOM      2  C   UNL     1       2.562   5.821  19.712  0.00  0.00    +0.000 A 
ATOM      3  C   UNL     1       2.722   6.928  18.892  0.00  0.00    +0.000 A 
ATOM      4  N   UNL     1       3.511   6.879  17.792  0.00  0.00    +0.000 NA
ATOM      5  C   UNL     1       4.072   5.697  17.462  0.00  0.00    +0.000 A 
ATOM      6  N   UNL     1       4.862   5.708  16.317  0.00  0.00    +0.000 N 
ATOM      7  C   UNL     1       5.510   4.612  15.853  0.00  0.00    +0.000 A 
ATOM      8  S   UNL     1       6.467   4.672  14.497  0.00  0.00    +0.000 S 
ATOM      9  N   UNL     1       5.322   3.450  16.545  0.00  0.00    +0.000 N 
ATOM     10  C   UNL     1       4.425   3.287  17.576  0.00  0.00    +0.000 A 
ATOM     11  O   UNL     1       4.011   2.176  17.880  0.00  0.00    +0.000 OA
ATOM     12  C   UNL     1       3.895   4.524  18.179  0.00  0.00    +0.000 A 
ATOM     13  H   UNL     1       4.954   6.593  15.832  0.00  0.00    +0.000 HD
ATOM     14  H   UNL     1       5.694   2.599  16.141  0.00  0.00    +0.000 HD
ENDROOT
BRANCH   3  15
ATOM     15  C   UNL     1       2.023   8.199  19.138  0.00  0.00    +0.000 A 
ATOM     16  C   UNL     1       1.911   9.175  18.135  0.00  0.00    +0.000 A 
ATOM     17  C   UNL     1       1.221  10.372  18.358  0.00  0.00    +0.000 A 
ATOM     18  C   UNL     1       0.605  10.612  19.585  0.00  0.00    +0.000 A 
ATOM     19  C   UNL     1       0.723   9.673  20.605  0.00  0.00    +0.000 A 
ATOM     20  C   UNL     1       1.421   8.480  20.382  0.00  0.00    +0.000 A 
BRANCH  18  21
ATOM     21  O   UNL     1      -0.048  11.809  19.700  0.00  0.00    +0.000 OA
ATOM     22  C   UNL     1       0.177  12.502  20.924  0.00  0.00    +0.000 C 
ENDBRANCH  18  21
ENDBRANCH   3  15
BRANCH   1  23
ATOM     23  C   UNL     1       2.977   3.455  20.266  0.00  0.00    +0.000 C 
ATOM     24  O   UNL     1       3.868   2.759  20.706  0.00  0.00    +0.000 OA
BRANCH  23  25
ATOM     25  O   UNL     1       1.646   3.349  20.512  0.00  0.00    +0.000 OA
BRANCH  25  27
ATOM     26  C   UNL     1       0.600   2.396  18.623  0.00  0.00    +0.000 C 
ATOM     27  C   UNL     1       1.002   2.152  20.063  0.00  0.00    +0.000 C 
ENDBRANCH  25  27
ENDBRANCH  23  25
ENDBRANCH   1  23
TORSDOF 5
ENDMDL
MODEL 9
REMARK VINA RESULT:      -7.2      1.539      2.169
REMARK  Name = 
REMARK  7 active torsions:
REMARK  status: ('A' for Active; 'I' for Inactive)
REMARK    1  A    between atoms: C_1  and  C_2
REMARK    2  A    between atoms: C_2  and  O_3
REMARK    3  A    between atoms: O_3  and  C_4
REMARK    4  A    between atoms: C_4  and  C_6
REMARK    5  A    between atoms: C_8  and  C_9
REMARK    6  A    between atoms: C_12  and  O_13
REMARK    7  A    between atoms: O_13  and  C_14
REMARK                            x       y       z     vdW  Elec       q    Type
REMARK                         _______ _______ _______ _____ _____    ______ ____
ROOT
ATOM      1  C   UNL     1       2.459   4.422  18.786  0.00  0.00    +0.000 A 
ATOM      2  C   UNL     1       1.930   5.632  19.255  0.00  0.00    +0.000 A 
ATOM      3  C   UNL     1       2.480   6.831  18.828  0.00  0.00    +0.000 A 
ATOM      4  N   UNL     1       3.575   6.858  18.031  0.00  0.00    +0.000 NA
ATOM      5  C   UNL     1       4.070   5.683  17.589  0.00  0.00    +0.000 A 
ATOM      6  N   UNL     1       5.188   5.775  16.765  0.00  0.00    +0.000 N 
ATOM      7  C   UNL     1       5.818   4.694  16.247  0.00  0.00    +0.000 A 
ATOM      8  S   UNL     1       7.168   4.845  15.291  0.00  0.00    +0.000 S 
ATOM      9  N   UNL     1       5.277   3.473  16.534  0.00  0.00    +0.000 N 
ATOM     10  C   UNL     1       4.079   3.279  17.182  0.00  0.00    +0.000 A 
ATOM     11  O   UNL     1       3.460   2.230  17.058  0.00  0.00    +0.000 OA
ATOM     12  C   UNL     1       3.530   4.444  17.899  0.00  0.00    +0.000 A 
ATOM     13  H   UNL     1       5.537   6.707  16.571  0.00  0.00    +0.000 HD
ATOM     14  H   UNL     1       5.659   2.668  16.053  0.00  0.00    +0.000 HD
ENDROOT
BRANCH   3  15
ATOM     15  C   UNL     1       1.894   8.135  19.176  0.00  0.00    +0.000 A 
ATOM     16  C   UNL     1       1.765   9.154  18.218  0.00  0.00    +0.000 A 
ATOM     17  C   UNL     1       1.180  10.385  18.540  0.00  0.00    +0.000 A 
ATOM     18  C   UNL     1       0.690  10.618  19.823  0.00  0.00    +0.000 A 
ATOM     19  C   UNL     1       0.829   9.634  20.798  0.00  0.00    +0.000 A 
ATOM     20  C   UNL     1       1.421   8.408  20.476  0.00  0.00    +0.000 A 
BRANCH  18  21
ATOM     21  O   UNL     1       0.132  11.850  20.034  0.00  0.00    +0.000 OA
ATOM     22  C   UNL     1      -0.106  12.177  21.400  0.00  0.00    +0.000 C 
ENDBRANCH  18  21
ENDBRANCH   3  15
BRANCH   1  23
ATOM     23  C   UNL     1       1.858   3.168  19.283  0.00  0.00    +0.000 C 
ATOM     24  O   UNL     1       0.798   2.702  18.921  0.00  0.00    +0.000 OA
BRANCH  23  25
ATOM     25  O   UNL     1       2.718   2.654  20.198  0.00  0.00    +0.000 OA
BRANCH  25  27
ATOM     26  C   UNL     1       1.311   2.491  22.086  0.00  0.00    +0.000 C 
ATOM     27  C   UNL     1       2.579   3.119  21.545  0.00  0.00    +0.000 C 
ENDBRANCH  25  27
ENDBRANCH  23  25
ENDBRANCH   1  23
TORSDOF 5
ENDMDL
