MODEL 1
REMARK VINA RESULT:      -7.6      0.000      0.000
REMARK  Name = 
REMARK  5 active torsions:
REMARK  status: ('A' for Active; 'I' for Inactive)
REMARK    1  A    between atoms: C_2  and  C_3
REMARK    2  A    between atoms: C_3  and  C_4
REMARK    3  A    between atoms: C_4  and  C_5
REMARK    4  A    between atoms: C_5  and  N_6
REMARK    5  A    between atoms: C_17  and  N_18
REMARK                            x       y       z     vdW  Elec       q    Type
REMARK                         _______ _______ _______ _____ _____    ______ ____
ROOT
ATOM      1  O   UNL     1       7.251   4.709  18.360  0.00  0.00    +0.000 OA
ATOM      2  C   UNL     1       6.752   5.655  17.751  0.00  0.00    +0.000 C 
ATOM      3  N   UNL     1       5.402   5.683  17.435  0.00  0.00    +0.000 N 
ATOM      4  C   UNL     1       4.691   6.800  16.817  0.00  0.00    +0.000 C 
ATOM      5  C   UNL     1       3.554   7.267  17.724  0.00  0.00    +0.000 C 
ATOM      6  C   UNL     1       2.622   6.114  18.097  0.00  0.00    +0.000 C 
ATOM      7  C   UNL     1       3.400   4.917  18.679  0.00  0.00    +0.000 C 
ATOM      8  C   UNL     1       4.569   4.523  17.765  0.00  0.00    +0.000 C 
ENDROOT
BRANCH   7   9
ATOM      9  N   UNL     1       2.526   3.785  18.954  0.00  0.00    +0.000 N 
ATOM     10  C   UNL     1       2.755   2.761  19.835  0.00  0.00    +0.000 A 
ATOM     11  C   UNL     1       1.656   1.942  19.719  0.00  0.00    +0.000 A 
ATOM     12  N   UNL     1       0.771   2.441  18.801  0.00  0.00    +0.000 NA
ATOM     13  C   UNL     1       1.317   3.554  18.361  0.00  0.00    +0.000 A 
ENDBRANCH   7   9
BRANCH   2  14
ATOM     14  C   UNL     1       7.595   6.846  17.312  0.00  0.00    +0.000 C 
BRANCH  14  15
ATOM     15  C   UNL     1       8.195   7.639  18.475  0.00  0.00    +0.000 C 
BRANCH  15  16
ATOM     16  C   UNL     1       8.331   9.132  18.181  0.00  0.00    +0.000 C 
BRANCH  16  17
ATOM     17  N   UNL     1       9.161   9.750  19.201  0.00  0.00    +0.000 N 
ATOM     18  C   UNL     1       9.671  10.982  18.803  0.00  0.00    +0.000 A 
ATOM     19  N   UNL     1       8.952  11.787  18.004  0.00  0.00    +0.000 NA
ATOM     20  C   UNL     1       9.519  12.943  17.624  0.00  0.00    +0.000 A 
ATOM     21  C   UNL     1      10.771  13.336  18.022  0.00  0.00    +0.000 A 
ATOM     22  C   UNL     1      11.423  12.453  18.847  0.00  0.00    +0.000 A 
ATOM     23  N   UNL     1      10.902  11.278  19.243  0.00  0.00    +0.000 NA
ATOM     24  H   UNL     1       9.981   9.208  19.466  0.00  0.00    +0.000 HD
ENDBRANCH  16  17
ENDBRANCH  15  16
ENDBRANCH  14  15
ENDBRANCH   2  14
TORSDOF 5
ENDMDL
MODEL 2
REMARK VINA RESULT:      -7.6      1.043      1.081
REMARK  Name = 
REMARK  5 active torsions:
REMARK  status: ('A' for Active; 'I' for Inactive)
REMARK    1  A    between atoms: C_2  and  C_3
REMARK    2  A    between atoms: C_3  and  C_4
REMARK    3  A    between atoms: C_4  and  C_5
REMARK    4  A    between atoms: C_5  and  N_6
REMARK    5  A    between atoms: C_17  and  N_18
REMARK                            x       y       z     vdW  Elec       q    Type
REMARK                         _______ _______ _______ _____ _____    ______ ____
ROOT
ATOM      1  O   UNL     1       7.242   5.553  19.144  0.00  0.00    +0.000 OA
ATOM      2  C   UNL     1       6.687   6.233  18.281  0.00  0.00    +0.000 C 
ATOM      3  N   UNL     1       5.354   6.037  17.950  0.00  0.00    +0.000 N 
ATOM      4  C   UNL     1       4.573   6.855  17.025  0.00  0.00    +0.000 C 
ATOM      5  C   UNL     1       3.361   7.448  17.742  0.00  0.00    +0.000 C 
ATOM      6  C   UNL     1       2.521   6.363  18.418  0.00  0.00    +0.000 C 
ATOM      7  C   UNL     1       3.378   5.465  19.331  0.00  0.00    +0.000 C 
ATOM      8  C   UNL     1       4.616   4.942  18.588  0.00  0.00    +0.000 C 
ENDROOT
BRANCH   7   9
ATOM      9  N   UNL     1       2.598   4.378  19.907  0.00  0.00    +0.000 N 
ATOM     10  C   UNL     1       3.015   3.092  20.131  0.00  0.00    +0.000 A 
ATOM     11  C   UNL     1       1.922   2.453  20.667  0.00  0.00    +0.000 A 
ATOM     12  N   UNL     1       0.862   3.313  20.779  0.00  0.00    +0.000 NA
ATOM     13  C   UNL     1       1.299   4.465  20.320  0.00  0.00    +0.000 A 
ENDBRANCH   7   9
BRANCH   2  14
ATOM     14  C   UNL     1       7.437   7.325  17.531  0.00  0.00    +0.000 C 
BRANCH  14  15
ATOM     15  C   UNL     1       8.405   8.123  18.407  0.00  0.00    +0.000 C 
BRANCH  15  16
ATOM     16  C   UNL     1       8.463   9.607  18.046  0.00  0.00    +0.000 C 
BRANCH  16  17
ATOM     17  N   UNL     1       8.887  10.368  19.209  0.00  0.00    +0.000 N 
ATOM     18  C   UNL     1       9.988  11.178  18.947  0.00  0.00    +0.000 A 
ATOM     19  N   UNL     1      10.146  11.737  17.736  0.00  0.00    +0.000 NA
ATOM     20  C   UNL     1      11.250  12.473  17.537  0.00  0.00    +0.000 A 
ATOM     21  C   UNL     1      12.199  12.685  18.503  0.00  0.00    +0.000 A 
ATOM     22  C   UNL     1      11.946  12.083  19.711  0.00  0.00    +0.000 A 
ATOM     23  N   UNL     1      10.861  11.327  19.953  0.00  0.00    +0.000 NA
ATOM     24  H   UNL     1       9.170   9.803  20.007  0.00  0.00    +0.000 HD
ENDBRANCH  16  17
ENDBRANCH  15  16
ENDBRANCH  14  15
ENDBRANCH   2  14
TORSDOF 5
ENDMDL
MODEL 3
REMARK VINA RESULT:      -7.4      5.002      6.967
REMARK  Name = 
REMARK  5 active torsions:
REMARK  status: ('A' for Active; 'I' for Inactive)
REMARK    1  A    between atoms: C_2  and  C_3
REMARK    2  A    between atoms: C_3  and  C_4
REMARK    3  A    between atoms: C_4  and  C_5
REMARK    4  A    between atoms: C_5  and  N_6
REMARK    5  A    between atoms: C_17  and  N_18
REMARK                            x       y       z     vdW  Elec       q    Type
REMARK                         _______ _______ _______ _____ _____    ______ ____
ROOT
ATOM      1  O   UNL     1       1.374   3.932  17.403  0.00  0.00    +0.000 OA
ATOM      2  C   UNL     1       2.031   3.671  18.410  0.00  0.00    +0.000 C 
ATOM      3  N   UNL     1       3.409   3.516  18.356  0.00  0.00    +0.000 N 
ATOM      4  C   UNL     1       4.292   3.317  19.503  0.00  0.00    +0.000 C 
ATOM      5  C   UNL     1       5.335   4.431  19.564  0.00  0.00    +0.000 C 
ATOM      6  C   UNL     1       6.103   4.555  18.247  0.00  0.00    +0.000 C 
ATOM      7  C   UNL     1       5.151   4.691  17.042  0.00  0.00    +0.000 C 
ATOM      8  C   UNL     1       4.083   3.587  17.057  0.00  0.00    +0.000 C 
ENDROOT
BRANCH   7   9
ATOM      9  N   UNL     1       5.876   4.721  15.780  0.00  0.00    +0.000 N 
ATOM     10  C   UNL     1       5.494   4.148  14.595  0.00  0.00    +0.000 A 
ATOM     11  C   UNL     1       6.511   4.439  13.716  0.00  0.00    +0.000 A 
ATOM     12  N   UNL     1       7.490   5.173  14.331  0.00  0.00    +0.000 NA
ATOM     13  C   UNL     1       7.079   5.333  15.570  0.00  0.00    +0.000 A 
ENDBRANCH   7   9
BRANCH   2  14
ATOM     14  C   UNL     1       1.364   3.504  19.769  0.00  0.00    +0.000 C 
BRANCH  14  15
ATOM     15  C   UNL     1       1.927   4.428  20.850  0.00  0.00    +0.000 C 
BRANCH  15  16
ATOM     16  C   UNL     1       1.488   5.883  20.689  0.00  0.00    +0.000 C 
BRANCH  16  17
ATOM     17  N   UNL     1       2.487   6.604  19.918  0.00  0.00    +0.000 N 
ATOM     18  C   UNL     1       2.041   7.853  19.497  0.00  0.00    +0.000 A 
ATOM     19  N   UNL     1       1.202   8.567  20.263  0.00  0.00    +0.000 NA
ATOM     20  C   UNL     1       0.777   9.745  19.780  0.00  0.00    +0.000 A 
ATOM     21  C   UNL     1       1.167  10.246  18.565  0.00  0.00    +0.000 A 
ATOM     22  C   UNL     1       2.035   9.450  17.858  0.00  0.00    +0.000 A 
ATOM     23  N   UNL     1       2.477   8.258  18.296  0.00  0.00    +0.000 NA
ATOM     24  H   UNL     1       2.783   6.136  19.063  0.00  0.00    +0.000 HD
ENDBRANCH  16  17
ENDBRANCH  15  16
ENDBRANCH  14  15
ENDBRANCH   2  14
TORSDOF 5
ENDMDL
MODEL 4
REMARK VINA RESULT:      -7.3      1.369      1.697
REMARK  Name = 
REMARK  5 active torsions:
REMARK  status: ('A' for Active; 'I' for Inactive)
REMARK    1  A    between atoms: C_2  and  C_3
REMARK    2  A    between atoms: C_3  and  C_4
REMARK    3  A    between atoms: C_4  and  C_5
REMARK    4  A    between atoms: C_5  and  N_6
REMARK    5  A    between atoms: C_17  and  N_18
REMARK                            x       y       z     vdW  Elec       q    Type
REMARK                         _______ _______ _______ _____ _____    ______ ____
ROOT
ATOM      1  O   UNL     1       7.781   5.933  19.376  0.00  0.00    +0.000 OA
ATOM      2  C   UNL     1       7.228   6.370  18.367  0.00  0.00    +0.000 C 
ATOM      3  N   UNL     1       5.947   5.972  18.013  0.00  0.00    +0.000 N 
ATOM      4  C   UNL     1       5.160   6.510  16.905  0.00  0.00    +0.000 C 
ATOM      5  C   UNL     1       3.848   7.094  17.426  0.00  0.00    +0.000 C 
ATOM      6  C   UNL     1       3.069   6.074  18.258  0.00  0.00    +0.000 C 
ATOM      7  C   UNL     1       3.940   5.465  19.375  0.00  0.00    +0.000 C 
ATOM      8  C   UNL     1       5.272   4.947  18.815  0.00  0.00    +0.000 C 
ENDROOT
BRANCH   7   9
ATOM      9  N   UNL     1       3.228   4.430  20.112  0.00  0.00    +0.000 N 
ATOM     10  C   UNL     1       3.438   3.078  20.046  0.00  0.00    +0.000 A 
ATOM     11  C   UNL     1       2.514   2.533  20.908  0.00  0.00    +0.000 A 
ATOM     12  N   UNL     1       1.759   3.514  21.494  0.00  0.00    +0.000 NA
ATOM     13  C   UNL     1       2.214   4.645  21.003  0.00  0.00    +0.000 A 
ENDBRANCH   7   9
BRANCH   2  14
ATOM     14  C   UNL     1       7.922   7.374  17.457  0.00  0.00    +0.000 C 
BRANCH  14  15
ATOM     15  C   UNL     1       7.584   8.832  17.774  0.00  0.00    +0.000 C 
BRANCH  15  16
ATOM     16  C   UNL     1       8.704   9.565  18.512  0.00  0.00    +0.000 C 
BRANCH  16  17
ATOM     17  N   UNL     1       8.741  10.950  18.076  0.00  0.00    +0.000 N 
ATOM     18  C   UNL     1       9.785  11.666  18.653  0.00  0.00    +0.000 A 
ATOM     19  N   UNL     1      10.952  11.061  18.926  0.00  0.00    +0.000 NA
ATOM     20  C   UNL     1      11.904  11.798  19.520  0.00  0.00    +0.000 A 
ATOM     21  C   UNL     1      11.743  13.121  19.841  0.00  0.00    +0.000 A 
ATOM     22  C   UNL     1      10.521  13.655  19.513  0.00  0.00    +0.000 A 
ATOM     23  N   UNL     1       9.533  12.953  18.930  0.00  0.00    +0.000 NA
ATOM     24  H   UNL     1       7.906  11.489  18.302  0.00  0.00    +0.000 HD
ENDBRANCH  16  17
ENDBRANCH  15  16
ENDBRANCH  14  15
ENDBRANCH   2  14
TORSDOF 5
ENDMDL
MODEL 5
REMARK VINA RESULT:      -7.2      5.279      7.191
REMARK  Name = 
REMARK  5 active torsions:
REMARK  status: ('A' for Active; 'I' for Inactive)
REMARK    1  A    between atoms: C_2  and  C_3
REMARK    2  A    between atoms: C_3  and  C_4
REMARK    3  A    between atoms: C_4  and  C_5
REMARK    4  A    between atoms: C_5  and  N_6
REMARK    5  A    between atoms: C_17  and  N_18
REMARK                            x       y       z     vdW  Elec       q    Type
REMARK                         _______ _______ _______ _____ _____    ______ ____
ROOT
ATOM      1  O   UNL     1       1.262   3.866  17.212  0.00  0.00    +0.000 OA
ATOM      2  C   UNL     1       1.917   3.589  18.216  0.00  0.00    +0.000 C 
ATOM      3  N   UNL     1       3.289   3.395  18.156  0.00  0.00    +0.000 N 
ATOM      4  C   UNL     1       4.172   3.174  19.299  0.00  0.00    +0.000 C 
ATOM      5  C   UNL     1       5.248   4.258  19.349  0.00  0.00    +0.000 C 
ATOM      6  C   UNL     1       6.012   4.355  18.028  0.00  0.00    +0.000 C 
ATOM      7  C   UNL     1       5.057   4.514  16.828  0.00  0.00    +0.000 C 
ATOM      8  C   UNL     1       3.958   3.442  16.852  0.00  0.00    +0.000 C 
ENDROOT
BRANCH   7   9
ATOM      9  N   UNL     1       5.776   4.518  15.562  0.00  0.00    +0.000 N 
ATOM     10  C   UNL     1       7.006   5.067  15.313  0.00  0.00    +0.000 A 
ATOM     11  C   UNL     1       7.238   4.828  13.979  0.00  0.00    +0.000 A 
ATOM     12  N   UNL     1       6.190   4.149  13.417  0.00  0.00    +0.000 NA
ATOM     13  C   UNL     1       5.327   3.971  14.393  0.00  0.00    +0.000 A 
ENDBRANCH   7   9
BRANCH   2  14
ATOM     14  C   UNL     1       1.253   3.447  19.579  0.00  0.00    +0.000 C 
BRANCH  14  15
ATOM     15  C   UNL     1       0.849   4.780  20.212  0.00  0.00    +0.000 C 
BRANCH  15  16
ATOM     16  C   UNL     1       2.003   5.483  20.926  0.00  0.00    +0.000 C 
BRANCH  16  17
ATOM     17  N   UNL     1       2.571   6.490  20.046  0.00  0.00    +0.000 N 
ATOM     18  C   UNL     1       1.889   7.702  20.107  0.00  0.00    +0.000 A 
ATOM     19  N   UNL     1       1.338   8.112  21.261  0.00  0.00    +0.000 NA
ATOM     20  C   UNL     1       0.660   9.270  21.241  0.00  0.00    +0.000 A 
ATOM     21  C   UNL     1       0.519  10.043  20.118  0.00  0.00    +0.000 A 
ATOM     22  C   UNL     1       1.127   9.548  18.990  0.00  0.00    +0.000 A 
ATOM     23  N   UNL     1       1.805   8.387  18.959  0.00  0.00    +0.000 NA
ATOM     24  H   UNL     1       2.565   6.243  19.058  0.00  0.00    +0.000 HD
ENDBRANCH  16  17
ENDBRANCH  15  16
ENDBRANCH  14  15
ENDBRANCH   2  14
TORSDOF 5
ENDMDL
MODEL 6
REMARK VINA RESULT:      -7.2      1.384      1.653
REMARK  Name = 
REMARK  5 active torsions:
REMARK  status: ('A' for Active; 'I' for Inactive)
REMARK    1  A    between atoms: C_2  and  C_3
REMARK    2  A    between atoms: C_3  and  C_4
REMARK    3  A    between atoms: C_4  and  C_5
REMARK    4  A    between atoms: C_5  and  N_6
REMARK    5  A    between atoms: C_17  and  N_18
REMARK                            x       y       z     vdW  Elec       q    Type
REMARK                         _______ _______ _______ _____ _____    ______ ____
ROOT
ATOM      1  O   UNL     1       7.367   5.679  19.151  0.00  0.00    +0.000 OA
ATOM      2  C   UNL     1       6.790   6.313  18.268  0.00  0.00    +0.000 C 
ATOM      3  N   UNL     1       5.468   6.052  17.934  0.00  0.00    +0.000 N 
ATOM      4  C   UNL     1       4.660   6.814  16.985  0.00  0.00    +0.000 C 
ATOM      5  C   UNL     1       3.419   7.371  17.680  0.00  0.00    +0.000 C 
ATOM      6  C   UNL     1       2.621   6.268  18.377  0.00  0.00    +0.000 C 
ATOM      7  C   UNL     1       3.509   5.430  19.318  0.00  0.00    +0.000 C 
ATOM      8  C   UNL     1       4.773   4.943  18.595  0.00  0.00    +0.000 C 
ENDROOT
BRANCH   7   9
ATOM      9  N   UNL     1       2.773   4.325  19.916  0.00  0.00    +0.000 N 
ATOM     10  C   UNL     1       2.466   3.125  19.331  0.00  0.00    +0.000 A 
ATOM     11  C   UNL     1       1.754   2.436  20.285  0.00  0.00    +0.000 A 
ATOM     12  N   UNL     1       1.627   3.180  21.428  0.00  0.00    +0.000 NA
ATOM     13  C   UNL     1       2.254   4.309  21.180  0.00  0.00    +0.000 A 
ENDBRANCH   7   9
BRANCH   2  14
ATOM     14  C   UNL     1       7.498   7.417  17.495  0.00  0.00    +0.000 C 
BRANCH  14  15
ATOM     15  C   UNL     1       8.458   8.249  18.348  0.00  0.00    +0.000 C 
BRANCH  15  16
ATOM     16  C   UNL     1       8.244   9.755  18.203  0.00  0.00    +0.000 C 
BRANCH  16  17
ATOM     17  N   UNL     1       9.535  10.420  18.135  0.00  0.00    +0.000 N 
ATOM     18  C   UNL     1       9.731  11.319  19.179  0.00  0.00    +0.000 A 
ATOM     19  N   UNL     1       9.212  11.072  20.393  0.00  0.00    +0.000 NA
ATOM     20  C   UNL     1       9.403  12.000  21.343  0.00  0.00    +0.000 A 
ATOM     21  C   UNL     1      10.102  13.161  21.136  0.00  0.00    +0.000 A 
ATOM     22  C   UNL     1      10.604  13.319  19.867  0.00  0.00    +0.000 A 
ATOM     23  N   UNL     1      10.427  12.424  18.879  0.00  0.00    +0.000 NA
ATOM     24  H   UNL     1       9.686  10.970  17.292  0.00  0.00    +0.000 HD
ENDBRANCH  16  17
ENDBRANCH  15  16
ENDBRANCH  14  15
ENDBRANCH   2  14
TORSDOF 5
ENDMDL
MODEL 7
REMARK VINA RESULT:      -7.2      5.084      7.914
REMARK  Name = 
REMARK  5 active torsions:
REMARK  status: ('A' for Active; 'I' for Inactive)
REMARK    1  A    between atoms: C_2  and  C_3
REMARK    2  A    between atoms: C_3  and  C_4
REMARK    3  A    between atoms: C_4  and  C_5
REMARK    4  A    between atoms: C_5  and  N_6
REMARK    5  A    between atoms: C_17  and  N_18
REMARK                            x       y       z     vdW  Elec       q    Type
REMARK                         _______ _______ _______ _____ _____    ______ ____
ROOT
ATOM      1  O   UNL     1       4.355   5.691  19.719  0.00  0.00    +0.000 OA
ATOM      2  C   UNL     1       3.933   6.150  18.658  0.00  0.00    +0.000 C 
ATOM      3  N   UNL     1       2.771   6.905  18.606  0.00  0.00    +0.000 N 
ATOM      4  C   UNL     1       2.245   7.585  17.424  0.00  0.00    +0.000 C 
ATOM      5  C   UNL     1       2.122   9.084  17.692  0.00  0.00    +0.000 C 
ATOM      6  C   UNL     1       1.295   9.367  18.947  0.00  0.00    +0.000 C 
ATOM      7  C   UNL     1       1.822   8.582  20.165  0.00  0.00    +0.000 C 
ATOM      8  C   UNL     1       1.988   7.092  19.831  0.00  0.00    +0.000 C 
ENDROOT
BRANCH   7   9
ATOM      9  N   UNL     1       0.985   8.780  21.340  0.00  0.00    +0.000 N 
ATOM     10  C   UNL     1       1.335   9.407  22.506  0.00  0.00    +0.000 A 
ATOM     11  C   UNL     1       0.219   9.321  23.305  0.00  0.00    +0.000 A 
ATOM     12  N   UNL     1      -0.795   8.667  22.655  0.00  0.00    +0.000 NA
ATOM     13  C   UNL     1      -0.308   8.359  21.473  0.00  0.00    +0.000 A 
ENDBRANCH   7   9
BRANCH   2  14
ATOM     14  C   UNL     1       4.667   5.910  17.345  0.00  0.00    +0.000 C 
BRANCH  14  15
ATOM     15  C   UNL     1       5.095   4.457  17.133  0.00  0.00    +0.000 C 
BRANCH  15  16
ATOM     16  C   UNL     1       3.931   3.469  17.202  0.00  0.00    +0.000 C 
BRANCH  16  17
ATOM     17  N   UNL     1       4.123   2.577  18.333  0.00  0.00    +0.000 N 
ATOM     18  C   UNL     1       3.111   2.688  19.282  0.00  0.00    +0.000 A 
ATOM     19  N   UNL     1       1.852   2.960  18.901  0.00  0.00    +0.000 NA
ATOM     20  C   UNL     1       0.932   3.094  19.869  0.00  0.00    +0.000 A 
ATOM     21  C   UNL     1       1.215   2.955  21.203  0.00  0.00    +0.000 A 
ATOM     22  C   UNL     1       2.526   2.666  21.494  0.00  0.00    +0.000 A 
ATOM     23  N   UNL     1       3.484   2.536  20.559  0.00  0.00    +0.000 NA
ATOM     24  H   UNL     1       4.982   2.734  18.857  0.00  0.00    +0.000 HD
ENDBRANCH  16  17
ENDBRANCH  15  16
ENDBRANCH  14  15
ENDBRANCH   2  14
TORSDOF 5
ENDMDL
MODEL 8
REMARK VINA RESULT:      -7.1      1.509      1.839
REMARK  Name = 
REMARK  5 active torsions:
REMARK  status: ('A' for Active; 'I' for Inactive)
REMARK    1  A    between atoms: C_2  and  C_3
REMARK    2  A    between atoms: C_3  and  C_4
REMARK    3  A    between atoms: C_4  and  C_5
REMARK    4  A    between atoms: C_5  and  N_6
REMARK    5  A    between atoms: C_17  and  N_18
REMARK                            x       y       z     vdW  Elec       q    Type
REMARK                         _______ _______ _______ _____ _____    ______ ____
ROOT
ATOM      1  O   UNL     1       7.762   6.046  19.247  0.00  0.00    +0.000 OA
ATOM      2  C   UNL     1       7.176   6.508  18.268  0.00  0.00    +0.000 C 
ATOM      3  N   UNL     1       5.885   6.117  17.945  0.00  0.00    +0.000 N 
ATOM      4  C   UNL     1       5.062   6.681  16.877  0.00  0.00    +0.000 C 
ATOM      5  C   UNL     1       3.767   7.249  17.456  0.00  0.00    +0.000 C 
ATOM      6  C   UNL     1       3.016   6.206  18.286  0.00  0.00    +0.000 C 
ATOM      7  C   UNL     1       3.923   5.571  19.358  0.00  0.00    +0.000 C 
ATOM      8  C   UNL     1       5.238   5.070  18.742  0.00  0.00    +0.000 C 
ENDROOT
BRANCH   7   9
ATOM      9  N   UNL     1       3.237   4.516  20.092  0.00  0.00    +0.000 N 
ATOM     10  C   UNL     1       2.223   4.669  20.999  0.00  0.00    +0.000 A 
ATOM     11  C   UNL     1       1.930   3.393  21.422  0.00  0.00    +0.000 A 
ATOM     12  N   UNL     1       2.732   2.477  20.794  0.00  0.00    +0.000 NA
ATOM     13  C   UNL     1       3.504   3.180  19.995  0.00  0.00    +0.000 A 
ENDBRANCH   7   9
BRANCH   2  14
ATOM     14  C   UNL     1       7.839   7.536  17.361  0.00  0.00    +0.000 C 
BRANCH  14  15
ATOM     15  C   UNL     1       7.692   8.978  17.852  0.00  0.00    +0.000 C 
BRANCH  15  16
ATOM     16  C   UNL     1       8.882   9.456  18.683  0.00  0.00    +0.000 C 
BRANCH  16  17
ATOM     17  N   UNL     1       9.552  10.540  17.984  0.00  0.00    +0.000 N 
ATOM     18  C   UNL     1       9.338  11.778  18.583  0.00  0.00    +0.000 A 
ATOM     19  N   UNL     1       9.209  11.873  19.916  0.00  0.00    +0.000 NA
ATOM     20  C   UNL     1       8.962  13.090  20.426  0.00  0.00    +0.000 A 
ATOM     21  C   UNL     1       8.852  14.220  19.659  0.00  0.00    +0.000 A 
ATOM     22  C   UNL     1       9.010  14.026  18.308  0.00  0.00    +0.000 A 
ATOM     23  N   UNL     1       9.245  12.824  17.751  0.00  0.00    +0.000 NA
ATOM     24  H   UNL     1       9.258  10.669  17.018  0.00  0.00    +0.000 HD
ENDBRANCH  16  17
ENDBRANCH  15  16
ENDBRANCH  14  15
ENDBRANCH   2  14
TORSDOF 5
ENDMDL
MODEL 9
REMARK VINA RESULT:      -7.1      4.496      8.271
REMARK  Name = 
REMARK  5 active torsions:
REMARK  status: ('A' for Active; 'I' for Inactive)
REMARK    1  A    between atoms: C_2  and  C_3
REMARK    2  A    between atoms: C_3  and  C_4
REMARK    3  A    between atoms: C_4  and  C_5
REMARK    4  A    between atoms: C_5  and  N_6
REMARK    5  A    between atoms: C_17  and  N_18
REMARK                            x       y       z     vdW  Elec       q    Type
REMARK                         _______ _______ _______ _____ _____    ______ ____
ROOT
ATOM      1  O   UNL     1       2.548   6.009  17.538  0.00  0.00    +0.000 OA
ATOM      2  C   UNL     1       3.445   5.872  18.369  0.00  0.00    +0.000 C 
ATOM      3  N   UNL     1       4.656   5.281  18.039  0.00  0.00    +0.000 N 
ATOM      4  C   UNL     1       5.821   5.170  18.914  0.00  0.00    +0.000 C 
ATOM      5  C   UNL     1       7.026   5.860  18.276  0.00  0.00    +0.000 C 
ATOM      6  C   UNL     1       7.298   5.328  16.868  0.00  0.00    +0.000 C 
ATOM      7  C   UNL     1       6.037   5.386  15.983  0.00  0.00    +0.000 C 
ATOM      8  C   UNL     1       4.838   4.736  16.689  0.00  0.00    +0.000 C 
ENDROOT
BRANCH   7   9
ATOM      9  N   UNL     1       6.269   4.800  14.670  0.00  0.00    +0.000 N 
ATOM     10  C   UNL     1       5.480   3.886  14.024  0.00  0.00    +0.000 A 
ATOM     11  C   UNL     1       6.127   3.635  12.836  0.00  0.00    +0.000 A 
ATOM     12  N   UNL     1       7.278   4.372  12.744  0.00  0.00    +0.000 NA
ATOM     13  C   UNL     1       7.335   5.068  13.858  0.00  0.00    +0.000 A 
ENDBRANCH   7   9
BRANCH   2  14
ATOM     14  C   UNL     1       3.271   6.346  19.806  0.00  0.00    +0.000 C 
BRANCH  14  15
ATOM     15  C   UNL     1       1.847   6.186  20.341  0.00  0.00    +0.000 C 
BRANCH  15  16
ATOM     16  C   UNL     1       1.636   4.887  21.118  0.00  0.00    +0.000 C 
BRANCH  16  17
ATOM     17  N   UNL     1       0.990   3.910  20.257  0.00  0.00    +0.000 N 
ATOM     18  C   UNL     1       1.902   3.095  19.592  0.00  0.00    +0.000 A 
ATOM     19  N   UNL     1       3.057   2.748  20.182  0.00  0.00    +0.000 NA
ATOM     20  C   UNL     1       3.910   1.995  19.470  0.00  0.00    +0.000 A 
ATOM     21  C   UNL     1       3.650   1.562  18.196  0.00  0.00    +0.000 A 
ATOM     22  C   UNL     1       2.440   1.957  17.681  0.00  0.00    +0.000 A 
ATOM     23  N   UNL     1       1.560   2.723  18.352  0.00  0.00    +0.000 NA
ATOM     24  H   UNL     1       0.417   4.310  19.517  0.00  0.00    +0.000 HD
ENDBRANCH  16  17
ENDBRANCH  15  16
ENDBRANCH  14  15
ENDBRANCH   2  14
TORSDOF 5
ENDMDL
