MODEL 1
REMARK VINA RESULT:      -7.9      0.000      0.000
REMARK  Name = 
REMARK  6 active torsions:
REMARK  status: ('A' for Active; 'I' for Inactive)
REMARK    1  A    between atoms: N_1  and  C_2
REMARK    2  A    between atoms: C_2  and  C_3
REMARK    3  A    between atoms: C_3  and  C_4
REMARK    4  A    between atoms: C_4  and  N_5
REMARK    5  A    between atoms: N_5  and  C_6
REMARK    6  A    between atoms: C_6  and  C_7
REMARK                            x       y       z     vdW  Elec       q    Type
REMARK                         _______ _______ _______ _____ _____    ______ ____
ROOT
ATOM      1  N   UNL     1       6.189   5.223  16.121  0.00  0.00    +0.000 N 
ATOM      2  C   UNL     1       6.531   4.884  14.783  0.00  0.00    +0.000 A 
ATOM      3  C   UNL     1       5.715   4.010  14.057  0.00  0.00    +0.000 A 
ATOM      4  C   UNL     1       6.030   3.671  12.743  0.00  0.00    +0.000 A 
ATOM      5  C   UNL     1       7.158   4.232  12.159  0.00  0.00    +0.000 A 
ATOM      6  C   UNL     1       7.913   5.096  12.925  0.00  0.00    +0.000 A 
ATOM      7  N   UNL     1       7.635   5.420  14.209  0.00  0.00    +0.000 NA
ENDROOT
BRANCH   1   8
ATOM      8  C   UNL     1       7.359   5.747  16.868  0.00  0.00    +0.000 C 
BRANCH   8   9
ATOM      9  C   UNL     1       7.721   4.938  18.124  0.00  0.00    +0.000 C 
BRANCH   9  10
ATOM     10  C   UNL     1       7.197   5.582  19.412  0.00  0.00    +0.000 C 
BRANCH  10  11
ATOM     11  N   UNL     1       8.158   5.434  20.508  0.00  0.00    +0.000 NA
ATOM     12  H   UNL     1       8.183   6.283  21.070  0.00  0.00    +0.000 HD
ATOM     13  H   UNL     1       7.872   4.687  21.141  0.00  0.00    +0.000 HD
ENDBRANCH  10  11
ENDBRANCH   9  10
ENDBRANCH   8   9
ENDBRANCH   1   8
BRANCH   1  14
ATOM     14  C   UNL     1       4.915   5.967  16.158  0.00  0.00    +0.000 C 
BRANCH  14  15
ATOM     15  C   UNL     1       3.979   5.506  17.272  0.00  0.00    +0.000 A 
ATOM     16  C   UNL     1       3.414   6.376  18.216  0.00  0.00    +0.000 A 
ATOM     17  C   UNL     1       2.507   5.913  19.175  0.00  0.00    +0.000 A 
ATOM     18  C   UNL     1       2.117   4.574  19.184  0.00  0.00    +0.000 A 
ATOM     19 CL   UNL     1       0.894   4.098  20.307  0.00  0.00    +0.000 Cl
ATOM     20  C   UNL     1       2.696   3.681  18.277  0.00  0.00    +0.000 A 
ATOM     21 CL   UNL     1       2.271   2.006  18.229  0.00  0.00    +0.000 Cl
ATOM     22  C   UNL     1       3.636   4.143  17.344  0.00  0.00    +0.000 A 
ENDBRANCH  14  15
ENDBRANCH   1  14
TORSDOF 6
ENDMDL
MODEL 2
REMARK VINA RESULT:      -7.5      1.057      1.759
REMARK  Name = 
REMARK  6 active torsions:
REMARK  status: ('A' for Active; 'I' for Inactive)
REMARK    1  A    between atoms: N_1  and  C_2
REMARK    2  A    between atoms: C_2  and  C_3
REMARK    3  A    between atoms: C_3  and  C_4
REMARK    4  A    between atoms: C_4  and  N_5
REMARK    5  A    between atoms: N_5  and  C_6
REMARK    6  A    between atoms: C_6  and  C_7
REMARK                            x       y       z     vdW  Elec       q    Type
REMARK                         _______ _______ _______ _____ _____    ______ ____
ROOT
ATOM      1  N   UNL     1       6.212   4.553  16.183  0.00  0.00    +0.000 N 
ATOM      2  C   UNL     1       6.559   4.491  14.806  0.00  0.00    +0.000 A 
ATOM      3  C   UNL     1       5.791   3.717  13.929  0.00  0.00    +0.000 A 
ATOM      4  C   UNL     1       6.112   3.649  12.576  0.00  0.00    +0.000 A 
ATOM      5  C   UNL     1       7.195   4.379  12.106  0.00  0.00    +0.000 A 
ATOM      6  C   UNL     1       7.903   5.132  13.020  0.00  0.00    +0.000 A 
ATOM      7  N   UNL     1       7.621   5.194  14.342  0.00  0.00    +0.000 NA
ENDROOT
BRANCH   1   8
ATOM      8  C   UNL     1       7.355   5.003  17.016  0.00  0.00    +0.000 C 
BRANCH   8   9
ATOM      9  C   UNL     1       7.219   6.436  17.555  0.00  0.00    +0.000 C 
BRANCH   9  10
ATOM     10  C   UNL     1       8.063   6.677  18.811  0.00  0.00    +0.000 C 
BRANCH  10  11
ATOM     11  N   UNL     1       8.058   5.503  19.686  0.00  0.00    +0.000 NA
ATOM     12  H   UNL     1       7.104   5.273  19.960  0.00  0.00    +0.000 HD
ATOM     13  H   UNL     1       8.414   4.683  19.195  0.00  0.00    +0.000 HD
ENDBRANCH  10  11
ENDBRANCH   9  10
ENDBRANCH   8   9
ENDBRANCH   1   8
BRANCH   1  14
ATOM     14  C   UNL     1       4.894   5.195  16.357  0.00  0.00    +0.000 C 
BRANCH  14  15
ATOM     15  C   UNL     1       4.005   4.481  17.373  0.00  0.00    +0.000 A 
ATOM     16  C   UNL     1       3.874   3.086  17.440  0.00  0.00    +0.000 A 
ATOM     17  C   UNL     1       3.099   2.480  18.435  0.00  0.00    +0.000 A 
ATOM     18  C   UNL     1       2.470   3.257  19.406  0.00  0.00    +0.000 A 
ATOM     19 CL   UNL     1       1.641   2.437  20.681  0.00  0.00    +0.000 Cl
ATOM     20  C   UNL     1       2.555   4.650  19.336  0.00  0.00    +0.000 A 
ATOM     21 CL   UNL     1       1.796   5.682  20.497  0.00  0.00    +0.000 Cl
ATOM     22  C   UNL     1       3.298   5.255  18.313  0.00  0.00    +0.000 A 
ENDBRANCH  14  15
ENDBRANCH   1  14
TORSDOF 6
ENDMDL
MODEL 3
REMARK VINA RESULT:      -7.3      0.948      1.774
REMARK  Name = 
REMARK  6 active torsions:
REMARK  status: ('A' for Active; 'I' for Inactive)
REMARK    1  A    between atoms: N_1  and  C_2
REMARK    2  A    between atoms: C_2  and  C_3
REMARK    3  A    between atoms: C_3  and  C_4
REMARK    4  A    between atoms: C_4  and  N_5
REMARK    5  A    between atoms: N_5  and  C_6
REMARK    6  A    between atoms: C_6  and  C_7
REMARK                            x       y       z     vdW  Elec       q    Type
REMARK                         _______ _______ _______ _____ _____    ______ ____
ROOT
ATOM      1  N   UNL     1       6.255   5.483  16.142  0.00  0.00    +0.000 N 
ATOM      2  C   UNL     1       6.520   5.008  14.829  0.00  0.00    +0.000 A 
ATOM      3  C   UNL     1       5.651   4.086  14.234  0.00  0.00    +0.000 A 
ATOM      4  C   UNL     1       5.890   3.614  12.946  0.00  0.00    +0.000 A 
ATOM      5  C   UNL     1       6.996   4.088  12.253  0.00  0.00    +0.000 A 
ATOM      6  C   UNL     1       7.805   5.005  12.891  0.00  0.00    +0.000 A 
ATOM      7  N   UNL     1       7.602   5.459  14.150  0.00  0.00    +0.000 NA
ENDROOT
BRANCH   1   8
ATOM      8  C   UNL     1       7.472   6.051  16.774  0.00  0.00    +0.000 C 
BRANCH   8   9
ATOM      9  C   UNL     1       7.348   6.283  18.288  0.00  0.00    +0.000 C 
BRANCH   9  10
ATOM     10  C   UNL     1       7.926   5.128  19.113  0.00  0.00    +0.000 C 
BRANCH  10  11
ATOM     11  N   UNL     1       8.013   5.480  20.531  0.00  0.00    +0.000 NA
ATOM     12  H   UNL     1       7.121   5.307  20.992  0.00  0.00    +0.000 HD
ATOM     13  H   UNL     1       8.695   4.891  21.010  0.00  0.00    +0.000 HD
ENDBRANCH  10  11
ENDBRANCH   9  10
ENDBRANCH   8   9
ENDBRANCH   1   8
BRANCH   1  14
ATOM     14  C   UNL     1       4.998   6.257  16.170  0.00  0.00    +0.000 C 
BRANCH  14  15
ATOM     15  C   UNL     1       4.019   5.780  17.240  0.00  0.00    +0.000 A 
ATOM     16  C   UNL     1       3.689   4.431  17.439  0.00  0.00    +0.000 A 
ATOM     17  C   UNL     1       2.839   4.041  18.479  0.00  0.00    +0.000 A 
ATOM     18  C   UNL     1       2.331   4.990  19.365  0.00  0.00    +0.000 A 
ATOM     19 CL   UNL     1       1.397   4.425  20.704  0.00  0.00    +0.000 Cl
ATOM     20  C   UNL     1       2.615   6.344  19.162  0.00  0.00    +0.000 A 
ATOM     21 CL   UNL     1       2.017   7.581  20.210  0.00  0.00    +0.000 Cl
ATOM     22  C   UNL     1       3.435   6.734  18.093  0.00  0.00    +0.000 A 
ENDBRANCH  14  15
ENDBRANCH   1  14
TORSDOF 6
ENDMDL
MODEL 4
REMARK VINA RESULT:      -7.2      1.068      1.150
REMARK  Name = 
REMARK  6 active torsions:
REMARK  status: ('A' for Active; 'I' for Inactive)
REMARK    1  A    between atoms: N_1  and  C_2
REMARK    2  A    between atoms: C_2  and  C_3
REMARK    3  A    between atoms: C_3  and  C_4
REMARK    4  A    between atoms: C_4  and  N_5
REMARK    5  A    between atoms: N_5  and  C_6
REMARK    6  A    between atoms: C_6  and  C_7
REMARK                            x       y       z     vdW  Elec       q    Type
REMARK                         _______ _______ _______ _____ _____    ______ ____
ROOT
ATOM      1  N   UNL     1       6.192   4.946  16.212  0.00  0.00    +0.000 N 
ATOM      2  C   UNL     1       6.485   4.708  14.841  0.00  0.00    +0.000 A 
ATOM      3  C   UNL     1       5.563   4.023  14.042  0.00  0.00    +0.000 A 
ATOM      4  C   UNL     1       5.829   3.786  12.696  0.00  0.00    +0.000 A 
ATOM      5  C   UNL     1       7.016   4.260  12.154  0.00  0.00    +0.000 A 
ATOM      6  C   UNL     1       7.876   4.939  12.993  0.00  0.00    +0.000 A 
ATOM      7  N   UNL     1       7.645   5.159  14.308  0.00  0.00    +0.000 NA
ENDROOT
BRANCH   1   8
ATOM      8  C   UNL     1       7.421   5.240  16.991  0.00  0.00    +0.000 C 
BRANCH   8   9
ATOM      9  C   UNL     1       7.182   6.078  18.257  0.00  0.00    +0.000 C 
BRANCH   9  10
ATOM     10  C   UNL     1       8.049   7.341  18.301  0.00  0.00    +0.000 C 
BRANCH  10  11
ATOM     11  N   UNL     1       7.550   8.359  17.375  0.00  0.00    +0.000 NA
ATOM     12  H   UNL     1       6.687   8.043  16.936  0.00  0.00    +0.000 HD
ATOM     13  H   UNL     1       7.314   9.218  17.873  0.00  0.00    +0.000 HD
ENDBRANCH  10  11
ENDBRANCH   9  10
ENDBRANCH   8   9
ENDBRANCH   1   8
BRANCH   1  14
ATOM     14  C   UNL     1       5.022   5.834  16.346  0.00  0.00    +0.000 C 
BRANCH  14  15
ATOM     15  C   UNL     1       4.026   5.366  17.406  0.00  0.00    +0.000 A 
ATOM     16  C   UNL     1       3.350   6.240  18.269  0.00  0.00    +0.000 A 
ATOM     17  C   UNL     1       2.396   5.766  19.176  0.00  0.00    +0.000 A 
ATOM     18  C   UNL     1       2.073   4.410  19.210  0.00  0.00    +0.000 A 
ATOM     19 CL   UNL     1       0.793   3.913  20.259  0.00  0.00    +0.000 Cl
ATOM     20  C   UNL     1       2.762   3.516  18.386  0.00  0.00    +0.000 A 
ATOM     21 CL   UNL     1       2.425   1.820  18.376  0.00  0.00    +0.000 Cl
ATOM     22  C   UNL     1       3.746   3.991  17.508  0.00  0.00    +0.000 A 
ENDBRANCH  14  15
ENDBRANCH   1  14
TORSDOF 6
ENDMDL
MODEL 5
REMARK VINA RESULT:      -7.1      1.565      1.653
REMARK  Name = 
REMARK  6 active torsions:
REMARK  status: ('A' for Active; 'I' for Inactive)
REMARK    1  A    between atoms: N_1  and  C_2
REMARK    2  A    between atoms: C_2  and  C_3
REMARK    3  A    between atoms: C_3  and  C_4
REMARK    4  A    between atoms: C_4  and  N_5
REMARK    5  A    between atoms: N_5  and  C_6
REMARK    6  A    between atoms: C_6  and  C_7
REMARK                            x       y       z     vdW  Elec       q    Type
REMARK                         _______ _______ _______ _____ _____    ______ ____
ROOT
ATOM      1  N   UNL     1       6.205   5.078  16.351  0.00  0.00    +0.000 N 
ATOM      2  C   UNL     1       6.521   4.799  14.994  0.00  0.00    +0.000 A 
ATOM      3  C   UNL     1       5.780   3.843  14.290  0.00  0.00    +0.000 A 
ATOM      4  C   UNL     1       6.070   3.559  12.958  0.00  0.00    +0.000 A 
ATOM      5  C   UNL     1       7.095   4.256  12.332  0.00  0.00    +0.000 A 
ATOM      6  C   UNL     1       7.778   5.194  13.078  0.00  0.00    +0.000 A 
ATOM      7  N   UNL     1       7.526   5.468  14.379  0.00  0.00    +0.000 NA
ENDROOT
BRANCH   1   8
ATOM      8  C   UNL     1       7.339   5.728  17.054  0.00  0.00    +0.000 C 
BRANCH   8   9
ATOM      9  C   UNL     1       7.109   7.210  17.389  0.00  0.00    +0.000 C 
BRANCH   9  10
ATOM     10  C   UNL     1       8.208   7.789  18.288  0.00  0.00    +0.000 C 
BRANCH  10  11
ATOM     11  N   UNL     1       8.307   9.242  18.135  0.00  0.00    +0.000 NA
ATOM     12  H   UNL     1       8.989   9.619  18.792  0.00  0.00    +0.000 HD
ATOM     13  H   UNL     1       8.649   9.486  17.206  0.00  0.00    +0.000 HD
ENDBRANCH  10  11
ENDBRANCH   9  10
ENDBRANCH   8   9
ENDBRANCH   1   8
BRANCH   1  14
ATOM     14  C   UNL     1       4.855   5.666  16.459  0.00  0.00    +0.000 C 
BRANCH  14  15
ATOM     15  C   UNL     1       4.001   5.022  17.548  0.00  0.00    +0.000 A 
ATOM     16  C   UNL     1       2.660   5.361  17.780  0.00  0.00    +0.000 A 
ATOM     17  C   UNL     1       1.901   4.690  18.745  0.00  0.00    +0.000 A 
ATOM     18  C   UNL     1       2.460   3.641  19.474  0.00  0.00    +0.000 A 
ATOM     19 CL   UNL     1       1.430   2.771  20.554  0.00  0.00    +0.000 Cl
ATOM     20  C   UNL     1       3.806   3.312  19.287  0.00  0.00    +0.000 A 
ATOM     21 CL   UNL     1       4.574   2.031  20.157  0.00  0.00    +0.000 Cl
ATOM     22  C   UNL     1       4.573   4.014  18.347  0.00  0.00    +0.000 A 
ENDBRANCH  14  15
ENDBRANCH   1  14
TORSDOF 6
ENDMDL
MODEL 6
REMARK VINA RESULT:      -7.0      3.598      5.432
REMARK  Name = 
REMARK  6 active torsions:
REMARK  status: ('A' for Active; 'I' for Inactive)
REMARK    1  A    between atoms: N_1  and  C_2
REMARK    2  A    between atoms: C_2  and  C_3
REMARK    3  A    between atoms: C_3  and  C_4
REMARK    4  A    between atoms: C_4  and  N_5
REMARK    5  A    between atoms: N_5  and  C_6
REMARK    6  A    between atoms: C_6  and  C_7
REMARK                            x       y       z     vdW  Elec       q    Type
REMARK                         _______ _______ _______ _____ _____    ______ ____
ROOT
ATOM      1  N   UNL     1       3.769   5.439  19.061  0.00  0.00    +0.000 N 
ATOM      2  C   UNL     1       3.105   4.184  19.001  0.00  0.00    +0.000 A 
ATOM      3  C   UNL     1       1.720   4.120  19.195  0.00  0.00    +0.000 A 
ATOM      4  C   UNL     1       1.051   2.901  19.134  0.00  0.00    +0.000 A 
ATOM      5  C   UNL     1       1.776   1.750  18.857  0.00  0.00    +0.000 A 
ATOM      6  C   UNL     1       3.136   1.884  18.663  0.00  0.00    +0.000 A 
ATOM      7  N   UNL     1       3.808   3.056  18.741  0.00  0.00    +0.000 NA
ENDROOT
BRANCH   1   8
ATOM      8  C   UNL     1       5.224   5.277  19.305  0.00  0.00    +0.000 C 
BRANCH   8   9
ATOM      9  C   UNL     1       6.114   5.695  18.124  0.00  0.00    +0.000 C 
BRANCH   9  10
ATOM     10  C   UNL     1       7.556   5.197  18.266  0.00  0.00    +0.000 C 
BRANCH  10  11
ATOM     11  N   UNL     1       7.892   4.238  17.212  0.00  0.00    +0.000 NA
ATOM     12  H   UNL     1       7.379   4.458  16.359  0.00  0.00    +0.000 HD
ATOM     13  H   UNL     1       8.881   4.299  16.968  0.00  0.00    +0.000 HD
ENDBRANCH  10  11
ENDBRANCH   9  10
ENDBRANCH   8   9
ENDBRANCH   1   8
BRANCH   1  14
ATOM     14  C   UNL     1       3.314   6.320  17.968  0.00  0.00    +0.000 C 
BRANCH  14  15
ATOM     15  C   UNL     1       2.546   7.545  18.460  0.00  0.00    +0.000 A 
ATOM     16  C   UNL     1       2.183   8.615  17.628  0.00  0.00    +0.000 A 
ATOM     17  C   UNL     1       1.420   9.681  18.113  0.00  0.00    +0.000 A 
ATOM     18  C   UNL     1       0.972   9.681  19.433  0.00  0.00    +0.000 A 
ATOM     19 CL   UNL     1      -0.077  10.961  19.929  0.00  0.00    +0.000 Cl
ATOM     20  C   UNL     1       1.354   8.645  20.291  0.00  0.00    +0.000 A 
ATOM     21 CL   UNL     1       0.846   8.576  21.942  0.00  0.00    +0.000 Cl
ATOM     22  C   UNL     1       2.153   7.598  19.810  0.00  0.00    +0.000 A 
ENDBRANCH  14  15
ENDBRANCH   1  14
TORSDOF 6
ENDMDL
MODEL 7
REMARK VINA RESULT:      -7.0      3.417      5.296
REMARK  Name = 
REMARK  6 active torsions:
REMARK  status: ('A' for Active; 'I' for Inactive)
REMARK    1  A    between atoms: N_1  and  C_2
REMARK    2  A    between atoms: C_2  and  C_3
REMARK    3  A    between atoms: C_3  and  C_4
REMARK    4  A    between atoms: C_4  and  N_5
REMARK    5  A    between atoms: N_5  and  C_6
REMARK    6  A    between atoms: C_6  and  C_7
REMARK                            x       y       z     vdW  Elec       q    Type
REMARK                         _______ _______ _______ _____ _____    ______ ____
ROOT
ATOM      1  N   UNL     1       2.664   5.535  17.882  0.00  0.00    +0.000 N 
ATOM      2  C   UNL     1       3.898   5.272  17.228  0.00  0.00    +0.000 A 
ATOM      3  C   UNL     1       4.736   6.334  16.870  0.00  0.00    +0.000 A 
ATOM      4  C   UNL     1       5.952   6.095  16.234  0.00  0.00    +0.000 A 
ATOM      5  C   UNL     1       6.329   4.784  15.979  0.00  0.00    +0.000 A 
ATOM      6  C   UNL     1       5.464   3.783  16.369  0.00  0.00    +0.000 A 
ATOM      7  N   UNL     1       4.269   3.995  16.967  0.00  0.00    +0.000 NA
ENDROOT
BRANCH   1   8
ATOM      8  C   UNL     1       1.725   4.393  17.760  0.00  0.00    +0.000 C 
BRANCH   8   9
ATOM      9  C   UNL     1       1.356   3.731  19.097  0.00  0.00    +0.000 C 
BRANCH   9  10
ATOM     10  C   UNL     1       1.448   2.202  19.044  0.00  0.00    +0.000 C 
BRANCH  10  11
ATOM     11  N   UNL     1       2.369   1.762  17.994  0.00  0.00    +0.000 NA
ATOM     12  H   UNL     1       1.967   0.980  17.479  0.00  0.00    +0.000 HD
ATOM     13  H   UNL     1       2.516   2.503  17.308  0.00  0.00    +0.000 HD
ENDBRANCH  10  11
ENDBRANCH   9  10
ENDBRANCH   8   9
ENDBRANCH   1   8
BRANCH   1  14
ATOM     14  C   UNL     1       2.898   6.139  19.208  0.00  0.00    +0.000 C 
BRANCH  14  15
ATOM     15  C   UNL     1       2.190   7.478  19.396  0.00  0.00    +0.000 A 
ATOM     16  C   UNL     1       2.045   8.426  18.372  0.00  0.00    +0.000 A 
ATOM     17  C   UNL     1       1.326   9.608  18.577  0.00  0.00    +0.000 A 
ATOM     18  C   UNL     1       0.706   9.849  19.802  0.00  0.00    +0.000 A 
ATOM     19 CL   UNL     1      -0.276  11.264  19.944  0.00  0.00    +0.000 Cl
ATOM     20  C   UNL     1       0.869   8.937  20.849  0.00  0.00    +0.000 A 
ATOM     21 CL   UNL     1       0.139   9.168  22.399  0.00  0.00    +0.000 Cl
ATOM     22  C   UNL     1       1.625   7.773  20.650  0.00  0.00    +0.000 A 
ENDBRANCH  14  15
ENDBRANCH   1  14
TORSDOF 6
ENDMDL
MODEL 8
REMARK VINA RESULT:      -6.9      1.550      1.846
REMARK  Name = 
REMARK  6 active torsions:
REMARK  status: ('A' for Active; 'I' for Inactive)
REMARK    1  A    between atoms: N_1  and  C_2
REMARK    2  A    between atoms: C_2  and  C_3
REMARK    3  A    between atoms: C_3  and  C_4
REMARK    4  A    between atoms: C_4  and  N_5
REMARK    5  A    between atoms: N_5  and  C_6
REMARK    6  A    between atoms: C_6  and  C_7
REMARK                            x       y       z     vdW  Elec       q    Type
REMARK                         _______ _______ _______ _____ _____    ______ ____
ROOT
ATOM      1  N   UNL     1       6.258   4.773  17.250  0.00  0.00    +0.000 N 
ATOM      2  C   UNL     1       6.394   4.645  15.841  0.00  0.00    +0.000 A 
ATOM      3  C   UNL     1       5.372   4.049  15.095  0.00  0.00    +0.000 A 
ATOM      4  C   UNL     1       5.483   3.920  13.713  0.00  0.00    +0.000 A 
ATOM      5  C   UNL     1       6.618   4.413  13.084  0.00  0.00    +0.000 A 
ATOM      6  C   UNL     1       7.583   5.001  13.875  0.00  0.00    +0.000 A 
ATOM      7  N   UNL     1       7.503   5.115  15.221  0.00  0.00    +0.000 NA
ENDROOT
BRANCH   1   8
ATOM      8  C   UNL     1       7.572   4.975  17.910  0.00  0.00    +0.000 C 
BRANCH   8   9
ATOM      9  C   UNL     1       7.583   6.088  18.970  0.00  0.00    +0.000 C 
BRANCH   9  10
ATOM     10  C   UNL     1       8.239   7.378  18.465  0.00  0.00    +0.000 C 
BRANCH  10  11
ATOM     11  N   UNL     1       7.725   7.753  17.146  0.00  0.00    +0.000 NA
ATOM     12  H   UNL     1       6.737   7.991  17.208  0.00  0.00    +0.000 HD
ATOM     13  H   UNL     1       8.194   8.590  16.800  0.00  0.00    +0.000 HD
ENDBRANCH  10  11
ENDBRANCH   9  10
ENDBRANCH   8   9
ENDBRANCH   1   8
BRANCH   1  14
ATOM     14  C   UNL     1       5.136   5.672  17.584  0.00  0.00    +0.000 C 
BRANCH  14  15
ATOM     15  C   UNL     1       3.909   4.934  18.114  0.00  0.00    +0.000 A 
ATOM     16  C   UNL     1       2.674   4.912  17.449  0.00  0.00    +0.000 A 
ATOM     17  C   UNL     1       1.600   4.163  17.943  0.00  0.00    +0.000 A 
ATOM     18  C   UNL     1       1.753   3.391  19.093  0.00  0.00    +0.000 A 
ATOM     19 CL   UNL     1       0.431   2.388  19.572  0.00  0.00    +0.000 Cl
ATOM     20  C   UNL     1       2.963   3.428  19.793  0.00  0.00    +0.000 A 
ATOM     21 CL   UNL     1       3.228   2.505  21.231  0.00  0.00    +0.000 Cl
ATOM     22  C   UNL     1       4.022   4.212  19.316  0.00  0.00    +0.000 A 
ENDBRANCH  14  15
ENDBRANCH   1  14
TORSDOF 6
ENDMDL
MODEL 9
REMARK VINA RESULT:      -6.9      3.518      5.408
REMARK  Name = 
REMARK  6 active torsions:
REMARK  status: ('A' for Active; 'I' for Inactive)
REMARK    1  A    between atoms: N_1  and  C_2
REMARK    2  A    between atoms: C_2  and  C_3
REMARK    3  A    between atoms: C_3  and  C_4
REMARK    4  A    between atoms: C_4  and  N_5
REMARK    5  A    between atoms: N_5  and  C_6
REMARK    6  A    between atoms: C_6  and  C_7
REMARK                            x       y       z     vdW  Elec       q    Type
REMARK                         _______ _______ _______ _____ _____    ______ ____
ROOT
ATOM      1  N   UNL     1       2.495   5.429  18.376  0.00  0.00    +0.000 N 
ATOM      2  C   UNL     1       3.624   5.218  17.538  0.00  0.00    +0.000 A 
ATOM      3  C   UNL     1       4.244   6.308  16.917  0.00  0.00    +0.000 A 
ATOM      4  C   UNL     1       5.354   6.122  16.099  0.00  0.00    +0.000 A 
ATOM      5  C   UNL     1       5.850   4.837  15.924  0.00  0.00    +0.000 A 
ATOM      6  C   UNL     1       5.201   3.808  16.574  0.00  0.00    +0.000 A 
ATOM      7  N   UNL     1       4.108   3.965  17.355  0.00  0.00    +0.000 NA
ENDROOT
BRANCH   1   8
ATOM      8  C   UNL     1       1.706   4.185  18.554  0.00  0.00    +0.000 C 
BRANCH   8   9
ATOM      9  C   UNL     1       1.106   4.012  19.958  0.00  0.00    +0.000 C 
BRANCH   9  10
ATOM     10  C   UNL     1       1.566   2.720  20.642  0.00  0.00    +0.000 C 
BRANCH  10  11
ATOM     11  N   UNL     1       2.012   2.974  22.013  0.00  0.00    +0.000 NA
ATOM     12  H   UNL     1       1.284   3.461  22.535  0.00  0.00    +0.000 HD
ATOM     13  H   UNL     1       2.175   2.098  22.510  0.00  0.00    +0.000 HD
ENDBRANCH  10  11
ENDBRANCH   9  10
ENDBRANCH   8   9
ENDBRANCH   1   8
BRANCH   1  14
ATOM     14  C   UNL     1       2.870   6.223  19.561  0.00  0.00    +0.000 C 
BRANCH  14  15
ATOM     15  C   UNL     1       2.081   7.524  19.692  0.00  0.00    +0.000 A 
ATOM     16  C   UNL     1       1.943   8.452  18.648  0.00  0.00    +0.000 A 
ATOM     17  C   UNL     1       1.151   9.595  18.798  0.00  0.00    +0.000 A 
ATOM     18  C   UNL     1       0.450   9.814  19.983  0.00  0.00    +0.000 A 
ATOM     19 CL   UNL     1      -0.612  11.175  20.051  0.00  0.00    +0.000 Cl
ATOM     20  C   UNL     1       0.603   8.923  21.049  0.00  0.00    +0.000 A 
ATOM     21 CL   UNL     1      -0.225   9.129  22.553  0.00  0.00    +0.000 Cl
ATOM     22  C   UNL     1       1.430   7.800  20.908  0.00  0.00    +0.000 A 
ENDBRANCH  14  15
ENDBRANCH   1  14
TORSDOF 6
ENDMDL
