MODEL 1
REMARK VINA RESULT:      -4.7      0.000      0.000
REMARK  Name = 
REMARK  1 active torsions:
REMARK  status: ('A' for Active; 'I' for Inactive)
REMARK    1  A    between atoms: C_7  and  C_8
REMARK                            x       y       z     vdW  Elec       q    Type
REMARK                         _______ _______ _______ _____ _____    ______ ____
ROOT
ATOM      1  C   UNL     1       2.253   4.404  18.207  0.00  0.00    +0.000 C 
ATOM      2  C   UNL     1       1.339   3.177  18.269  0.00  0.00    +0.000 C 
ATOM      3  C   UNL     1       0.754   2.940  19.628  0.00  0.00    +0.000 C 
ATOM      4  O   UNL     1       1.667   2.303  20.544  0.00  0.00    +0.000 OA
ATOM      5  C   UNL     1       1.289   3.648  20.840  0.00  0.00    +0.000 C 
ATOM      6  C   UNL     1       2.371   4.670  20.693  0.00  0.00    +0.000 C 
ATOM      7  C   UNL     1       3.208   4.472  19.414  0.00  0.00    +0.000 C 
ENDROOT
BRANCH   7   8
ATOM      8  C   UNL     1       4.268   5.542  19.321  0.00  0.00    +0.000 C 
ATOM      9  C   UNL     1       5.727   5.179  19.195  0.00  0.00    +0.000 C 
ATOM     10  O   UNL     1       4.963   5.663  18.078  0.00  0.00    +0.000 OA
ENDBRANCH   7   8
TORSDOF 1
ENDMDL
MODEL 2
REMARK VINA RESULT:      -4.7      2.633      5.498
REMARK  Name = 
REMARK  1 active torsions:
REMARK  status: ('A' for Active; 'I' for Inactive)
REMARK    1  A    between atoms: C_7  and  C_8
REMARK                            x       y       z     vdW  Elec       q    Type
REMARK                         _______ _______ _______ _____ _____    ______ ____
ROOT
ATOM      1  C   UNL     1       6.313   5.296  19.288  0.00  0.00    +0.000 C 
ATOM      2  C   UNL     1       7.696   5.842  18.924  0.00  0.00    +0.000 C 
ATOM      3  C   UNL     1       7.653   6.937  17.902  0.00  0.00    +0.000 C 
ATOM      4  O   UNL     1       7.487   6.458  16.552  0.00  0.00    +0.000 OA
ATOM      5  C   UNL     1       6.408   7.210  17.107  0.00  0.00    +0.000 C 
ATOM      6  C   UNL     1       5.158   6.437  17.383  0.00  0.00    +0.000 C 
ATOM      7  C   UNL     1       5.435   5.072  18.042  0.00  0.00    +0.000 C 
ENDROOT
BRANCH   7   8
ATOM      8  C   UNL     1       4.135   4.353  18.307  0.00  0.00    +0.000 C 
ATOM      9  C   UNL     1       3.912   2.945  17.812  0.00  0.00    +0.000 C 
ATOM     10  O   UNL     1       4.179   3.234  19.194  0.00  0.00    +0.000 OA
ENDBRANCH   7   8
TORSDOF 1
ENDMDL
MODEL 3
REMARK VINA RESULT:      -4.6      2.630      5.276
REMARK  Name = 
REMARK  1 active torsions:
REMARK  status: ('A' for Active; 'I' for Inactive)
REMARK    1  A    between atoms: C_7  and  C_8
REMARK                            x       y       z     vdW  Elec       q    Type
REMARK                         _______ _______ _______ _____ _____    ______ ____
ROOT
ATOM      1  C   UNL     1       5.287   5.079  18.904  0.00  0.00    +0.000 C 
ATOM      2  C   UNL     1       6.754   5.471  19.097  0.00  0.00    +0.000 C 
ATOM      3  C   UNL     1       7.499   5.636  17.808  0.00  0.00    +0.000 C 
ATOM      4  O   UNL     1       7.912   4.387  17.217  0.00  0.00    +0.000 OA
ATOM      5  C   UNL     1       6.927   5.141  16.510  0.00  0.00    +0.000 C 
ATOM      6  C   UNL     1       5.557   4.543  16.475  0.00  0.00    +0.000 C 
ATOM      7  C   UNL     1       5.119   3.978  17.840  0.00  0.00    +0.000 C 
ENDROOT
BRANCH   7   8
ATOM      8  C   UNL     1       3.727   3.406  17.738  0.00  0.00    +0.000 C 
ATOM      9  C   UNL     1       3.456   1.961  18.077  0.00  0.00    +0.000 C 
ATOM     10  O   UNL     1       3.085   3.033  18.959  0.00  0.00    +0.000 OA
ENDBRANCH   7   8
TORSDOF 1
ENDMDL
MODEL 4
REMARK VINA RESULT:      -4.6      2.469      3.285
REMARK  Name = 
REMARK  1 active torsions:
REMARK  status: ('A' for Active; 'I' for Inactive)
REMARK    1  A    between atoms: C_7  and  C_8
REMARK                            x       y       z     vdW  Elec       q    Type
REMARK                         _______ _______ _______ _____ _____    ______ ____
ROOT
ATOM      1  C   UNL     1       4.942   4.809  16.438  0.00  0.00    +0.000 C 
ATOM      2  C   UNL     1       4.009   3.734  17.002  0.00  0.00    +0.000 C 
ATOM      3  C   UNL     1       2.817   4.296  17.714  0.00  0.00    +0.000 C 
ATOM      4  O   UNL     1       3.105   4.746  19.053  0.00  0.00    +0.000 OA
ATOM      5  C   UNL     1       2.752   5.747  18.097  0.00  0.00    +0.000 C 
ATOM      6  C   UNL     1       3.853   6.677  17.699  0.00  0.00    +0.000 C 
ATOM      7  C   UNL     1       5.187   5.947  17.447  0.00  0.00    +0.000 C 
ENDROOT
BRANCH   7   8
ATOM      8  C   UNL     1       6.247   6.938  17.037  0.00  0.00    +0.000 C 
ATOM      9  C   UNL     1       7.554   7.032  17.786  0.00  0.00    +0.000 C 
ATOM     10  O   UNL     1       7.459   6.408  16.495  0.00  0.00    +0.000 OA
ENDBRANCH   7   8
TORSDOF 1
ENDMDL
MODEL 5
REMARK VINA RESULT:      -4.6      1.418      1.948
REMARK  Name = 
REMARK  1 active torsions:
REMARK  status: ('A' for Active; 'I' for Inactive)
REMARK    1  A    between atoms: C_7  and  C_8
REMARK                            x       y       z     vdW  Elec       q    Type
REMARK                         _______ _______ _______ _____ _____    ______ ____
ROOT
ATOM      1  C   UNL     1       2.765   4.389  20.365  0.00  0.00    +0.000 C 
ATOM      2  C   UNL     1       1.244   4.300  20.216  0.00  0.00    +0.000 C 
ATOM      3  C   UNL     1       0.776   2.981  19.680  0.00  0.00    +0.000 C 
ATOM      4  O   UNL     1       0.922   2.855  18.252  0.00  0.00    +0.000 OA
ATOM      5  C   UNL     1       1.737   2.007  19.061  0.00  0.00    +0.000 C 
ATOM      6  C   UNL     1       3.202   2.310  19.042  0.00  0.00    +0.000 C 
ATOM      7  C   UNL     1       3.500   3.819  19.137  0.00  0.00    +0.000 C 
ENDROOT
BRANCH   7   8
ATOM      8  C   UNL     1       4.990   4.052  19.128  0.00  0.00    +0.000 C 
ATOM      9  C   UNL     1       5.634   4.911  18.069  0.00  0.00    +0.000 C 
ATOM     10  O   UNL     1       5.444   5.376  19.415  0.00  0.00    +0.000 OA
ENDBRANCH   7   8
TORSDOF 1
ENDMDL
MODEL 6
REMARK VINA RESULT:      -4.6      2.816      5.041
REMARK  Name = 
REMARK  1 active torsions:
REMARK  status: ('A' for Active; 'I' for Inactive)
REMARK    1  A    between atoms: C_7  and  C_8
REMARK                            x       y       z     vdW  Elec       q    Type
REMARK                         _______ _______ _______ _____ _____    ______ ____
ROOT
ATOM      1  C   UNL     1       4.564   4.250  16.437  0.00  0.00    +0.000 C 
ATOM      2  C   UNL     1       5.580   4.315  15.293  0.00  0.00    +0.000 C 
ATOM      3  C   UNL     1       6.993   4.485  15.763  0.00  0.00    +0.000 C 
ATOM      4  O   UNL     1       7.320   5.840  16.128  0.00  0.00    +0.000 OA
ATOM      5  C   UNL     1       7.300   4.875  17.180  0.00  0.00    +0.000 C 
ATOM      6  C   UNL     1       6.192   5.024  18.173  0.00  0.00    +0.000 C 
ATOM      7  C   UNL     1       4.834   5.322  17.510  0.00  0.00    +0.000 C 
ENDROOT
BRANCH   7   8
ATOM      8  C   UNL     1       3.761   5.445  18.563  0.00  0.00    +0.000 C 
ATOM      9  C   UNL     1       2.865   6.658  18.620  0.00  0.00    +0.000 C 
ATOM     10  O   UNL     1       2.404   5.393  18.119  0.00  0.00    +0.000 OA
ENDBRANCH   7   8
TORSDOF 1
ENDMDL
MODEL 7
REMARK VINA RESULT:      -4.6      1.980      2.613
REMARK  Name = 
REMARK  1 active torsions:
REMARK  status: ('A' for Active; 'I' for Inactive)
REMARK    1  A    between atoms: C_7  and  C_8
REMARK                            x       y       z     vdW  Elec       q    Type
REMARK                         _______ _______ _______ _____ _____    ______ ____
ROOT
ATOM      1  C   UNL     1       1.690   4.709  20.330  0.00  0.00    +0.000 C 
ATOM      2  C   UNL     1       0.836   3.445  20.200  0.00  0.00    +0.000 C 
ATOM      3  C   UNL     1       1.442   2.408  19.305  0.00  0.00    +0.000 C 
ATOM      4  O   UNL     1       1.255   2.677  17.901  0.00  0.00    +0.000 OA
ATOM      5  C   UNL     1       2.593   2.739  18.398  0.00  0.00    +0.000 C 
ATOM      6  C   UNL     1       3.207   4.102  18.434  0.00  0.00    +0.000 C 
ATOM      7  C   UNL     1       2.241   5.176  18.969  0.00  0.00    +0.000 C 
ENDROOT
BRANCH   7   8
ATOM      8  C   UNL     1       2.926   6.520  18.993  0.00  0.00    +0.000 C 
ATOM      9  C   UNL     1       2.377   7.684  18.205  0.00  0.00    +0.000 C 
ATOM     10  O   UNL     1       2.232   7.594  19.632  0.00  0.00    +0.000 OA
ENDBRANCH   7   8
TORSDOF 1
ENDMDL
MODEL 8
REMARK VINA RESULT:      -4.6      2.595      3.226
REMARK  Name = 
REMARK  1 active torsions:
REMARK  status: ('A' for Active; 'I' for Inactive)
REMARK    1  A    between atoms: C_7  and  C_8
REMARK                            x       y       z     vdW  Elec       q    Type
REMARK                         _______ _______ _______ _____ _____    ______ ____
ROOT
ATOM      1  C   UNL     1       3.920   5.786  17.775  0.00  0.00    +0.000 C 
ATOM      2  C   UNL     1       2.432   5.772  18.139  0.00  0.00    +0.000 C 
ATOM      3  C   UNL     1       1.901   4.397  18.410  0.00  0.00    +0.000 C 
ATOM      4  O   UNL     1       1.615   3.644  17.215  0.00  0.00    +0.000 OA
ATOM      5  C   UNL     1       2.685   3.172  18.034  0.00  0.00    +0.000 C 
ATOM      6  C   UNL     1       4.054   3.308  17.451  0.00  0.00    +0.000 C 
ATOM      7  C   UNL     1       4.279   4.674  16.772  0.00  0.00    +0.000 C 
ENDROOT
BRANCH   7   8
ATOM      8  C   UNL     1       5.681   4.750  16.219  0.00  0.00    +0.000 C 
ATOM      9  C   UNL     1       5.927   4.786  14.731  0.00  0.00    +0.000 C 
ATOM     10  O   UNL     1       6.052   5.959  15.553  0.00  0.00    +0.000 OA
ENDBRANCH   7   8
TORSDOF 1
ENDMDL
MODEL 9
REMARK VINA RESULT:      -4.5      2.946      4.201
REMARK  Name = 
REMARK  1 active torsions:
REMARK  status: ('A' for Active; 'I' for Inactive)
REMARK    1  A    between atoms: C_7  and  C_8
REMARK                            x       y       z     vdW  Elec       q    Type
REMARK                         _______ _______ _______ _____ _____    ______ ____
ROOT
ATOM      1  C   UNL     1       5.425   6.497  16.924  0.00  0.00    +0.000 C 
ATOM      2  C   UNL     1       4.069   7.004  17.421  0.00  0.00    +0.000 C 
ATOM      3  C   UNL     1       3.365   6.032  18.318  0.00  0.00    +0.000 C 
ATOM      4  O   UNL     1       2.704   4.966  17.608  0.00  0.00    +0.000 OA
ATOM      5  C   UNL     1       3.817   4.604  18.426  0.00  0.00    +0.000 C 
ATOM      6  C   UNL     1       5.037   4.147  17.692  0.00  0.00    +0.000 C 
ATOM      7  C   UNL     1       5.360   5.026  16.469  0.00  0.00    +0.000 C 
ENDROOT
BRANCH   7   8
ATOM      8  C   UNL     1       6.607   4.521  15.785  0.00  0.00    +0.000 C 
ATOM      9  C   UNL     1       6.709   4.492  14.280  0.00  0.00    +0.000 C 
ATOM     10  O   UNL     1       7.391   5.478  15.072  0.00  0.00    +0.000 OA
ENDBRANCH   7   8
TORSDOF 1
ENDMDL
