MODEL 1
REMARK VINA RESULT:      -7.8      0.000      0.000
REMARK  Name = 
REMARK  6 active torsions:
REMARK  status: ('A' for Active; 'I' for Inactive)
REMARK    1  A    between atoms: C_1  and  C_2
REMARK    2  A    between atoms: C_5  and  O_6
REMARK    3  A    between atoms: O_6  and  C_7
REMARK    4  A    between atoms: C_7  and  C_8
REMARK    5  A    between atoms: N_10  and  C_11
REMARK    6  A    between atoms: C_18  and  N_19
REMARK                            x       y       z     vdW  Elec       q    Type
REMARK                         _______ _______ _______ _____ _____    ______ ____
ROOT
ATOM      1  C   UNL     1       3.791   3.689  17.876  0.00  0.00    +0.000 C 
ENDROOT
BRANCH   1   2
ATOM      2  C   UNL     1       2.740   4.773  18.094  0.00  0.00    +0.000 C 
ATOM      3  O   UNL     1       1.571   4.555  17.778  0.00  0.00    +0.000 OA
ATOM      4  N   UNL     1       3.238   5.952  18.630  0.00  0.00    +0.000 N 
ATOM      5  H   UNL     1       4.246   6.058  18.661  0.00  0.00    +0.000 HD
BRANCH   4   6
ATOM      6  C   UNL     1       2.473   7.106  18.915  0.00  0.00    +0.000 A 
ATOM      7  C   UNL     1       2.215   8.099  17.963  0.00  0.00    +0.000 A 
ATOM      8  C   UNL     1       1.543   9.270  18.315  0.00  0.00    +0.000 A 
ATOM      9  C   UNL     1       1.107   9.438  19.620  0.00  0.00    +0.000 A 
ATOM     10  F   UNL     1       0.495  10.578  19.967  0.00  0.00    +0.000 F 
ATOM     11  C   UNL     1       1.303   8.445  20.570  0.00  0.00    +0.000 A 
ATOM     12  C   UNL     1       1.976   7.268  20.217  0.00  0.00    +0.000 A 
ENDBRANCH   4   6
ENDBRANCH   1   2
BRANCH   1  13
ATOM     13  O   UNL     1       5.107   4.218  17.791  0.00  0.00    +0.000 OA
BRANCH  13  18
ATOM     14  C   UNL     1       7.777   5.121  12.893  0.00  0.00    +0.000 C 
ATOM     15  C   UNL     1       7.015   4.878  14.162  0.00  0.00    +0.000 A 
ATOM     16  C   UNL     1       5.759   4.292  14.141  0.00  0.00    +0.000 A 
ATOM     17  C   UNL     1       5.082   4.079  15.345  0.00  0.00    +0.000 A 
ATOM     18  C   UNL     1       5.664   4.446  16.560  0.00  0.00    +0.000 A 
ATOM     19  C   UNL     1       6.929   5.052  16.486  0.00  0.00    +0.000 A 
ATOM     20  N   UNL     1       7.609   5.261  15.312  0.00  0.00    +0.000 NA
BRANCH  19  21
ATOM     21  N   UNL     1       7.547   5.456  17.762  0.00  0.00    +0.000 N 
ATOM     22  O   UNL     1       8.014   4.560  18.486  0.00  0.00    +0.000 OA
ATOM     23  O   UNL     1       7.537   6.663  18.035  0.00  0.00    +0.000 OA
ENDBRANCH  19  21
ENDBRANCH  13  18
ENDBRANCH   1  13
TORSDOF 5
ENDMDL
MODEL 2
REMARK VINA RESULT:      -7.6      5.452      6.700
REMARK  Name = 
REMARK  6 active torsions:
REMARK  status: ('A' for Active; 'I' for Inactive)
REMARK    1  A    between atoms: C_1  and  C_2
REMARK    2  A    between atoms: C_5  and  O_6
REMARK    3  A    between atoms: O_6  and  C_7
REMARK    4  A    between atoms: C_7  and  C_8
REMARK    5  A    between atoms: N_10  and  C_11
REMARK    6  A    between atoms: C_18  and  N_19
REMARK                            x       y       z     vdW  Elec       q    Type
REMARK                         _______ _______ _______ _____ _____    ______ ____
ROOT
ATOM      1  C   UNL     1       7.834   7.582  18.029  0.00  0.00    +0.000 C 
ENDROOT
BRANCH   1   2
ATOM      2  C   UNL     1       8.197   9.055  18.184  0.00  0.00    +0.000 C 
ATOM      3  O   UNL     1       7.669   9.889  17.449  0.00  0.00    +0.000 OA
ATOM      4  N   UNL     1       9.143   9.310  19.167  0.00  0.00    +0.000 N 
ATOM      5  H   UNL     1       9.629   8.513  19.560  0.00  0.00    +0.000 HD
BRANCH   4   6
ATOM      6  C   UNL     1       9.651  10.587  19.497  0.00  0.00    +0.000 A 
ATOM      7  C   UNL     1      10.485  11.316  18.640  0.00  0.00    +0.000 A 
ATOM      8  C   UNL     1      11.048  12.525  19.049  0.00  0.00    +0.000 A 
ATOM      9  C   UNL     1      10.758  13.020  20.311  0.00  0.00    +0.000 A 
ATOM     10  F   UNL     1      11.327  14.162  20.717  0.00  0.00    +0.000 F 
ATOM     11  C   UNL     1       9.891  12.342  21.159  0.00  0.00    +0.000 A 
ATOM     12  C   UNL     1       9.325  11.129  20.749  0.00  0.00    +0.000 A 
ENDBRANCH   4   6
ENDBRANCH   1   2
BRANCH   1  13
ATOM     13  O   UNL     1       7.007   7.342  16.900  0.00  0.00    +0.000 OA
BRANCH  13  18
ATOM     14  C   UNL     1       2.691   3.749  17.533  0.00  0.00    +0.000 C 
ATOM     15  C   UNL     1       3.796   4.748  17.361  0.00  0.00    +0.000 A 
ATOM     16  C   UNL     1       3.594   6.091  17.640  0.00  0.00    +0.000 A 
ATOM     17  C   UNL     1       4.650   6.992  17.471  0.00  0.00    +0.000 A 
ATOM     18  C   UNL     1       5.898   6.547  17.032  0.00  0.00    +0.000 A 
ATOM     19  C   UNL     1       6.006   5.175  16.753  0.00  0.00    +0.000 A 
ATOM     20  N   UNL     1       4.982   4.277  16.922  0.00  0.00    +0.000 NA
BRANCH  19  21
ATOM     21  N   UNL     1       7.316   4.696  16.276  0.00  0.00    +0.000 N 
ATOM     22  O   UNL     1       7.569   4.819  15.064  0.00  0.00    +0.000 OA
ATOM     23  O   UNL     1       8.067   4.182  17.114  0.00  0.00    +0.000 OA
ENDBRANCH  19  21
ENDBRANCH  13  18
ENDBRANCH   1  13
TORSDOF 5
ENDMDL
MODEL 3
REMARK VINA RESULT:      -7.5      5.444      6.757
REMARK  Name = 
REMARK  6 active torsions:
REMARK  status: ('A' for Active; 'I' for Inactive)
REMARK    1  A    between atoms: C_1  and  C_2
REMARK    2  A    between atoms: C_5  and  O_6
REMARK    3  A    between atoms: O_6  and  C_7
REMARK    4  A    between atoms: C_7  and  C_8
REMARK    5  A    between atoms: N_10  and  C_11
REMARK    6  A    between atoms: C_18  and  N_19
REMARK                            x       y       z     vdW  Elec       q    Type
REMARK                         _______ _______ _______ _____ _____    ______ ____
ROOT
ATOM      1  C   UNL     1       7.860   7.643  17.970  0.00  0.00    +0.000 C 
ENDROOT
BRANCH   1   2
ATOM      2  C   UNL     1       8.243   9.102  18.191  0.00  0.00    +0.000 C 
ATOM      3  O   UNL     1       7.761   9.970  17.464  0.00  0.00    +0.000 OA
ATOM      4  N   UNL     1       9.153   9.305  19.218  0.00  0.00    +0.000 N 
ATOM      5  H   UNL     1       9.609   8.486  19.602  0.00  0.00    +0.000 HD
BRANCH   4   6
ATOM      6  C   UNL     1       9.672  10.560  19.613  0.00  0.00    +0.000 A 
ATOM      7  C   UNL     1       9.368  11.152  20.845  0.00  0.00    +0.000 A 
ATOM      8  C   UNL     1       9.818  12.436  21.151  0.00  0.00    +0.000 A 
ATOM      9  C   UNL     1      10.594  13.123  20.230  0.00  0.00    +0.000 A 
ATOM     10  F   UNL     1      10.995  14.370  20.508  0.00  0.00    +0.000 F 
ATOM     11  C   UNL     1      10.953  12.537  19.024  0.00  0.00    +0.000 A 
ATOM     12  C   UNL     1      10.503  11.247  18.716  0.00  0.00    +0.000 A 
ENDBRANCH   4   6
ENDBRANCH   1   2
BRANCH   1  13
ATOM     13  O   UNL     1       6.974   7.474  16.873  0.00  0.00    +0.000 OA
BRANCH  13  18
ATOM     14  C   UNL     1       2.744   3.775  17.482  0.00  0.00    +0.000 C 
ATOM     15  C   UNL     1       3.826   4.802  17.321  0.00  0.00    +0.000 A 
ATOM     16  C   UNL     1       3.613   6.125  17.676  0.00  0.00    +0.000 A 
ATOM     17  C   UNL     1       4.647   7.052  17.514  0.00  0.00    +0.000 A 
ATOM     18  C   UNL     1       5.884   6.653  17.006  0.00  0.00    +0.000 A 
ATOM     19  C   UNL     1       6.003   5.299  16.652  0.00  0.00    +0.000 A 
ATOM     20  N   UNL     1       5.000   4.375  16.813  0.00  0.00    +0.000 NA
BRANCH  19  21
ATOM     21  N   UNL     1       7.301   4.868  16.101  0.00  0.00    +0.000 N 
ATOM     22  O   UNL     1       7.545   5.149  14.915  0.00  0.00    +0.000 OA
ATOM     23  O   UNL     1       8.050   4.235  16.854  0.00  0.00    +0.000 OA
ENDBRANCH  19  21
ENDBRANCH  13  18
ENDBRANCH   1  13
TORSDOF 5
ENDMDL
MODEL 4
REMARK VINA RESULT:      -7.5      0.573      1.170
REMARK  Name = 
REMARK  6 active torsions:
REMARK  status: ('A' for Active; 'I' for Inactive)
REMARK    1  A    between atoms: C_1  and  C_2
REMARK    2  A    between atoms: C_5  and  O_6
REMARK    3  A    between atoms: O_6  and  C_7
REMARK    4  A    between atoms: C_7  and  C_8
REMARK    5  A    between atoms: N_10  and  C_11
REMARK    6  A    between atoms: C_18  and  N_19
REMARK                            x       y       z     vdW  Elec       q    Type
REMARK                         _______ _______ _______ _____ _____    ______ ____
ROOT
ATOM      1  C   UNL     1       3.523   3.532  17.125  0.00  0.00    +0.000 C 
ENDROOT
BRANCH   1   2
ATOM      2  C   UNL     1       2.707   4.512  17.960  0.00  0.00    +0.000 C 
ATOM      3  O   UNL     1       1.720   4.109  18.574  0.00  0.00    +0.000 OA
ATOM      4  N   UNL     1       3.170   5.820  17.921  0.00  0.00    +0.000 N 
ATOM      5  H   UNL     1       3.874   6.041  17.226  0.00  0.00    +0.000 HD
BRANCH   4   6
ATOM      6  C   UNL     1       2.585   6.913  18.600  0.00  0.00    +0.000 A 
ATOM      7  C   UNL     1       2.260   6.874  19.961  0.00  0.00    +0.000 A 
ATOM      8  C   UNL     1       1.590   7.937  20.567  0.00  0.00    +0.000 A 
ATOM      9  C   UNL     1       1.264   9.055  19.813  0.00  0.00    +0.000 A 
ATOM     10  F   UNL     1       0.588  10.059  20.385  0.00  0.00    +0.000 F 
ATOM     11  C   UNL     1       1.623   9.140  18.475  0.00  0.00    +0.000 A 
ATOM     12  C   UNL     1       2.297   8.073  17.866  0.00  0.00    +0.000 A 
ENDBRANCH   4   6
ENDBRANCH   1   2
BRANCH   1  13
ATOM     13  O   UNL     1       4.921   3.756  17.235  0.00  0.00    +0.000 OA
BRANCH  13  18
ATOM     14  C   UNL     1       8.166   5.498  12.949  0.00  0.00    +0.000 C 
ATOM     15  C   UNL     1       7.259   5.027  14.047  0.00  0.00    +0.000 A 
ATOM     16  C   UNL     1       6.148   4.245  13.770  0.00  0.00    +0.000 A 
ATOM     17  C   UNL     1       5.329   3.822  14.820  0.00  0.00    +0.000 A 
ATOM     18  C   UNL     1       5.626   4.176  16.138  0.00  0.00    +0.000 A 
ATOM     19  C   UNL     1       6.758   4.987  16.323  0.00  0.00    +0.000 A 
ATOM     20  N   UNL     1       7.576   5.404  15.303  0.00  0.00    +0.000 NA
BRANCH  19  21
ATOM     21  N   UNL     1       7.074   5.378  17.709  0.00  0.00    +0.000 N 
ATOM     22  O   UNL     1       7.931   4.711  18.316  0.00  0.00    +0.000 OA
ATOM     23  O   UNL     1       6.445   6.332  18.182  0.00  0.00    +0.000 OA
ENDBRANCH  19  21
ENDBRANCH  13  18
ENDBRANCH   1  13
TORSDOF 5
ENDMDL
MODEL 5
REMARK VINA RESULT:      -7.3      1.121      1.262
REMARK  Name = 
REMARK  6 active torsions:
REMARK  status: ('A' for Active; 'I' for Inactive)
REMARK    1  A    between atoms: C_1  and  C_2
REMARK    2  A    between atoms: C_5  and  O_6
REMARK    3  A    between atoms: O_6  and  C_7
REMARK    4  A    between atoms: C_7  and  C_8
REMARK    5  A    between atoms: N_10  and  C_11
REMARK    6  A    between atoms: C_18  and  N_19
REMARK                            x       y       z     vdW  Elec       q    Type
REMARK                         _______ _______ _______ _____ _____    ______ ____
ROOT
ATOM      1  C   UNL     1       3.873   4.072  19.641  0.00  0.00    +0.000 C 
ENDROOT
BRANCH   1   2
ATOM      2  C   UNL     1       2.718   5.063  19.538  0.00  0.00    +0.000 C 
ATOM      3  O   UNL     1       1.590   4.651  19.269  0.00  0.00    +0.000 OA
ATOM      4  N   UNL     1       3.080   6.386  19.746  0.00  0.00    +0.000 N 
ATOM      5  H   UNL     1       4.071   6.597  19.767  0.00  0.00    +0.000 HD
BRANCH   4   6
ATOM      6  C   UNL     1       2.199   7.490  19.695  0.00  0.00    +0.000 A 
ATOM      7  C   UNL     1       2.042   8.282  18.551  0.00  0.00    +0.000 A 
ATOM      8  C   UNL     1       1.240   9.424  18.577  0.00  0.00    +0.000 A 
ATOM      9  C   UNL     1       0.575   9.762  19.745  0.00  0.00    +0.000 A 
ATOM     10  F   UNL     1      -0.165  10.878  19.781  0.00  0.00    +0.000 F 
ATOM     11  C   UNL     1       0.672   8.964  20.877  0.00  0.00    +0.000 A 
ATOM     12  C   UNL     1       1.475   7.817  20.852  0.00  0.00    +0.000 A 
ENDBRANCH   4   6
ENDBRANCH   1   2
BRANCH   1  13
ATOM     13  O   UNL     1       5.126   4.666  19.334  0.00  0.00    +0.000 OA
BRANCH  13  18
ATOM     14  C   UNL     1       7.299   4.774  14.118  0.00  0.00    +0.000 C 
ATOM     15  C   UNL     1       6.667   4.738  15.478  0.00  0.00    +0.000 A 
ATOM     16  C   UNL     1       5.418   4.168  15.671  0.00  0.00    +0.000 A 
ATOM     17  C   UNL     1       4.864   4.150  16.953  0.00  0.00    +0.000 A 
ATOM     18  C   UNL     1       5.559   4.695  18.034  0.00  0.00    +0.000 A 
ATOM     19  C   UNL     1       6.807   5.271  17.743  0.00  0.00    +0.000 A 
ATOM     20  N   UNL     1       7.368   5.289  16.491  0.00  0.00    +0.000 NA
BRANCH  19  21
ATOM     21  N   UNL     1       7.545   5.861  18.875  0.00  0.00    +0.000 N 
ATOM     22  O   UNL     1       7.548   5.237  19.950  0.00  0.00    +0.000 OA
ATOM     23  O   UNL     1       8.092   6.953  18.681  0.00  0.00    +0.000 OA
ENDBRANCH  19  21
ENDBRANCH  13  18
ENDBRANCH   1  13
TORSDOF 5
ENDMDL
MODEL 6
REMARK VINA RESULT:      -7.3      0.763      1.451
REMARK  Name = 
REMARK  6 active torsions:
REMARK  status: ('A' for Active; 'I' for Inactive)
REMARK    1  A    between atoms: C_1  and  C_2
REMARK    2  A    between atoms: C_5  and  O_6
REMARK    3  A    between atoms: O_6  and  C_7
REMARK    4  A    between atoms: C_7  and  C_8
REMARK    5  A    between atoms: N_10  and  C_11
REMARK    6  A    between atoms: C_18  and  N_19
REMARK                            x       y       z     vdW  Elec       q    Type
REMARK                         _______ _______ _______ _____ _____    ______ ____
ROOT
ATOM      1  C   UNL     1       3.848   4.356  17.966  0.00  0.00    +0.000 C 
ENDROOT
BRANCH   1   2
ATOM      2  C   UNL     1       2.852   5.316  18.607  0.00  0.00    +0.000 C 
ATOM      3  O   UNL     1       1.936   4.867  19.295  0.00  0.00    +0.000 OA
ATOM      4  N   UNL     1       3.079   6.653  18.316  0.00  0.00    +0.000 N 
ATOM      5  H   UNL     1       3.749   6.861  17.585  0.00  0.00    +0.000 HD
BRANCH   4   6
ATOM      6  C   UNL     1       2.293   7.734  18.779  0.00  0.00    +0.000 A 
ATOM      7  C   UNL     1       1.903   7.869  20.117  0.00  0.00    +0.000 A 
ATOM      8  C   UNL     1       1.042   8.894  20.511  0.00  0.00    +0.000 A 
ATOM      9  C   UNL     1       0.588   9.801  19.567  0.00  0.00    +0.000 A 
ATOM     10  F   UNL     1      -0.267  10.763  19.937  0.00  0.00    +0.000 F 
ATOM     11  C   UNL     1       1.003   9.721  18.244  0.00  0.00    +0.000 A 
ATOM     12  C   UNL     1       1.868   8.693  17.848  0.00  0.00    +0.000 A 
ENDBRANCH   4   6
ENDBRANCH   1   2
BRANCH   1  13
ATOM     13  O   UNL     1       5.117   4.957  17.747  0.00  0.00    +0.000 OA
BRANCH  13  18
ATOM     14  C   UNL     1       7.788   4.860  12.768  0.00  0.00    +0.000 C 
ATOM     15  C   UNL     1       7.029   4.866  14.062  0.00  0.00    +0.000 A 
ATOM     16  C   UNL     1       5.877   4.110  14.217  0.00  0.00    +0.000 A 
ATOM     17  C   UNL     1       5.199   4.139  15.439  0.00  0.00    +0.000 A 
ATOM     18  C   UNL     1       5.676   4.916  16.496  0.00  0.00    +0.000 A 
ATOM     19  C   UNL     1       6.836   5.665  16.243  0.00  0.00    +0.000 A 
ATOM     20  N   UNL     1       7.518   5.641  15.052  0.00  0.00    +0.000 NA
BRANCH  19  21
ATOM     21  N   UNL     1       7.342   6.500  17.348  0.00  0.00    +0.000 N 
ATOM     22  O   UNL     1       7.286   7.734  17.211  0.00  0.00    +0.000 OA
ATOM     23  O   UNL     1       7.810   5.910  18.330  0.00  0.00    +0.000 OA
ENDBRANCH  19  21
ENDBRANCH  13  18
ENDBRANCH   1  13
TORSDOF 5
ENDMDL
MODEL 7
REMARK VINA RESULT:      -7.3      2.412      3.540
REMARK  Name = 
REMARK  6 active torsions:
REMARK  status: ('A' for Active; 'I' for Inactive)
REMARK    1  A    between atoms: C_1  and  C_2
REMARK    2  A    between atoms: C_5  and  O_6
REMARK    3  A    between atoms: O_6  and  C_7
REMARK    4  A    between atoms: C_7  and  C_8
REMARK    5  A    between atoms: N_10  and  C_11
REMARK    6  A    between atoms: C_18  and  N_19
REMARK                            x       y       z     vdW  Elec       q    Type
REMARK                         _______ _______ _______ _____ _____    ______ ____
ROOT
ATOM      1  C   UNL     1       2.868   4.198  21.032  0.00  0.00    +0.000 C 
ENDROOT
BRANCH   1   2
ATOM      2  C   UNL     1       1.957   5.323  20.553  0.00  0.00    +0.000 C 
ATOM      3  O   UNL     1       0.757   5.102  20.389  0.00  0.00    +0.000 OA
ATOM      4  N   UNL     1       2.608   6.526  20.319  0.00  0.00    +0.000 N 
ATOM      5  H   UNL     1       3.621   6.510  20.311  0.00  0.00    +0.000 HD
BRANCH   4   6
ATOM      6  C   UNL     1       1.990   7.712  19.863  0.00  0.00    +0.000 A 
ATOM      7  C   UNL     1       1.198   8.521  20.688  0.00  0.00    +0.000 A 
ATOM      8  C   UNL     1       0.524   9.627  20.170  0.00  0.00    +0.000 A 
ATOM      9  C   UNL     1       0.660   9.940  18.826  0.00  0.00    +0.000 A 
ATOM     10  F   UNL     1      -0.016  10.979  18.321  0.00  0.00    +0.000 F 
ATOM     11  C   UNL     1       1.482   9.185  18.000  0.00  0.00    +0.000 A 
ATOM     12  C   UNL     1       2.161   8.075  18.518  0.00  0.00    +0.000 A 
ENDBRANCH   4   6
ENDBRANCH   1   2
BRANCH   1  13
ATOM     13  O   UNL     1       3.240   3.316  19.982  0.00  0.00    +0.000 OA
BRANCH  13  18
ATOM     14  C   UNL     1       6.370   5.257  15.695  0.00  0.00    +0.000 C 
ATOM     15  C   UNL     1       5.590   4.735  16.865  0.00  0.00    +0.000 A 
ATOM     16  C   UNL     1       6.121   4.760  18.146  0.00  0.00    +0.000 A 
ATOM     17  C   UNL     1       5.362   4.267  19.211  0.00  0.00    +0.000 A 
ATOM     18  C   UNL     1       4.081   3.760  18.994  0.00  0.00    +0.000 A 
ATOM     19  C   UNL     1       3.632   3.753  17.663  0.00  0.00    +0.000 A 
ATOM     20  N   UNL     1       4.362   4.241  16.607  0.00  0.00    +0.000 NA
BRANCH  19  21
ATOM     21  N   UNL     1       2.284   3.207  17.420  0.00  0.00    +0.000 N 
ATOM     22  O   UNL     1       2.172   1.972  17.323  0.00  0.00    +0.000 OA
ATOM     23  O   UNL     1       1.360   4.020  17.304  0.00  0.00    +0.000 OA
ENDBRANCH  19  21
ENDBRANCH  13  18
ENDBRANCH   1  13
TORSDOF 5
ENDMDL
MODEL 8
REMARK VINA RESULT:      -7.2      2.386      3.386
REMARK  Name = 
REMARK  6 active torsions:
REMARK  status: ('A' for Active; 'I' for Inactive)
REMARK    1  A    between atoms: C_1  and  C_2
REMARK    2  A    between atoms: C_5  and  O_6
REMARK    3  A    between atoms: O_6  and  C_7
REMARK    4  A    between atoms: C_7  and  C_8
REMARK    5  A    between atoms: N_10  and  C_11
REMARK    6  A    between atoms: C_18  and  N_19
REMARK                            x       y       z     vdW  Elec       q    Type
REMARK                         _______ _______ _______ _____ _____    ______ ____
ROOT
ATOM      1  C   UNL     1       2.891   4.214  20.994  0.00  0.00    +0.000 C 
ENDROOT
BRANCH   1   2
ATOM      2  C   UNL     1       1.973   5.325  20.497  0.00  0.00    +0.000 C 
ATOM      3  O   UNL     1       0.768   5.105  20.374  0.00  0.00    +0.000 OA
ATOM      4  N   UNL     1       2.624   6.514  20.200  0.00  0.00    +0.000 N 
ATOM      5  H   UNL     1       3.636   6.492  20.165  0.00  0.00    +0.000 HD
BRANCH   4   6
ATOM      6  C   UNL     1       2.000   7.686  19.715  0.00  0.00    +0.000 A 
ATOM      7  C   UNL     1       2.088   8.094  18.377  0.00  0.00    +0.000 A 
ATOM      8  C   UNL     1       1.545   9.310  17.964  0.00  0.00    +0.000 A 
ATOM      9  C   UNL     1       0.891  10.113  18.886  0.00  0.00    +0.000 A 
ATOM     10  F   UNL     1       0.402  11.297  18.498  0.00  0.00    +0.000 F 
ATOM     11  C   UNL     1       0.744   9.706  20.206  0.00  0.00    +0.000 A 
ATOM     12  C   UNL     1       1.288   8.484  20.622  0.00  0.00    +0.000 A 
ENDBRANCH   4   6
ENDBRANCH   1   2
BRANCH   1  13
ATOM     13  O   UNL     1       3.260   3.311  19.960  0.00  0.00    +0.000 OA
BRANCH  13  18
ATOM     14  C   UNL     1       6.407   5.166  15.648  0.00  0.00    +0.000 C 
ATOM     15  C   UNL     1       5.623   4.666  16.825  0.00  0.00    +0.000 A 
ATOM     16  C   UNL     1       6.159   4.690  18.103  0.00  0.00    +0.000 A 
ATOM     17  C   UNL     1       5.396   4.218  19.175  0.00  0.00    +0.000 A 
ATOM     18  C   UNL     1       4.104   3.733  18.966  0.00  0.00    +0.000 A 
ATOM     19  C   UNL     1       3.650   3.725  17.637  0.00  0.00    +0.000 A 
ATOM     20  N   UNL     1       4.384   4.192  16.575  0.00  0.00    +0.000 NA
BRANCH  19  21
ATOM     21  N   UNL     1       2.292   3.202  17.403  0.00  0.00    +0.000 N 
ATOM     22  O   UNL     1       2.157   1.969  17.315  0.00  0.00    +0.000 OA
ATOM     23  O   UNL     1       1.382   4.031  17.286  0.00  0.00    +0.000 OA
ENDBRANCH  19  21
ENDBRANCH  13  18
ENDBRANCH   1  13
TORSDOF 5
ENDMDL
MODEL 9
REMARK VINA RESULT:      -7.2      1.305      1.780
REMARK  Name = 
REMARK  6 active torsions:
REMARK  status: ('A' for Active; 'I' for Inactive)
REMARK    1  A    between atoms: C_1  and  C_2
REMARK    2  A    between atoms: C_5  and  O_6
REMARK    3  A    between atoms: O_6  and  C_7
REMARK    4  A    between atoms: C_7  and  C_8
REMARK    5  A    between atoms: N_10  and  C_11
REMARK    6  A    between atoms: C_18  and  N_19
REMARK                            x       y       z     vdW  Elec       q    Type
REMARK                         _______ _______ _______ _____ _____    ______ ____
ROOT
ATOM      1  C   UNL     1       3.740   4.367  19.721  0.00  0.00    +0.000 C 
ENDROOT
BRANCH   1   2
ATOM      2  C   UNL     1       2.601   5.374  19.837  0.00  0.00    +0.000 C 
ATOM      3  O   UNL     1       1.468   4.977  20.105  0.00  0.00    +0.000 OA
ATOM      4  N   UNL     1       2.973   6.688  19.593  0.00  0.00    +0.000 N 
ATOM      5  H   UNL     1       3.893   6.844  19.197  0.00  0.00    +0.000 HD
BRANCH   4   6
ATOM      6  C   UNL     1       2.104   7.802  19.629  0.00  0.00    +0.000 A 
ATOM      7  C   UNL     1       1.395   8.175  20.778  0.00  0.00    +0.000 A 
ATOM      8  C   UNL     1       0.469   9.218  20.740  0.00  0.00    +0.000 A 
ATOM      9  C   UNL     1       0.268   9.907  19.554  0.00  0.00    +0.000 A 
ATOM     10  F   UNL     1      -0.646  10.884  19.508  0.00  0.00    +0.000 F 
ATOM     11  C   UNL     1       0.998   9.592  18.415  0.00  0.00    +0.000 A 
ATOM     12  C   UNL     1       1.929   8.546  18.452  0.00  0.00    +0.000 A 
ENDBRANCH   4   6
ENDBRANCH   1   2
BRANCH   1  13
ATOM     13  O   UNL     1       4.976   4.982  19.382  0.00  0.00    +0.000 OA
BRANCH  13  18
ATOM     14  C   UNL     1       7.175   4.775  14.181  0.00  0.00    +0.000 C 
ATOM     15  C   UNL     1       6.535   4.827  15.536  0.00  0.00    +0.000 A 
ATOM     16  C   UNL     1       5.238   4.381  15.732  0.00  0.00    +0.000 A 
ATOM     17  C   UNL     1       4.678   4.442  17.011  0.00  0.00    +0.000 A 
ATOM     18  C   UNL     1       5.416   4.942  18.085  0.00  0.00    +0.000 A 
ATOM     19  C   UNL     1       6.714   5.392  17.791  0.00  0.00    +0.000 A 
ATOM     20  N   UNL     1       7.281   5.331  16.542  0.00  0.00    +0.000 NA
BRANCH  19  21
ATOM     21  N   UNL     1       7.498   5.935  18.915  0.00  0.00    +0.000 N 
ATOM     22  O   UNL     1       7.426   5.344  20.007  0.00  0.00    +0.000 OA
ATOM     23  O   UNL     1       8.157   6.959  18.699  0.00  0.00    +0.000 OA
ENDBRANCH  19  21
ENDBRANCH  13  18
ENDBRANCH   1  13
TORSDOF 5
ENDMDL
