MODEL 1
REMARK VINA RESULT:      -9.0      0.000      0.000
REMARK  Name = 
REMARK  7 active torsions:
REMARK  status: ('A' for Active; 'I' for Inactive)
REMARK    1  A    between atoms: C_1  and  C_2
REMARK    2  A    between atoms: C_4  and  C_5
REMARK    3  A    between atoms: N_13  and  C_14
REMARK    4  A    between atoms: C_17  and  C_18
REMARK    5  A    between atoms: C_18  and  O_20
REMARK    6  A    between atoms: C_23  and  C_24
REMARK    7  A    between atoms: C_24  and  N_25
REMARK                            x       y       z     vdW  Elec       q    Type
REMARK                         _______ _______ _______ _____ _____    ______ ____
ROOT
ATOM      1  C   UNL     1       1.462   3.140  21.342  0.00  0.00    +0.000 C 
ATOM      2  C   UNL     1       2.341   3.975  20.448  0.00  0.00    +0.000 A 
ATOM      3  N   UNL     1       1.951   5.252  20.328  0.00  0.00    +0.000 NA
ATOM      4  C   UNL     1       2.659   6.045  19.514  0.00  0.00    +0.000 A 
ATOM      5  N   UNL     1       3.726   5.641  18.816  0.00  0.00    +0.000 NA
ATOM      6  C   UNL     1       4.138   4.368  18.978  0.00  0.00    +0.000 A 
ATOM      7  N   UNL     1       5.292   3.977  18.280  0.00  0.00    +0.000 N 
ATOM      8  C   UNL     1       3.453   3.452  19.784  0.00  0.00    +0.000 A 
ATOM      9  H   UNL     1       5.797   3.225  18.751  0.00  0.00    +0.000 HD
ENDROOT
BRANCH   4  10
ATOM     10  C   UNL     1       2.185   7.430  19.348  0.00  0.00    +0.000 A 
ATOM     11  C   UNL     1       1.526   8.100  20.400  0.00  0.00    +0.000 A 
ATOM     12  C   UNL     1       1.008   9.386  20.240  0.00  0.00    +0.000 A 
ATOM     13  C   UNL     1       1.147  10.041  19.022  0.00  0.00    +0.000 A 
ATOM     14  C   UNL     1       1.820   9.419  17.974  0.00  0.00    +0.000 A 
ATOM     15  C   UNL     1       2.339   8.130  18.138  0.00  0.00    +0.000 A 
ENDBRANCH   4  10
BRANCH   7  16
ATOM     16  C   UNL     1       5.765   4.325  17.008  0.00  0.00    +0.000 A 
ATOM     17  C   UNL     1       6.941   5.076  16.900  0.00  0.00    +0.000 A 
ATOM     18  C   UNL     1       7.504   5.358  15.652  0.00  0.00    +0.000 A 
ATOM     19  C   UNL     1       6.899   4.889  14.481  0.00  0.00    +0.000 A 
ATOM     20  C   UNL     1       5.684   4.200  14.572  0.00  0.00    +0.000 A 
ATOM     21  C   UNL     1       5.107   3.954  15.829  0.00  0.00    +0.000 A 
BRANCH  19  22
ATOM     22  C   UNL     1       7.643   5.075  13.203  0.00  0.00    +0.000 C 
ATOM     23  O   UNL     1       8.590   5.837  13.105  0.00  0.00    +0.000 OA
BRANCH  22  24
ATOM     24  O   UNL     1       7.191   4.340  12.168  0.00  0.00    +0.000 OA
ATOM     25  H   UNL     1       6.277   4.020  12.249  0.00  0.00    +0.000 HD
ENDBRANCH  22  24
ENDBRANCH  19  22
ENDBRANCH   7  16
BRANCH   8  26
ATOM     26  C   UNL     1       3.813   1.999  19.990  0.00  0.00    +0.000 C 
BRANCH  26  27
ATOM     27  N   UNL     1       5.177   1.709  20.434  0.00  0.00    +0.000 NA
ATOM     28  H   UNL     1       5.825   2.080  19.731  0.00  0.00    +0.000 HD
ATOM     29  H   UNL     1       5.317   0.697  20.408  0.00  0.00    +0.000 HD
ENDBRANCH  26  27
ENDBRANCH   8  26
TORSDOF 6
ENDMDL
MODEL 2
REMARK VINA RESULT:      -9.0      0.484      1.077
REMARK  Name = 
REMARK  7 active torsions:
REMARK  status: ('A' for Active; 'I' for Inactive)
REMARK    1  A    between atoms: C_1  and  C_2
REMARK    2  A    between atoms: C_4  and  C_5
REMARK    3  A    between atoms: N_13  and  C_14
REMARK    4  A    between atoms: C_17  and  C_18
REMARK    5  A    between atoms: C_18  and  O_20
REMARK    6  A    between atoms: C_23  and  C_24
REMARK    7  A    between atoms: C_24  and  N_25
REMARK                            x       y       z     vdW  Elec       q    Type
REMARK                         _______ _______ _______ _____ _____    ______ ____
ROOT
ATOM      1  C   UNL     1       1.910   2.910  21.563  0.00  0.00    +0.000 C 
ATOM      2  C   UNL     1       2.678   3.777  20.600  0.00  0.00    +0.000 A 
ATOM      3  N   UNL     1       2.195   5.021  20.473  0.00  0.00    +0.000 NA
ATOM      4  C   UNL     1       2.800   5.837  19.600  0.00  0.00    +0.000 A 
ATOM      5  N   UNL     1       3.852   5.487  18.852  0.00  0.00    +0.000 NA
ATOM      6  C   UNL     1       4.359   4.249  19.020  0.00  0.00    +0.000 A 
ATOM      7  N   UNL     1       5.496   3.918  18.266  0.00  0.00    +0.000 N 
ATOM      8  C   UNL     1       3.784   3.312  19.886  0.00  0.00    +0.000 A 
ATOM      9  H   UNL     1       6.077   3.215  18.724  0.00  0.00    +0.000 HD
ENDROOT
BRANCH   4  10
ATOM     10  C   UNL     1       2.223   7.183  19.429  0.00  0.00    +0.000 A 
ATOM     11  C   UNL     1       2.332   7.866  18.201  0.00  0.00    +0.000 A 
ATOM     12  C   UNL     1       1.854   9.168  18.041  0.00  0.00    +0.000 A 
ATOM     13  C   UNL     1       1.243   9.815  19.108  0.00  0.00    +0.000 A 
ATOM     14  C   UNL     1       1.092   9.156  20.325  0.00  0.00    +0.000 A 
ATOM     15  C   UNL     1       1.572   7.851  20.482  0.00  0.00    +0.000 A 
ENDBRANCH   4  10
BRANCH   7  16
ATOM     16  C   UNL     1       5.872   4.261  16.961  0.00  0.00    +0.000 A 
ATOM     17  C   UNL     1       7.132   4.831  16.743  0.00  0.00    +0.000 A 
ATOM     18  C   UNL     1       7.589   5.095  15.448  0.00  0.00    +0.000 A 
ATOM     19  C   UNL     1       6.791   4.790  14.340  0.00  0.00    +0.000 A 
ATOM     20  C   UNL     1       5.501   4.287  14.549  0.00  0.00    +0.000 A 
ATOM     21  C   UNL     1       5.037   4.061  15.855  0.00  0.00    +0.000 A 
BRANCH  19  22
ATOM     22  C   UNL     1       7.406   4.933  12.991  0.00  0.00    +0.000 C 
ATOM     23  O   UNL     1       8.231   5.796  12.739  0.00  0.00    +0.000 OA
BRANCH  22  24
ATOM     24  O   UNL     1       6.985   4.041  12.073  0.00  0.00    +0.000 OA
ATOM     25  H   UNL     1       7.503   3.220  12.019  0.00  0.00    +0.000 HD
ENDBRANCH  22  24
ENDBRANCH  19  22
ENDBRANCH   7  16
BRANCH   8  26
ATOM     26  C   UNL     1       4.254   1.893  20.104  0.00  0.00    +0.000 C 
BRANCH  26  27
ATOM     27  N   UNL     1       4.379   1.044  18.918  0.00  0.00    +0.000 NA
ATOM     28  H   UNL     1       4.983   1.526  18.245  0.00  0.00    +0.000 HD
ATOM     29  H   UNL     1       3.467   0.993  18.460  0.00  0.00    +0.000 HD
ENDBRANCH  26  27
ENDBRANCH   8  26
TORSDOF 6
ENDMDL
MODEL 3
REMARK VINA RESULT:      -8.3      0.419      1.039
REMARK  Name = 
REMARK  7 active torsions:
REMARK  status: ('A' for Active; 'I' for Inactive)
REMARK    1  A    between atoms: C_1  and  C_2
REMARK    2  A    between atoms: C_4  and  C_5
REMARK    3  A    between atoms: N_13  and  C_14
REMARK    4  A    between atoms: C_17  and  C_18
REMARK    5  A    between atoms: C_18  and  O_20
REMARK    6  A    between atoms: C_23  and  C_24
REMARK    7  A    between atoms: C_24  and  N_25
REMARK                            x       y       z     vdW  Elec       q    Type
REMARK                         _______ _______ _______ _____ _____    ______ ____
ROOT
ATOM      1  C   UNL     1       1.342   3.203  21.440  0.00  0.00    +0.000 C 
ATOM      2  C   UNL     1       2.311   3.972  20.579  0.00  0.00    +0.000 A 
ATOM      3  N   UNL     1       1.946   5.239  20.337  0.00  0.00    +0.000 NA
ATOM      4  C   UNL     1       2.737   5.972  19.542  0.00  0.00    +0.000 A 
ATOM      5  N   UNL     1       3.861   5.518  18.978  0.00  0.00    +0.000 NA
ATOM      6  C   UNL     1       4.243   4.257  19.264  0.00  0.00    +0.000 A 
ATOM      7  N   UNL     1       5.453   3.816  18.706  0.00  0.00    +0.000 N 
ATOM      8  C   UNL     1       3.475   3.401  20.061  0.00  0.00    +0.000 A 
ATOM      9  H   UNL     1       5.904   3.096  19.273  0.00  0.00    +0.000 HD
ENDROOT
BRANCH   4  10
ATOM     10  C   UNL     1       2.294   7.345  19.239  0.00  0.00    +0.000 A 
ATOM     11  C   UNL     1       1.614   8.115  20.204  0.00  0.00    +0.000 A 
ATOM     12  C   UNL     1       1.126   9.390  19.914  0.00  0.00    +0.000 A 
ATOM     13  C   UNL     1       1.317   9.932  18.649  0.00  0.00    +0.000 A 
ATOM     14  C   UNL     1       2.013   9.209  17.683  0.00  0.00    +0.000 A 
ATOM     15  C   UNL     1       2.501   7.932  17.977  0.00  0.00    +0.000 A 
ENDBRANCH   4  10
BRANCH   7  16
ATOM     16  C   UNL     1       6.048   4.074  17.465  0.00  0.00    +0.000 A 
ATOM     17  C   UNL     1       5.573   3.406  16.330  0.00  0.00    +0.000 A 
ATOM     18  C   UNL     1       6.068   3.707  15.057  0.00  0.00    +0.000 A 
ATOM     19  C   UNL     1       7.050   4.689  14.895  0.00  0.00    +0.000 A 
ATOM     20  C   UNL     1       7.584   5.312  16.029  0.00  0.00    +0.000 A 
ATOM     21  C   UNL     1       7.107   4.976  17.306  0.00  0.00    +0.000 A 
BRANCH  19  22
ATOM     22  C   UNL     1       7.404   5.081  13.501  0.00  0.00    +0.000 C 
ATOM     23  O   UNL     1       8.299   5.872  13.253  0.00  0.00    +0.000 OA
BRANCH  22  24
ATOM     24  O   UNL     1       6.663   4.497  12.538  0.00  0.00    +0.000 OA
ATOM     25  H   UNL     1       7.145   3.893  11.948  0.00  0.00    +0.000 HD
ENDBRANCH  22  24
ENDBRANCH  19  22
ENDBRANCH   7  16
BRANCH   8  26
ATOM     26  C   UNL     1       3.799   1.964  20.397  0.00  0.00    +0.000 C 
BRANCH  26  27
ATOM     27  N   UNL     1       5.211   1.628  20.585  0.00  0.00    +0.000 NA
ATOM     28  H   UNL     1       5.274   0.931  21.335  0.00  0.00    +0.000 HD
ATOM     29  H   UNL     1       5.693   2.450  20.953  0.00  0.00    +0.000 HD
ENDBRANCH  26  27
ENDBRANCH   8  26
TORSDOF 6
ENDMDL
MODEL 4
REMARK VINA RESULT:      -7.1      1.114      1.587
REMARK  Name = 
REMARK  7 active torsions:
REMARK  status: ('A' for Active; 'I' for Inactive)
REMARK    1  A    between atoms: C_1  and  C_2
REMARK    2  A    between atoms: C_4  and  C_5
REMARK    3  A    between atoms: N_13  and  C_14
REMARK    4  A    between atoms: C_17  and  C_18
REMARK    5  A    between atoms: C_18  and  O_20
REMARK    6  A    between atoms: C_23  and  C_24
REMARK    7  A    between atoms: C_24  and  N_25
REMARK                            x       y       z     vdW  Elec       q    Type
REMARK                         _______ _______ _______ _____ _____    ______ ____
ROOT
ATOM      1  C   UNL     1       0.685   2.669  19.511  0.00  0.00    +0.000 C 
ATOM      2  C   UNL     1       1.842   3.484  18.993  0.00  0.00    +0.000 A 
ATOM      3  N   UNL     1       1.657   4.810  19.063  0.00  0.00    +0.000 NA
ATOM      4  C   UNL     1       2.625   5.599  18.579  0.00  0.00    +0.000 A 
ATOM      5  N   UNL     1       3.758   5.146  18.032  0.00  0.00    +0.000 NA
ATOM      6  C   UNL     1       3.955   3.813  18.007  0.00  0.00    +0.000 A 
ATOM      7  N   UNL     1       5.174   3.358  17.479  0.00  0.00    +0.000 N 
ATOM      8  C   UNL     1       2.995   2.902  18.462  0.00  0.00    +0.000 A 
ATOM      9  H   UNL     1       5.460   2.462  17.875  0.00  0.00    +0.000 HD
ENDROOT
BRANCH   4  10
ATOM     10  C   UNL     1       2.383   7.053  18.612  0.00  0.00    +0.000 A 
ATOM     11  C   UNL     1       1.806   7.665  19.743  0.00  0.00    +0.000 A 
ATOM     12  C   UNL     1       1.505   9.028  19.767  0.00  0.00    +0.000 A 
ATOM     13  C   UNL     1       1.787   9.816  18.657  0.00  0.00    +0.000 A 
ATOM     14  C   UNL     1       2.386   9.248  17.536  0.00  0.00    +0.000 A 
ATOM     15  C   UNL     1       2.686   7.882  17.516  0.00  0.00    +0.000 A 
ENDBRANCH   4  10
BRANCH   7  16
ATOM     16  C   UNL     1       5.957   3.834  16.420  0.00  0.00    +0.000 A 
ATOM     17  C   UNL     1       5.672   3.409  15.117  0.00  0.00    +0.000 A 
ATOM     18  C   UNL     1       6.361   3.935  14.020  0.00  0.00    +0.000 A 
ATOM     19  C   UNL     1       7.353   4.904  14.207  0.00  0.00    +0.000 A 
ATOM     20  C   UNL     1       7.698   5.283  15.510  0.00  0.00    +0.000 A 
ATOM     21  C   UNL     1       7.025   4.720  16.607  0.00  0.00    +0.000 A 
BRANCH  19  22
ATOM     22  C   UNL     1       7.923   5.546  12.989  0.00  0.00    +0.000 C 
ATOM     23  O   UNL     1       7.363   5.501  11.906  0.00  0.00    +0.000 OA
BRANCH  22  24
ATOM     24  O   UNL     1       9.098   6.179  13.173  0.00  0.00    +0.000 OA
ATOM     25  H   UNL     1       9.067   6.960  13.751  0.00  0.00    +0.000 HD
ENDBRANCH  22  24
ENDBRANCH  19  22
ENDBRANCH   7  16
BRANCH   8  26
ATOM     26  C   UNL     1       3.109   1.396  18.432  0.00  0.00    +0.000 C 
BRANCH  26  27
ATOM     27  N   UNL     1       4.383   0.816  18.860  0.00  0.00    +0.000 NA
ATOM     28  H   UNL     1       5.107   1.536  18.762  0.00  0.00    +0.000 HD
ATOM     29  H   UNL     1       4.647   0.089  18.194  0.00  0.00    +0.000 HD
ENDBRANCH  26  27
ENDBRANCH   8  26
TORSDOF 6
ENDMDL
MODEL 5
REMARK VINA RESULT:      -7.1      0.842      1.705
REMARK  Name = 
REMARK  7 active torsions:
REMARK  status: ('A' for Active; 'I' for Inactive)
REMARK    1  A    between atoms: C_1  and  C_2
REMARK    2  A    between atoms: C_4  and  C_5
REMARK    3  A    between atoms: N_13  and  C_14
REMARK    4  A    between atoms: C_17  and  C_18
REMARK    5  A    between atoms: C_18  and  O_20
REMARK    6  A    between atoms: C_23  and  C_24
REMARK    7  A    between atoms: C_24  and  N_25
REMARK                            x       y       z     vdW  Elec       q    Type
REMARK                         _______ _______ _______ _____ _____    ______ ____
ROOT
ATOM      1  C   UNL     1       0.726   2.988  20.233  0.00  0.00    +0.000 C 
ATOM      2  C   UNL     1       1.841   3.778  19.597  0.00  0.00    +0.000 A 
ATOM      3  N   UNL     1       1.606   5.095  19.517  0.00  0.00    +0.000 NA
ATOM      4  C   UNL     1       2.533   5.857  18.922  0.00  0.00    +0.000 A 
ATOM      5  N   UNL     1       3.672   5.384  18.405  0.00  0.00    +0.000 NA
ATOM      6  C   UNL     1       3.920   4.065  18.530  0.00  0.00    +0.000 A 
ATOM      7  N   UNL     1       5.145   3.596  18.030  0.00  0.00    +0.000 N 
ATOM      8  C   UNL     1       3.005   3.179  19.110  0.00  0.00    +0.000 A 
ATOM      9  H   UNL     1       5.473   2.763  18.520  0.00  0.00    +0.000 HD
ENDROOT
BRANCH   4  10
ATOM     10  C   UNL     1       2.236   7.295  18.792  0.00  0.00    +0.000 A 
ATOM     11  C   UNL     1       2.618   8.011  17.639  0.00  0.00    +0.000 A 
ATOM     12  C   UNL     1       2.408   9.386  17.526  0.00  0.00    +0.000 A 
ATOM     13  C   UNL     1       1.798  10.079  18.566  0.00  0.00    +0.000 A 
ATOM     14  C   UNL     1       1.381   9.395  19.704  0.00  0.00    +0.000 A 
ATOM     15  C   UNL     1       1.593   8.017  19.814  0.00  0.00    +0.000 A 
ENDBRANCH   4  10
BRANCH   7  16
ATOM     16  C   UNL     1       5.889   3.973  16.905  0.00  0.00    +0.000 A 
ATOM     17  C   UNL     1       5.619   3.364  15.674  0.00  0.00    +0.000 A 
ATOM     18  C   UNL     1       6.265   3.781  14.506  0.00  0.00    +0.000 A 
ATOM     19  C   UNL     1       7.199   4.822  14.548  0.00  0.00    +0.000 A 
ATOM     20  C   UNL     1       7.531   5.389  15.785  0.00  0.00    +0.000 A 
ATOM     21  C   UNL     1       6.903   4.937  16.957  0.00  0.00    +0.000 A 
BRANCH  19  22
ATOM     22  C   UNL     1       7.718   5.330  13.247  0.00  0.00    +0.000 C 
ATOM     23  O   UNL     1       7.184   5.064  12.183  0.00  0.00    +0.000 OA
BRANCH  22  24
ATOM     24  O   UNL     1       8.818   6.104  13.334  0.00  0.00    +0.000 OA
ATOM     25  H   UNL     1       8.655   7.062  13.353  0.00  0.00    +0.000 HD
ENDBRANCH  22  24
ENDBRANCH  19  22
ENDBRANCH   7  16
BRANCH   8  26
ATOM     26  C   UNL     1       3.176   1.685  19.252  0.00  0.00    +0.000 C 
BRANCH  26  27
ATOM     27  N   UNL     1       4.065   1.024  18.296  0.00  0.00    +0.000 NA
ATOM     28  H   UNL     1       3.977   0.011  18.430  0.00  0.00    +0.000 HD
ATOM     29  H   UNL     1       5.031   1.237  18.552  0.00  0.00    +0.000 HD
ENDBRANCH  26  27
ENDBRANCH   8  26
TORSDOF 6
ENDMDL
MODEL 6
REMARK VINA RESULT:      -6.9      3.223      6.593
REMARK  Name = 
REMARK  7 active torsions:
REMARK  status: ('A' for Active; 'I' for Inactive)
REMARK    1  A    between atoms: C_1  and  C_2
REMARK    2  A    between atoms: C_4  and  C_5
REMARK    3  A    between atoms: N_13  and  C_14
REMARK    4  A    between atoms: C_17  and  C_18
REMARK    5  A    between atoms: C_18  and  O_20
REMARK    6  A    between atoms: C_23  and  C_24
REMARK    7  A    between atoms: C_24  and  N_25
REMARK                            x       y       z     vdW  Elec       q    Type
REMARK                         _______ _______ _______ _____ _____    ______ ____
ROOT
ATOM      1  C   UNL     1       4.620   1.621  20.745  0.00  0.00    +0.000 C 
ATOM      2  C   UNL     1       4.202   2.818  19.930  0.00  0.00    +0.000 A 
ATOM      3  N   UNL     1       4.915   2.998  18.810  0.00  0.00    +0.000 NA
ATOM      4  C   UNL     1       4.629   4.068  18.056  0.00  0.00    +0.000 A 
ATOM      5  N   UNL     1       3.682   4.963  18.354  0.00  0.00    +0.000 NA
ATOM      6  C   UNL     1       2.939   4.749  19.459  0.00  0.00    +0.000 A 
ATOM      7  N   UNL     1       1.914   5.669  19.726  0.00  0.00    +0.000 N 
ATOM      8  C   UNL     1       3.175   3.677  20.327  0.00  0.00    +0.000 A 
ATOM      9  H   UNL     1       1.144   5.254  20.252  0.00  0.00    +0.000 HD
ENDROOT
BRANCH   4  10
ATOM     10  C   UNL     1       5.459   4.284  16.857  0.00  0.00    +0.000 A 
ATOM     11  C   UNL     1       6.779   4.766  16.968  0.00  0.00    +0.000 A 
ATOM     12  C   UNL     1       7.556   5.043  15.842  0.00  0.00    +0.000 A 
ATOM     13  C   UNL     1       7.032   4.831  14.572  0.00  0.00    +0.000 A 
ATOM     14  C   UNL     1       5.743   4.326  14.430  0.00  0.00    +0.000 A 
ATOM     15  C   UNL     1       4.967   4.050  15.561  0.00  0.00    +0.000 A 
ENDBRANCH   4  10
BRANCH   7  16
ATOM     16  C   UNL     1       1.842   7.055  19.536  0.00  0.00    +0.000 A 
ATOM     17  C   UNL     1       2.177   7.590  18.286  0.00  0.00    +0.000 A 
ATOM     18  C   UNL     1       2.022   8.954  18.022  0.00  0.00    +0.000 A 
ATOM     19  C   UNL     1       1.525   9.814  19.007  0.00  0.00    +0.000 A 
ATOM     20  C   UNL     1       1.256   9.303  20.282  0.00  0.00    +0.000 A 
ATOM     21  C   UNL     1       1.450   7.939  20.549  0.00  0.00    +0.000 A 
BRANCH  19  22
ATOM     22  C   UNL     1       1.222  11.216  18.603  0.00  0.00    +0.000 C 
ATOM     23  O   UNL     1       0.169  11.763  18.887  0.00  0.00    +0.000 OA
BRANCH  22  24
ATOM     24  O   UNL     1       2.196  11.833  17.905  0.00  0.00    +0.000 OA
ATOM     25  H   UNL     1       2.186  11.675  16.945  0.00  0.00    +0.000 HD
ENDBRANCH  22  24
ENDBRANCH  19  22
ENDBRANCH   7  16
BRANCH   8  26
ATOM     26  C   UNL     1       2.427   3.384  21.607  0.00  0.00    +0.000 C 
BRANCH  26  27
ATOM     27  N   UNL     1       1.061   2.873  21.477  0.00  0.00    +0.000 NA
ATOM     28  H   UNL     1       0.416   3.662  21.593  0.00  0.00    +0.000 HD
ATOM     29  H   UNL     1       0.869   2.261  22.271  0.00  0.00    +0.000 HD
ENDBRANCH  26  27
ENDBRANCH   8  26
TORSDOF 6
ENDMDL
MODEL 7
REMARK VINA RESULT:      -6.9      3.790      6.250
REMARK  Name = 
REMARK  7 active torsions:
REMARK  status: ('A' for Active; 'I' for Inactive)
REMARK    1  A    between atoms: C_1  and  C_2
REMARK    2  A    between atoms: C_4  and  C_5
REMARK    3  A    between atoms: N_13  and  C_14
REMARK    4  A    between atoms: C_17  and  C_18
REMARK    5  A    between atoms: C_18  and  O_20
REMARK    6  A    between atoms: C_23  and  C_24
REMARK    7  A    between atoms: C_24  and  N_25
REMARK                            x       y       z     vdW  Elec       q    Type
REMARK                         _______ _______ _______ _____ _____    ______ ____
ROOT
ATOM      1  C   UNL     1      -1.108  11.217  23.124  0.00  0.00    +0.000 C 
ATOM      2  C   UNL     1      -0.592  10.510  21.897  0.00  0.00    +0.000 A 
ATOM      3  N   UNL     1      -1.274  10.785  20.776  0.00  0.00    +0.000 NA
ATOM      4  C   UNL     1      -0.901  10.158  19.653  0.00  0.00    +0.000 A 
ATOM      5  N   UNL     1       0.104   9.279  19.583  0.00  0.00    +0.000 NA
ATOM      6  C   UNL     1       0.812   9.043  20.706  0.00  0.00    +0.000 A 
ATOM      7  N   UNL     1       1.897   8.158  20.601  0.00  0.00    +0.000 N 
ATOM      8  C   UNL     1       0.487   9.625  21.936  0.00  0.00    +0.000 A 
ATOM      9  H   UNL     1       2.626   8.353  21.288  0.00  0.00    +0.000 HD
ENDROOT
BRANCH   4  10
ATOM     10  C   UNL     1      -1.694  10.428  18.440  0.00  0.00    +0.000 A 
ATOM     11  C   UNL     1      -2.727  11.388  18.450  0.00  0.00    +0.000 A 
ATOM     12  C   UNL     1      -3.534  11.609  17.333  0.00  0.00    +0.000 A 
ATOM     13  C   UNL     1      -3.320  10.878  16.170  0.00  0.00    +0.000 A 
ATOM     14  C   UNL     1      -2.288   9.945  16.118  0.00  0.00    +0.000 A 
ATOM     15  C   UNL     1      -1.480   9.727  17.240  0.00  0.00    +0.000 A 
ENDBRANCH   4  10
BRANCH   7  16
ATOM     16  C   UNL     1       2.070   6.994  19.843  0.00  0.00    +0.000 A 
ATOM     17  C   UNL     1       2.679   7.084  18.585  0.00  0.00    +0.000 A 
ATOM     18  C   UNL     1       2.964   5.936  17.839  0.00  0.00    +0.000 A 
ATOM     19  C   UNL     1       2.647   4.669  18.341  0.00  0.00    +0.000 A 
ATOM     20  C   UNL     1       1.973   4.571  19.564  0.00  0.00    +0.000 A 
ATOM     21  C   UNL     1       1.657   5.732  20.288  0.00  0.00    +0.000 A 
BRANCH  19  22
ATOM     22  C   UNL     1       3.135   3.487  17.576  0.00  0.00    +0.000 C 
ATOM     23  O   UNL     1       4.161   3.515  16.918  0.00  0.00    +0.000 OA
BRANCH  22  24
ATOM     24  O   UNL     1       2.360   2.388  17.667  0.00  0.00    +0.000 OA
ATOM     25  H   UNL     1       2.834   1.553  17.822  0.00  0.00    +0.000 HD
ENDBRANCH  22  24
ENDBRANCH  19  22
ENDBRANCH   7  16
BRANCH   8  26
ATOM     26  C   UNL     1       1.192   9.386  23.251  0.00  0.00    +0.000 C 
BRANCH  26  27
ATOM     27  N   UNL     1       2.655   9.332  23.221  0.00  0.00    +0.000 NA
ATOM     28  H   UNL     1       3.012  10.176  23.683  0.00  0.00    +0.000 HD
ATOM     29  H   UNL     1       2.961   9.418  22.250  0.00  0.00    +0.000 HD
ENDBRANCH  26  27
ENDBRANCH   8  26
TORSDOF 6
ENDMDL
MODEL 8
REMARK VINA RESULT:      -6.8      4.253      6.627
REMARK  Name = 
REMARK  7 active torsions:
REMARK  status: ('A' for Active; 'I' for Inactive)
REMARK    1  A    between atoms: C_1  and  C_2
REMARK    2  A    between atoms: C_4  and  C_5
REMARK    3  A    between atoms: N_13  and  C_14
REMARK    4  A    between atoms: C_17  and  C_18
REMARK    5  A    between atoms: C_18  and  O_20
REMARK    6  A    between atoms: C_23  and  C_24
REMARK    7  A    between atoms: C_24  and  N_25
REMARK                            x       y       z     vdW  Elec       q    Type
REMARK                         _______ _______ _______ _____ _____    ______ ____
ROOT
ATOM      1  C   UNL     1      -1.178  11.358  23.116  0.00  0.00    +0.000 C 
ATOM      2  C   UNL     1      -0.679  10.594  21.917  0.00  0.00    +0.000 A 
ATOM      3  N   UNL     1      -1.358  10.839  20.787  0.00  0.00    +0.000 NA
ATOM      4  C   UNL     1      -1.000  10.163  19.688  0.00  0.00    +0.000 A 
ATOM      5  N   UNL     1      -0.013   9.261  19.651  0.00  0.00    +0.000 NA
ATOM      6  C   UNL     1       0.693   9.055  20.780  0.00  0.00    +0.000 A 
ATOM      7  N   UNL     1       1.760   8.146  20.708  0.00  0.00    +0.000 N 
ATOM      8  C   UNL     1       0.383   9.690  21.988  0.00  0.00    +0.000 A 
ATOM      9  H   UNL     1       2.495   8.352  21.386  0.00  0.00    +0.000 HD
ENDROOT
BRANCH   4  10
ATOM     10  C   UNL     1      -1.791  10.401  18.467  0.00  0.00    +0.000 A 
ATOM     11  C   UNL     1      -1.510   9.703  17.275  0.00  0.00    +0.000 A 
ATOM     12  C   UNL     1      -2.201   9.964  16.091  0.00  0.00    +0.000 A 
ATOM     13  C   UNL     1      -3.203  10.928  16.074  0.00  0.00    +0.000 A 
ATOM     14  C   UNL     1      -3.525  11.613  17.243  0.00  0.00    +0.000 A 
ATOM     15  C   UNL     1      -2.831  11.348  18.428  0.00  0.00    +0.000 A 
ENDBRANCH   4  10
BRANCH   7  16
ATOM     16  C   UNL     1       1.909   6.949  19.995  0.00  0.00    +0.000 A 
ATOM     17  C   UNL     1       1.625   5.736  20.634  0.00  0.00    +0.000 A 
ATOM     18  C   UNL     1       1.661   4.527  19.932  0.00  0.00    +0.000 A 
ATOM     19  C   UNL     1       1.982   4.509  18.571  0.00  0.00    +0.000 A 
ATOM     20  C   UNL     1       2.339   5.706  17.940  0.00  0.00    +0.000 A 
ATOM     21  C   UNL     1       2.335   6.910  18.662  0.00  0.00    +0.000 A 
BRANCH  19  22
ATOM     22  C   UNL     1       1.832   3.214  17.848  0.00  0.00    +0.000 C 
ATOM     23  O   UNL     1       2.573   2.886  16.937  0.00  0.00    +0.000 OA
BRANCH  22  24
ATOM     24  O   UNL     1       0.819   2.435  18.277  0.00  0.00    +0.000 OA
ATOM     25  H   UNL     1      -0.072   2.808  18.165  0.00  0.00    +0.000 HD
ENDBRANCH  22  24
ENDBRANCH  19  22
ENDBRANCH   7  16
BRANCH   8  26
ATOM     26  C   UNL     1       1.086   9.488  23.309  0.00  0.00    +0.000 C 
BRANCH  26  27
ATOM     27  N   UNL     1       2.539   9.317  23.270  0.00  0.00    +0.000 NA
ATOM     28  H   UNL     1       2.807   9.110  22.302  0.00  0.00    +0.000 HD
ATOM     29  H   UNL     1       2.779   8.472  23.792  0.00  0.00    +0.000 HD
ENDBRANCH  26  27
ENDBRANCH   8  26
TORSDOF 6
ENDMDL
MODEL 9
REMARK VINA RESULT:      -6.8      4.609      7.395
REMARK  Name = 
REMARK  7 active torsions:
REMARK  status: ('A' for Active; 'I' for Inactive)
REMARK    1  A    between atoms: C_1  and  C_2
REMARK    2  A    between atoms: C_4  and  C_5
REMARK    3  A    between atoms: N_13  and  C_14
REMARK    4  A    between atoms: C_17  and  C_18
REMARK    5  A    between atoms: C_18  and  O_20
REMARK    6  A    between atoms: C_23  and  C_24
REMARK    7  A    between atoms: C_24  and  N_25
REMARK                            x       y       z     vdW  Elec       q    Type
REMARK                         _______ _______ _______ _____ _____    ______ ____
ROOT
ATOM      1  C   UNL     1      -2.526  12.510  21.897  0.00  0.00    +0.000 C 
ATOM      2  C   UNL     1      -1.773  11.679  20.891  0.00  0.00    +0.000 A 
ATOM      3  N   UNL     1      -2.360  11.604  19.688  0.00  0.00    +0.000 NA
ATOM      4  C   UNL     1      -1.770  10.845  18.755  0.00  0.00    +0.000 A 
ATOM      5  N   UNL     1      -0.638  10.161  18.951  0.00  0.00    +0.000 NA
ATOM      6  C   UNL     1      -0.031  10.279  20.149  0.00  0.00    +0.000 A 
ATOM      7  N   UNL     1       1.185   9.598  20.317  0.00  0.00    +0.000 N 
ATOM      8  C   UNL     1      -0.578  11.025  21.199  0.00  0.00    +0.000 A 
ATOM      9  H   UNL     1       1.793  10.050  21.001  0.00  0.00    +0.000 HD
ENDROOT
BRANCH   4  10
ATOM     10  C   UNL     1      -2.456  10.727  17.456  0.00  0.00    +0.000 A 
ATOM     11  C   UNL     1      -3.644  11.441  17.197  0.00  0.00    +0.000 A 
ATOM     12  C   UNL     1      -4.346  11.290  16.000  0.00  0.00    +0.000 A 
ATOM     13  C   UNL     1      -3.867  10.423  15.024  0.00  0.00    +0.000 A 
ATOM     14  C   UNL     1      -2.680   9.727  15.236  0.00  0.00    +0.000 A 
ATOM     15  C   UNL     1      -1.979   9.882  16.437  0.00  0.00    +0.000 A 
ENDBRANCH   4  10
BRANCH   7  16
ATOM     16  C   UNL     1       1.623   8.356  19.839  0.00  0.00    +0.000 A 
ATOM     17  C   UNL     1       1.494   7.227  20.657  0.00  0.00    +0.000 A 
ATOM     18  C   UNL     1       1.823   5.954  20.183  0.00  0.00    +0.000 A 
ATOM     19  C   UNL     1       2.289   5.784  18.875  0.00  0.00    +0.000 A 
ATOM     20  C   UNL     1       2.491   6.913  18.073  0.00  0.00    +0.000 A 
ATOM     21  C   UNL     1       2.192   8.192  18.571  0.00  0.00    +0.000 A 
BRANCH  19  22
ATOM     22  C   UNL     1       2.453   4.387  18.382  0.00  0.00    +0.000 C 
ATOM     23  O   UNL     1       3.404   3.692  18.698  0.00  0.00    +0.000 OA
BRANCH  22  24
ATOM     24  O   UNL     1       1.475   3.952  17.563  0.00  0.00    +0.000 OA
ATOM     25  H   UNL     1       1.699   3.178  17.018  0.00  0.00    +0.000 HD
ENDBRANCH  22  24
ENDBRANCH  19  22
ENDBRANCH   7  16
BRANCH   8  26
ATOM     26  C   UNL     1       0.005  11.177  22.584  0.00  0.00    +0.000 C 
BRANCH  26  27
ATOM     27  N   UNL     1       0.148   9.958  23.383  0.00  0.00    +0.000 NA
ATOM     28  H   UNL     1      -0.754   9.471  23.382  0.00  0.00    +0.000 HD
ATOM     29  H   UNL     1       0.298  10.226  24.357  0.00  0.00    +0.000 HD
ENDBRANCH  26  27
ENDBRANCH   8  26
TORSDOF 6
ENDMDL
