MODEL 1
REMARK VINA RESULT:      -4.5      0.000      0.000
REMARK  Name = 
REMARK  16 active torsions:
REMARK  status: ('A' for Active; 'I' for Inactive)
REMARK    1  A    between atoms: C_1  and  O_2
REMARK    2  A    between atoms: O_2  and  C_3
REMARK    3  A    between atoms: C_3  and  C_4
REMARK    4  A    between atoms: C_4  and  O_5
REMARK    5  A    between atoms: O_5  and  C_6
REMARK    6  A    between atoms: C_6  and  C_7
REMARK    7  A    between atoms: C_7  and  O_8
REMARK    8  A    between atoms: O_8  and  C_9
REMARK    9  A    between atoms: C_9  and  C_10
REMARK   10  A    between atoms: C_10  and  O_11
REMARK   11  A    between atoms: O_11  and  C_12
REMARK   12  A    between atoms: C_12  and  C_13
REMARK   13  A    between atoms: C_13  and  O_14
REMARK   14  A    between atoms: O_14  and  C_15
REMARK   15  A    between atoms: C_15  and  C_16
REMARK   16  A    between atoms: C_16  and  O_17
REMARK                            x       y       z     vdW  Elec       q    Type
REMARK                         _______ _______ _______ _____ _____    ______ ____
ROOT
ATOM      1  C   UNL     1       5.052   3.716  19.354  0.00  0.00    +0.000 C 
ENDROOT
BRANCH   1   2
ATOM      2  O   UNL     1       4.398   3.295  18.159  0.00  0.00    +0.000 OA
BRANCH   2   3
ATOM      3  C   UNL     1       3.678   2.081  18.361  0.00  0.00    +0.000 C 
BRANCH   3   4
ATOM      4  C   UNL     1       2.257   2.255  17.844  0.00  0.00    +0.000 C 
BRANCH   4   5
ATOM      5  O   UNL     1       1.710   3.458  18.378  0.00  0.00    +0.000 OA
BRANCH   5   6
ATOM      6  C   UNL     1       0.907   3.196  19.527  0.00  0.00    +0.000 C 
BRANCH   6   7
ATOM      7  C   UNL     1       1.095   4.323  20.533  0.00  0.00    +0.000 C 
BRANCH   7   9
ATOM      8  C   UNL     1       2.309   2.698  21.721  0.00  0.00    +0.000 C 
ATOM      9  O   UNL     1       2.253   4.060  21.328  0.00  0.00    +0.000 OA
ENDBRANCH   7   9
ENDBRANCH   6   7
ENDBRANCH   5   6
ENDBRANCH   4   5
ENDBRANCH   3   4
ENDBRANCH   2   3
ENDBRANCH   1   2
BRANCH   1  10
ATOM     10  C   UNL     1       5.375   5.198  19.246  0.00  0.00    +0.000 C 
BRANCH  10  11
ATOM     11  O   UNL     1       6.737   5.411  19.616  0.00  0.00    +0.000 OA
BRANCH  11  12
ATOM     12  C   UNL     1       7.595   5.372  18.479  0.00  0.00    +0.000 C 
BRANCH  12  13
ATOM     13  C   UNL     1       7.198   6.488  17.522  0.00  0.00    +0.000 C 
BRANCH  13  14
ATOM     14  O   UNL     1       7.551   6.122  16.187  0.00  0.00    +0.000 OA
BRANCH  14  15
ATOM     15  C   UNL     1       7.228   4.749  15.932  0.00  0.00    +0.000 C 
BRANCH  15  16
ATOM     16  C   UNL     1       6.039   4.690  14.978  0.00  0.00    +0.000 C 
BRANCH  16  17
ATOM     17  O   UNL     1       4.863   4.283  15.674  0.00  0.00    +0.000 OA
ATOM     18  H   UNL     1       4.189   4.954  15.456  0.00  0.00    +0.000 HD
ENDBRANCH  16  17
ENDBRANCH  15  16
ENDBRANCH  14  15
ENDBRANCH  13  14
ENDBRANCH  12  13
ENDBRANCH  11  12
ENDBRANCH  10  11
ENDBRANCH   1  10
TORSDOF 15
ENDMDL
MODEL 2
REMARK VINA RESULT:      -4.4      1.603      6.129
REMARK  Name = 
REMARK  16 active torsions:
REMARK  status: ('A' for Active; 'I' for Inactive)
REMARK    1  A    between atoms: C_1  and  O_2
REMARK    2  A    between atoms: O_2  and  C_3
REMARK    3  A    between atoms: C_3  and  C_4
REMARK    4  A    between atoms: C_4  and  O_5
REMARK    5  A    between atoms: O_5  and  C_6
REMARK    6  A    between atoms: C_6  and  C_7
REMARK    7  A    between atoms: C_7  and  O_8
REMARK    8  A    between atoms: O_8  and  C_9
REMARK    9  A    between atoms: C_9  and  C_10
REMARK   10  A    between atoms: C_10  and  O_11
REMARK   11  A    between atoms: O_11  and  C_12
REMARK   12  A    between atoms: C_12  and  C_13
REMARK   13  A    between atoms: C_13  and  O_14
REMARK   14  A    between atoms: O_14  and  C_15
REMARK   15  A    between atoms: C_15  and  C_16
REMARK   16  A    between atoms: C_16  and  O_17
REMARK                            x       y       z     vdW  Elec       q    Type
REMARK                         _______ _______ _______ _____ _____    ______ ____
ROOT
ATOM      1  C   UNL     1       3.528   4.705  17.549  0.00  0.00    +0.000 C 
ENDROOT
BRANCH   1   2
ATOM      2  O   UNL     1       3.482   6.078  17.927  0.00  0.00    +0.000 OA
BRANCH   2   3
ATOM      3  C   UNL     1       4.431   6.851  17.195  0.00  0.00    +0.000 C 
BRANCH   3   4
ATOM      4  C   UNL     1       4.999   6.002  16.067  0.00  0.00    +0.000 C 
BRANCH   4   5
ATOM      5  O   UNL     1       6.356   6.374  15.840  0.00  0.00    +0.000 OA
BRANCH   5   6
ATOM      6  C   UNL     1       7.139   6.223  17.022  0.00  0.00    +0.000 C 
BRANCH   6   7
ATOM      7  C   UNL     1       7.387   4.742  17.270  0.00  0.00    +0.000 C 
BRANCH   7   9
ATOM      8  C   UNL     1       7.439   5.655  19.436  0.00  0.00    +0.000 C 
ATOM      9  O   UNL     1       7.804   4.551  18.623  0.00  0.00    +0.000 OA
ENDBRANCH   7   9
ENDBRANCH   6   7
ENDBRANCH   5   6
ENDBRANCH   4   5
ENDBRANCH   3   4
ENDBRANCH   2   3
ENDBRANCH   1   2
BRANCH   1  10
ATOM     10  C   UNL     1       4.065   3.888  18.716  0.00  0.00    +0.000 C 
BRANCH  10  11
ATOM     11  O   UNL     1       3.908   2.499  18.429  0.00  0.00    +0.000 OA
BRANCH  11  12
ATOM     12  C   UNL     1       2.620   2.224  17.889  0.00  0.00    +0.000 C 
BRANCH  12  13
ATOM     13  C   UNL     1       1.655   1.939  19.033  0.00  0.00    +0.000 C 
BRANCH  13  14
ATOM     14  O   UNL     1       0.743   3.029  19.173  0.00  0.00    +0.000 OA
BRANCH  14  15
ATOM     15  C   UNL     1       0.917   3.679  20.439  0.00  0.00    +0.000 C 
BRANCH  15  16
ATOM     16  C   UNL     1       1.414   2.656  21.455  0.00  0.00    +0.000 C 
BRANCH  16  17
ATOM     17  O   UNL     1       2.457   3.213  22.252  0.00  0.00    +0.000 OA
ATOM     18  H   UNL     1       2.073   4.013  22.657  0.00  0.00    +0.000 HD
ENDBRANCH  16  17
ENDBRANCH  15  16
ENDBRANCH  14  15
ENDBRANCH  13  14
ENDBRANCH  12  13
ENDBRANCH  11  12
ENDBRANCH  10  11
ENDBRANCH   1  10
TORSDOF 15
ENDMDL
MODEL 3
REMARK VINA RESULT:      -4.3      1.580      6.211
REMARK  Name = 
REMARK  16 active torsions:
REMARK  status: ('A' for Active; 'I' for Inactive)
REMARK    1  A    between atoms: C_1  and  O_2
REMARK    2  A    between atoms: O_2  and  C_3
REMARK    3  A    between atoms: C_3  and  C_4
REMARK    4  A    between atoms: C_4  and  O_5
REMARK    5  A    between atoms: O_5  and  C_6
REMARK    6  A    between atoms: C_6  and  C_7
REMARK    7  A    between atoms: C_7  and  O_8
REMARK    8  A    between atoms: O_8  and  C_9
REMARK    9  A    between atoms: C_9  and  C_10
REMARK   10  A    between atoms: C_10  and  O_11
REMARK   11  A    between atoms: O_11  and  C_12
REMARK   12  A    between atoms: C_12  and  C_13
REMARK   13  A    between atoms: C_13  and  O_14
REMARK   14  A    between atoms: O_14  and  C_15
REMARK   15  A    between atoms: C_15  and  C_16
REMARK   16  A    between atoms: C_16  and  O_17
REMARK                            x       y       z     vdW  Elec       q    Type
REMARK                         _______ _______ _______ _____ _____    ______ ____
ROOT
ATOM      1  C   UNL     1       3.552   5.326  17.543  0.00  0.00    +0.000 C 
ENDROOT
BRANCH   1   2
ATOM      2  O   UNL     1       4.302   5.837  18.641  0.00  0.00    +0.000 OA
BRANCH   2   3
ATOM      3  C   UNL     1       5.242   4.877  19.121  0.00  0.00    +0.000 C 
BRANCH   3   4
ATOM      4  C   UNL     1       6.600   5.546  19.276  0.00  0.00    +0.000 C 
BRANCH   4   5
ATOM      5  O   UNL     1       7.600   4.712  18.698  0.00  0.00    +0.000 OA
BRANCH   5   6
ATOM      6  C   UNL     1       7.354   4.492  17.311  0.00  0.00    +0.000 C 
BRANCH   6   7
ATOM      7  C   UNL     1       7.232   5.837  16.609  0.00  0.00    +0.000 C 
BRANCH   7   9
ATOM      8  C   UNL     1       6.400   4.822  14.658  0.00  0.00    +0.000 C 
ATOM      9  O   UNL     1       7.410   5.656  15.203  0.00  0.00    +0.000 OA
ENDBRANCH   7   9
ENDBRANCH   6   7
ENDBRANCH   5   6
ENDBRANCH   4   5
ENDBRANCH   3   4
ENDBRANCH   2   3
ENDBRANCH   1   2
BRANCH   1  10
ATOM     10  C   UNL     1       2.115   5.098  17.988  0.00  0.00    +0.000 C 
BRANCH  10  11
ATOM     11  O   UNL     1       1.712   3.779  17.621  0.00  0.00    +0.000 OA
BRANCH  11  12
ATOM     12  C   UNL     1       2.821   3.003  17.179  0.00  0.00    +0.000 C 
BRANCH  12  13
ATOM     13  C   UNL     1       3.119   1.929  18.217  0.00  0.00    +0.000 C 
BRANCH  13  14
ATOM     14  O   UNL     1       2.095   1.928  19.213  0.00  0.00    +0.000 OA
BRANCH  14  15
ATOM     15  C   UNL     1       2.601   2.408  20.464  0.00  0.00    +0.000 C 
BRANCH  15  16
ATOM     16  C   UNL     1       1.488   3.152  21.195  0.00  0.00    +0.000 C 
BRANCH  16  17
ATOM     17  O   UNL     1       0.361   3.325  20.341  0.00  0.00    +0.000 OA
ATOM     18  H   UNL     1       0.152   2.433  20.004  0.00  0.00    +0.000 HD
ENDBRANCH  16  17
ENDBRANCH  15  16
ENDBRANCH  14  15
ENDBRANCH  13  14
ENDBRANCH  12  13
ENDBRANCH  11  12
ENDBRANCH  10  11
ENDBRANCH   1  10
TORSDOF 15
ENDMDL
MODEL 4
REMARK VINA RESULT:      -4.3      2.102      3.568
REMARK  Name = 
REMARK  16 active torsions:
REMARK  status: ('A' for Active; 'I' for Inactive)
REMARK    1  A    between atoms: C_1  and  O_2
REMARK    2  A    between atoms: O_2  and  C_3
REMARK    3  A    between atoms: C_3  and  C_4
REMARK    4  A    between atoms: C_4  and  O_5
REMARK    5  A    between atoms: O_5  and  C_6
REMARK    6  A    between atoms: C_6  and  C_7
REMARK    7  A    between atoms: C_7  and  O_8
REMARK    8  A    between atoms: O_8  and  C_9
REMARK    9  A    between atoms: C_9  and  C_10
REMARK   10  A    between atoms: C_10  and  O_11
REMARK   11  A    between atoms: O_11  and  C_12
REMARK   12  A    between atoms: C_12  and  C_13
REMARK   13  A    between atoms: C_13  and  O_14
REMARK   14  A    between atoms: O_14  and  C_15
REMARK   15  A    between atoms: C_15  and  C_16
REMARK   16  A    between atoms: C_16  and  O_17
REMARK                            x       y       z     vdW  Elec       q    Type
REMARK                         _______ _______ _______ _____ _____    ______ ____
ROOT
ATOM      1  C   UNL     1       7.539   4.968  18.242  0.00  0.00    +0.000 C 
ENDROOT
BRANCH   1   2
ATOM      2  O   UNL     1       6.490   4.645  19.151  0.00  0.00    +0.000 OA
BRANCH   2   3
ATOM      3  C   UNL     1       5.401   5.558  19.033  0.00  0.00    +0.000 C 
BRANCH   3   4
ATOM      4  C   UNL     1       4.147   4.913  19.607  0.00  0.00    +0.000 C 
BRANCH   4   5
ATOM      5  O   UNL     1       3.125   4.915  18.614  0.00  0.00    +0.000 OA
BRANCH   5   6
ATOM      6  C   UNL     1       3.509   4.150  17.473  0.00  0.00    +0.000 C 
BRANCH   6   7
ATOM      7  C   UNL     1       2.471   3.063  17.231  0.00  0.00    +0.000 C 
BRANCH   7   9
ATOM      8  C   UNL     1       0.815   2.434  18.777  0.00  0.00    +0.000 C 
ATOM      9  O   UNL     1       1.244   3.431  17.863  0.00  0.00    +0.000 OA
ENDBRANCH   7   9
ENDBRANCH   6   7
ENDBRANCH   5   6
ENDBRANCH   4   5
ENDBRANCH   3   4
ENDBRANCH   2   3
ENDBRANCH   1   2
BRANCH   1  10
ATOM     10  C   UNL     1       7.189   6.262  17.523  0.00  0.00    +0.000 C 
BRANCH  10  11
ATOM     11  O   UNL     1       7.462   6.114  16.129  0.00  0.00    +0.000 OA
BRANCH  11  12
ATOM     12  C   UNL     1       6.505   5.268  15.501  0.00  0.00    +0.000 C 
BRANCH  12  13
ATOM     13  C   UNL     1       7.036   4.845  14.138  0.00  0.00    +0.000 C 
BRANCH  13  14
ATOM     14  O   UNL     1       6.335   3.685  13.688  0.00  0.00    +0.000 OA
BRANCH  14  15
ATOM     15  C   UNL     1       6.461   3.532  12.269  0.00  0.00    +0.000 C 
BRANCH  15  16
ATOM     16  C   UNL     1       5.374   2.584  11.775  0.00  0.00    +0.000 C 
BRANCH  16  17
ATOM     17  O   UNL     1       5.910   1.281  11.559  0.00  0.00    +0.000 OA
ATOM     18  H   UNL     1       5.470   0.950  10.754  0.00  0.00    +0.000 HD
ENDBRANCH  16  17
ENDBRANCH  15  16
ENDBRANCH  14  15
ENDBRANCH  13  14
ENDBRANCH  12  13
ENDBRANCH  11  12
ENDBRANCH  10  11
ENDBRANCH   1  10
TORSDOF 15
ENDMDL
MODEL 5
REMARK VINA RESULT:      -4.2      1.500      3.269
REMARK  Name = 
REMARK  16 active torsions:
REMARK  status: ('A' for Active; 'I' for Inactive)
REMARK    1  A    between atoms: C_1  and  O_2
REMARK    2  A    between atoms: O_2  and  C_3
REMARK    3  A    between atoms: C_3  and  C_4
REMARK    4  A    between atoms: C_4  and  O_5
REMARK    5  A    between atoms: O_5  and  C_6
REMARK    6  A    between atoms: C_6  and  C_7
REMARK    7  A    between atoms: C_7  and  O_8
REMARK    8  A    between atoms: O_8  and  C_9
REMARK    9  A    between atoms: C_9  and  C_10
REMARK   10  A    between atoms: C_10  and  O_11
REMARK   11  A    between atoms: O_11  and  C_12
REMARK   12  A    between atoms: C_12  and  C_13
REMARK   13  A    between atoms: C_13  and  O_14
REMARK   14  A    between atoms: O_14  and  C_15
REMARK   15  A    between atoms: C_15  and  C_16
REMARK   16  A    between atoms: C_16  and  O_17
REMARK                            x       y       z     vdW  Elec       q    Type
REMARK                         _______ _______ _______ _____ _____    ______ ____
ROOT
ATOM      1  C   UNL     1       3.956   5.932  17.468  0.00  0.00    +0.000 C 
ENDROOT
BRANCH   1   2
ATOM      2  O   UNL     1       3.671   5.567  18.816  0.00  0.00    +0.000 OA
BRANCH   2   3
ATOM      3  C   UNL     1       2.774   6.493  19.426  0.00  0.00    +0.000 C 
BRANCH   3   4
ATOM      4  C   UNL     1       1.980   5.776  20.508  0.00  0.00    +0.000 C 
BRANCH   4   5
ATOM      5  O   UNL     1       2.406   4.418  20.577  0.00  0.00    +0.000 OA
BRANCH   5   6
ATOM      6  C   UNL     1       1.296   3.523  20.525  0.00  0.00    +0.000 C 
BRANCH   6   7
ATOM      7  C   UNL     1       1.704   2.269  19.765  0.00  0.00    +0.000 C 
BRANCH   7   9
ATOM      8  C   UNL     1       3.420   1.654  18.280  0.00  0.00    +0.000 C 
ATOM      9  O   UNL     1       3.106   2.312  19.498  0.00  0.00    +0.000 OA
ENDBRANCH   7   9
ENDBRANCH   6   7
ENDBRANCH   5   6
ENDBRANCH   4   5
ENDBRANCH   3   4
ENDBRANCH   2   3
ENDBRANCH   1   2
BRANCH   1  10
ATOM     10  C   UNL     1       4.639   4.763  16.773  0.00  0.00    +0.000 C 
BRANCH  10  11
ATOM     11  O   UNL     1       5.122   5.190  15.500  0.00  0.00    +0.000 OA
BRANCH  11  12
ATOM     12  C   UNL     1       6.426   4.680  15.243  0.00  0.00    +0.000 C 
BRANCH  12  13
ATOM     13  C   UNL     1       7.298   4.910  16.470  0.00  0.00    +0.000 C 
BRANCH  13  14
ATOM     14  O   UNL     1       7.605   6.300  16.586  0.00  0.00    +0.000 OA
BRANCH  14  15
ATOM     15  C   UNL     1       7.550   6.721  17.955  0.00  0.00    +0.000 C 
BRANCH  15  16
ATOM     16  C   UNL     1       7.710   5.499  18.854  0.00  0.00    +0.000 C 
BRANCH  16  17
ATOM     17  O   UNL     1       6.662   5.450  19.819  0.00  0.00    +0.000 OA
ATOM     18  H   UNL     1       6.110   4.687  19.563  0.00  0.00    +0.000 HD
ENDBRANCH  16  17
ENDBRANCH  15  16
ENDBRANCH  14  15
ENDBRANCH  13  14
ENDBRANCH  12  13
ENDBRANCH  11  12
ENDBRANCH  10  11
ENDBRANCH   1  10
TORSDOF 15
ENDMDL
MODEL 6
REMARK VINA RESULT:      -4.0      1.471      2.747
REMARK  Name = 
REMARK  16 active torsions:
REMARK  status: ('A' for Active; 'I' for Inactive)
REMARK    1  A    between atoms: C_1  and  O_2
REMARK    2  A    between atoms: O_2  and  C_3
REMARK    3  A    between atoms: C_3  and  C_4
REMARK    4  A    between atoms: C_4  and  O_5
REMARK    5  A    between atoms: O_5  and  C_6
REMARK    6  A    between atoms: C_6  and  C_7
REMARK    7  A    between atoms: C_7  and  O_8
REMARK    8  A    between atoms: O_8  and  C_9
REMARK    9  A    between atoms: C_9  and  C_10
REMARK   10  A    between atoms: C_10  and  O_11
REMARK   11  A    between atoms: O_11  and  C_12
REMARK   12  A    between atoms: C_12  and  C_13
REMARK   13  A    between atoms: C_13  and  O_14
REMARK   14  A    between atoms: O_14  and  C_15
REMARK   15  A    between atoms: C_15  and  C_16
REMARK   16  A    between atoms: C_16  and  O_17
REMARK                            x       y       z     vdW  Elec       q    Type
REMARK                         _______ _______ _______ _____ _____    ______ ____
ROOT
ATOM      1  C   UNL     1       3.626   3.399  17.123  0.00  0.00    +0.000 C 
ENDROOT
BRANCH   1   2
ATOM      2  O   UNL     1       4.148   2.671  18.230  0.00  0.00    +0.000 OA
BRANCH   2   3
ATOM      3  C   UNL     1       3.188   1.753  18.748  0.00  0.00    +0.000 C 
BRANCH   3   4
ATOM      4  C   UNL     1       1.790   2.287  18.471  0.00  0.00    +0.000 C 
BRANCH   4   5
ATOM      5  O   UNL     1       1.140   2.559  19.710  0.00  0.00    +0.000 OA
BRANCH   5   6
ATOM      6  C   UNL     1       2.082   2.681  20.774  0.00  0.00    +0.000 C 
BRANCH   6   7
ATOM      7  C   UNL     1       2.014   4.093  21.338  0.00  0.00    +0.000 C 
BRANCH   7   9
ATOM      8  C   UNL     1       2.743   5.803  19.898  0.00  0.00    +0.000 C 
ATOM      9  O   UNL     1       1.643   5.001  20.299  0.00  0.00    +0.000 OA
ENDBRANCH   7   9
ENDBRANCH   6   7
ENDBRANCH   5   6
ENDBRANCH   4   5
ENDBRANCH   3   4
ENDBRANCH   2   3
ENDBRANCH   1   2
BRANCH   1  10
ATOM     10  C   UNL     1       4.705   4.330  16.589  0.00  0.00    +0.000 C 
BRANCH  10  11
ATOM     11  O   UNL     1       4.340   5.682  16.867  0.00  0.00    +0.000 OA
BRANCH  11  12
ATOM     12  C   UNL     1       5.352   6.589  16.440  0.00  0.00    +0.000 C 
BRANCH  12  13
ATOM     13  C   UNL     1       6.655   5.823  16.249  0.00  0.00    +0.000 C 
BRANCH  13  14
ATOM     14  O   UNL     1       7.738   6.579  16.792  0.00  0.00    +0.000 OA
BRANCH  14  15
ATOM     15  C   UNL     1       7.562   6.781  18.200  0.00  0.00    +0.000 C 
BRANCH  15  16
ATOM     16  C   UNL     1       7.658   5.434  18.909  0.00  0.00    +0.000 C 
BRANCH  16  17
ATOM     17  O   UNL     1       8.085   5.610  20.258  0.00  0.00    +0.000 OA
ATOM     18  H   UNL     1       8.704   4.875  20.431  0.00  0.00    +0.000 HD
ENDBRANCH  16  17
ENDBRANCH  15  16
ENDBRANCH  14  15
ENDBRANCH  13  14
ENDBRANCH  12  13
ENDBRANCH  11  12
ENDBRANCH  10  11
ENDBRANCH   1  10
TORSDOF 15
ENDMDL
MODEL 7
REMARK VINA RESULT:      -4.0      1.826      3.422
REMARK  Name = 
REMARK  16 active torsions:
REMARK  status: ('A' for Active; 'I' for Inactive)
REMARK    1  A    between atoms: C_1  and  O_2
REMARK    2  A    between atoms: O_2  and  C_3
REMARK    3  A    between atoms: C_3  and  C_4
REMARK    4  A    between atoms: C_4  and  O_5
REMARK    5  A    between atoms: O_5  and  C_6
REMARK    6  A    between atoms: C_6  and  C_7
REMARK    7  A    between atoms: C_7  and  O_8
REMARK    8  A    between atoms: O_8  and  C_9
REMARK    9  A    between atoms: C_9  and  C_10
REMARK   10  A    between atoms: C_10  and  O_11
REMARK   11  A    between atoms: O_11  and  C_12
REMARK   12  A    between atoms: C_12  and  C_13
REMARK   13  A    between atoms: C_13  and  O_14
REMARK   14  A    between atoms: O_14  and  C_15
REMARK   15  A    between atoms: C_15  and  C_16
REMARK   16  A    between atoms: C_16  and  O_17
REMARK                            x       y       z     vdW  Elec       q    Type
REMARK                         _______ _______ _______ _____ _____    ______ ____
ROOT
ATOM      1  C   UNL     1       3.118   6.403  18.312  0.00  0.00    +0.000 C 
ENDROOT
BRANCH   1   2
ATOM      2  O   UNL     1       3.348   5.833  19.598  0.00  0.00    +0.000 OA
BRANCH   2   3
ATOM      3  C   UNL     1       2.147   5.783  20.366  0.00  0.00    +0.000 C 
BRANCH   3   4
ATOM      4  C   UNL     1       2.070   4.441  21.080  0.00  0.00    +0.000 C 
BRANCH   4   5
ATOM      5  O   UNL     1       1.066   3.640  20.462  0.00  0.00    +0.000 OA
BRANCH   5   6
ATOM      6  C   UNL     1       1.639   2.526  19.780  0.00  0.00    +0.000 C 
BRANCH   6   7
ATOM      7  C   UNL     1       1.525   2.750  18.279  0.00  0.00    +0.000 C 
BRANCH   7   9
ATOM      8  C   UNL     1       3.512   1.525  18.556  0.00  0.00    +0.000 C 
ATOM      9  O   UNL     1       2.636   2.137  17.623  0.00  0.00    +0.000 OA
ENDBRANCH   7   9
ENDBRANCH   6   7
ENDBRANCH   5   6
ENDBRANCH   4   5
ENDBRANCH   3   4
ENDBRANCH   2   3
ENDBRANCH   1   2
BRANCH   1  10
ATOM     10  C   UNL     1       3.976   5.675  17.288  0.00  0.00    +0.000 C 
BRANCH  10  11
ATOM     11  O   UNL     1       4.919   4.846  17.968  0.00  0.00    +0.000 OA
BRANCH  11  12
ATOM     12  C   UNL     1       5.783   4.184  17.049  0.00  0.00    +0.000 C 
BRANCH  12  13
ATOM     13  C   UNL     1       7.190   4.746  17.202  0.00  0.00    +0.000 C 
BRANCH  13  14
ATOM     14  O   UNL     1       7.692   4.438  18.503  0.00  0.00    +0.000 OA
BRANCH  14  15
ATOM     15  C   UNL     1       8.066   5.632  19.201  0.00  0.00    +0.000 C 
BRANCH  15  16
ATOM     16  C   UNL     1       7.831   6.832  18.289  0.00  0.00    +0.000 C 
BRANCH  16  17
ATOM     17  O   UNL     1       8.529   7.974  18.779  0.00  0.00    +0.000 OA
ATOM     18  H   UNL     1       8.427   7.943  19.749  0.00  0.00    +0.000 HD
ENDBRANCH  16  17
ENDBRANCH  15  16
ENDBRANCH  14  15
ENDBRANCH  13  14
ENDBRANCH  12  13
ENDBRANCH  11  12
ENDBRANCH  10  11
ENDBRANCH   1  10
TORSDOF 15
ENDMDL
MODEL 8
REMARK VINA RESULT:      -4.0      1.889      2.526
REMARK  Name = 
REMARK  16 active torsions:
REMARK  status: ('A' for Active; 'I' for Inactive)
REMARK    1  A    between atoms: C_1  and  O_2
REMARK    2  A    between atoms: O_2  and  C_3
REMARK    3  A    between atoms: C_3  and  C_4
REMARK    4  A    between atoms: C_4  and  O_5
REMARK    5  A    between atoms: O_5  and  C_6
REMARK    6  A    between atoms: C_6  and  C_7
REMARK    7  A    between atoms: C_7  and  O_8
REMARK    8  A    between atoms: O_8  and  C_9
REMARK    9  A    between atoms: C_9  and  C_10
REMARK   10  A    between atoms: C_10  and  O_11
REMARK   11  A    between atoms: O_11  and  C_12
REMARK   12  A    between atoms: C_12  and  C_13
REMARK   13  A    between atoms: C_13  and  O_14
REMARK   14  A    between atoms: O_14  and  C_15
REMARK   15  A    between atoms: C_15  and  C_16
REMARK   16  A    between atoms: C_16  and  O_17
REMARK                            x       y       z     vdW  Elec       q    Type
REMARK                         _______ _______ _______ _____ _____    ______ ____
ROOT
ATOM      1  C   UNL     1       4.550   5.546  18.612  0.00  0.00    +0.000 C 
ENDROOT
BRANCH   1   2
ATOM      2  O   UNL     1       3.455   5.710  17.716  0.00  0.00    +0.000 OA
BRANCH   2   3
ATOM      3  C   UNL     1       2.410   6.481  18.307  0.00  0.00    +0.000 C 
BRANCH   3   4
ATOM      4  C   UNL     1       2.702   6.659  19.789  0.00  0.00    +0.000 C 
BRANCH   4   5
ATOM      5  O   UNL     1       1.638   6.088  20.546  0.00  0.00    +0.000 OA
BRANCH   5   6
ATOM      6  C   UNL     1       1.925   4.739  20.909  0.00  0.00    +0.000 C 
BRANCH   6   7
ATOM      7  C   UNL     1       0.907   3.820  20.248  0.00  0.00    +0.000 C 
BRANCH   7   9
ATOM      8  C   UNL     1       2.904   2.582  20.156  0.00  0.00    +0.000 C 
ATOM      9  O   UNL     1       1.587   2.717  19.646  0.00  0.00    +0.000 OA
ENDBRANCH   7   9
ENDBRANCH   6   7
ENDBRANCH   5   6
ENDBRANCH   4   5
ENDBRANCH   3   4
ENDBRANCH   2   3
ENDBRANCH   1   2
BRANCH   1  10
ATOM     10  C   UNL     1       5.366   4.336  18.181  0.00  0.00    +0.000 C 
BRANCH  10  11
ATOM     11  O   UNL     1       6.680   4.435  18.730  0.00  0.00    +0.000 OA
BRANCH  11  12
ATOM     12  C   UNL     1       7.648   4.678  17.715  0.00  0.00    +0.000 C 
BRANCH  12  13
ATOM     13  C   UNL     1       7.002   4.463  16.353  0.00  0.00    +0.000 C 
BRANCH  13  14
ATOM     14  O   UNL     1       7.602   5.336  15.394  0.00  0.00    +0.000 OA
BRANCH  14  15
ATOM     15  C   UNL     1       7.117   5.054  14.075  0.00  0.00    +0.000 C 
BRANCH  15  16
ATOM     16  C   UNL     1       6.286   3.775  14.117  0.00  0.00    +0.000 C 
BRANCH  16  17
ATOM     17  O   UNL     1       6.234   3.173  12.826  0.00  0.00    +0.000 OA
ATOM     18  H   UNL     1       7.164   3.014  12.577  0.00  0.00    +0.000 HD
ENDBRANCH  16  17
ENDBRANCH  15  16
ENDBRANCH  14  15
ENDBRANCH  13  14
ENDBRANCH  12  13
ENDBRANCH  11  12
ENDBRANCH  10  11
ENDBRANCH   1  10
TORSDOF 15
ENDMDL
MODEL 9
REMARK VINA RESULT:      -4.0      1.478      2.928
REMARK  Name = 
REMARK  16 active torsions:
REMARK  status: ('A' for Active; 'I' for Inactive)
REMARK    1  A    between atoms: C_1  and  O_2
REMARK    2  A    between atoms: O_2  and  C_3
REMARK    3  A    between atoms: C_3  and  C_4
REMARK    4  A    between atoms: C_4  and  O_5
REMARK    5  A    between atoms: O_5  and  C_6
REMARK    6  A    between atoms: C_6  and  C_7
REMARK    7  A    between atoms: C_7  and  O_8
REMARK    8  A    between atoms: O_8  and  C_9
REMARK    9  A    between atoms: C_9  and  C_10
REMARK   10  A    between atoms: C_10  and  O_11
REMARK   11  A    between atoms: O_11  and  C_12
REMARK   12  A    between atoms: C_12  and  C_13
REMARK   13  A    between atoms: C_13  and  O_14
REMARK   14  A    between atoms: O_14  and  C_15
REMARK   15  A    between atoms: C_15  and  C_16
REMARK   16  A    between atoms: C_16  and  O_17
REMARK                            x       y       z     vdW  Elec       q    Type
REMARK                         _______ _______ _______ _____ _____    ______ ____
ROOT
ATOM      1  C   UNL     1       3.779   3.798  17.813  0.00  0.00    +0.000 C 
ENDROOT
BRANCH   1   2
ATOM      2  O   UNL     1       2.402   3.466  17.659  0.00  0.00    +0.000 OA
BRANCH   2   3
ATOM      3  C   UNL     1       2.147   2.116  18.040  0.00  0.00    +0.000 C 
BRANCH   3   4
ATOM      4  C   UNL     1       2.284   1.992  19.551  0.00  0.00    +0.000 C 
BRANCH   4   5
ATOM      5  O   UNL     1       1.161   2.611  20.173  0.00  0.00    +0.000 OA
BRANCH   5   6
ATOM      6  C   UNL     1       1.505   3.144  21.450  0.00  0.00    +0.000 C 
BRANCH   6   7
ATOM      7  C   UNL     1       2.279   4.440  21.255  0.00  0.00    +0.000 C 
BRANCH   7   9
ATOM      8  C   UNL     1       2.347   6.360  19.900  0.00  0.00    +0.000 C 
ATOM      9  O   UNL     1       1.533   5.314  20.406  0.00  0.00    +0.000 OA
ENDBRANCH   7   9
ENDBRANCH   6   7
ENDBRANCH   5   6
ENDBRANCH   4   5
ENDBRANCH   3   4
ENDBRANCH   2   3
ENDBRANCH   1   2
BRANCH   1  10
ATOM     10  C   UNL     1       4.296   4.384  16.508  0.00  0.00    +0.000 C 
BRANCH  10  11
ATOM     11  O   UNL     1       5.449   3.653  16.089  0.00  0.00    +0.000 OA
BRANCH  11  12
ATOM     12  C   UNL     1       6.538   4.525  15.803  0.00  0.00    +0.000 C 
BRANCH  12  13
ATOM     13  C   UNL     1       7.516   4.495  16.970  0.00  0.00    +0.000 C 
BRANCH  13  14
ATOM     14  O   UNL     1       7.848   5.830  17.352  0.00  0.00    +0.000 OA
BRANCH  14  15
ATOM     15  C   UNL     1       6.860   6.365  18.243  0.00  0.00    +0.000 C 
BRANCH  15  16
ATOM     16  C   UNL     1       6.701   5.419  19.429  0.00  0.00    +0.000 C 
BRANCH  16  17
ATOM     17  O   UNL     1       7.808   5.546  20.319  0.00  0.00    +0.000 OA
ATOM     18  H   UNL     1       7.817   4.721  20.840  0.00  0.00    +0.000 HD
ENDBRANCH  16  17
ENDBRANCH  15  16
ENDBRANCH  14  15
ENDBRANCH  13  14
ENDBRANCH  12  13
ENDBRANCH  11  12
ENDBRANCH  10  11
ENDBRANCH   1  10
TORSDOF 15
ENDMDL
