MODEL 1
REMARK VINA RESULT:      -7.8      0.000      0.000
REMARK  Name = 
REMARK  9 active torsions:
REMARK  status: ('A' for Active; 'I' for Inactive)
REMARK    1  A    between atoms: C_1  and  O_2
REMARK    2  A    between atoms: O_2  and  C_3
REMARK    3  A    between atoms: C_5  and  N_6
REMARK    4  A    between atoms: N_6  and  C_7
REMARK    5  A    between atoms: C_8  and  C_9
REMARK    6  A    between atoms: C_8  and  C_12
REMARK    7  A    between atoms: C_9  and  C_10
REMARK    8  A    between atoms: C_19  and  O_20
REMARK    9  A    between atoms: O_20  and  C_21
REMARK                            x       y       z     vdW  Elec       q    Type
REMARK                         _______ _______ _______ _____ _____    ______ ____
ROOT
ATOM      1  N   UNL     1       4.661   3.531  17.545  0.00  0.00    +0.000 N 
ATOM      2  H   UNL     1       4.835   2.676  18.060  0.00  0.00    +0.000 HD
ENDROOT
BRANCH   1   5
ATOM      3  C   UNL     1       2.576   5.215  20.153  0.00  0.00    +0.000 A 
ATOM      4  C   UNL     1       3.331   4.234  19.502  0.00  0.00    +0.000 A 
ATOM      5  C   UNL     1       3.930   4.489  18.267  0.00  0.00    +0.000 A 
ATOM      6  C   UNL     1       3.772   5.764  17.706  0.00  0.00    +0.000 A 
ATOM      7  C   UNL     1       3.020   6.754  18.342  0.00  0.00    +0.000 A 
ATOM      8  C   UNL     1       2.413   6.472  19.565  0.00  0.00    +0.000 A 
BRANCH   3  10
ATOM      9  C   UNL     1       2.078   3.432  21.644  0.00  0.00    +0.000 C 
ATOM     10  O   UNL     1       2.054   4.825  21.359  0.00  0.00    +0.000 OA
ENDBRANCH   3  10
BRANCH   7  11
ATOM     11  O   UNL     1       2.957   7.942  17.667  0.00  0.00    +0.000 OA
ATOM     12  C   UNL     1       1.802   8.743  17.880  0.00  0.00    +0.000 C 
ENDBRANCH   7  11
ENDBRANCH   1   5
BRANCH   1  13
ATOM     13  C   UNL     1       5.254   3.645  16.316  0.00  0.00    +0.000 C 
ATOM     14  C   UNL     1       6.396   4.263  15.952  0.00  0.00    +0.000 C 
BRANCH  14  15
ATOM     15  C   UNL     1       6.656   4.375  14.498  0.00  0.00    +0.000 A 
ATOM     16  C   UNL     1       5.966   3.554  13.594  0.00  0.00    +0.000 A 
ATOM     17  C   UNL     1       6.243   3.609  12.227  0.00  0.00    +0.000 A 
ATOM     18  C   UNL     1       7.213   4.482  11.748  0.00  0.00    +0.000 A 
ATOM     19  C   UNL     1       7.903   5.311  12.635  0.00  0.00    +0.000 A 
ATOM     20  C   UNL     1       7.626   5.258  14.006  0.00  0.00    +0.000 A 
ENDBRANCH  14  15
BRANCH  14  21
ATOM     21  C   UNL     1       7.374   4.871  16.924  0.00  0.00    +0.000 C 
ATOM     22  C   UNL     1       7.276   6.332  17.301  0.00  0.00    +0.000 C 
ATOM     23  O   UNL     1       8.260   4.177  17.419  0.00  0.00    +0.000 OA
ENDBRANCH  14  21
ENDBRANCH   1  13
TORSDOF 6
ENDMDL
MODEL 2
REMARK VINA RESULT:      -7.7      0.148      2.858
REMARK  Name = 
REMARK  9 active torsions:
REMARK  status: ('A' for Active; 'I' for Inactive)
REMARK    1  A    between atoms: C_1  and  O_2
REMARK    2  A    between atoms: O_2  and  C_3
REMARK    3  A    between atoms: C_5  and  N_6
REMARK    4  A    between atoms: N_6  and  C_7
REMARK    5  A    between atoms: C_8  and  C_9
REMARK    6  A    between atoms: C_8  and  C_12
REMARK    7  A    between atoms: C_9  and  C_10
REMARK    8  A    between atoms: C_19  and  O_20
REMARK    9  A    between atoms: O_20  and  C_21
REMARK                            x       y       z     vdW  Elec       q    Type
REMARK                         _______ _______ _______ _____ _____    ______ ____
ROOT
ATOM      1  N   UNL     1       4.593   3.602  17.561  0.00  0.00    +0.000 N 
ATOM      2  H   UNL     1       4.775   2.785  18.132  0.00  0.00    +0.000 HD
ENDROOT
BRANCH   1   5
ATOM      3  C   UNL     1       2.897   6.825  18.408  0.00  0.00    +0.000 A 
ATOM      4  C   UNL     1       3.637   5.873  17.700  0.00  0.00    +0.000 A 
ATOM      5  C   UNL     1       3.823   4.584  18.204  0.00  0.00    +0.000 A 
ATOM      6  C   UNL     1       3.228   4.263  19.432  0.00  0.00    +0.000 A 
ATOM      7  C   UNL     1       2.488   5.201  20.153  0.00  0.00    +0.000 A 
ATOM      8  C   UNL     1       2.331   6.488  19.641  0.00  0.00    +0.000 A 
BRANCH   3  10
ATOM      9  C   UNL     1       1.829   8.946  18.315  0.00  0.00    +0.000 C 
ATOM     10  O   UNL     1       2.793   8.042  17.789  0.00  0.00    +0.000 OA
ENDBRANCH   3  10
BRANCH   7  11
ATOM     11  O   UNL     1       1.976   4.737  21.334  0.00  0.00    +0.000 OA
ATOM     12  C   UNL     1       2.187   3.363  21.631  0.00  0.00    +0.000 C 
ENDBRANCH   7  11
ENDBRANCH   1   5
BRANCH   1  13
ATOM     13  C   UNL     1       5.213   3.654  16.340  0.00  0.00    +0.000 C 
ATOM     14  C   UNL     1       6.372   4.238  15.975  0.00  0.00    +0.000 C 
BRANCH  14  15
ATOM     15  C   UNL     1       6.664   4.284  14.523  0.00  0.00    +0.000 A 
ATOM     16  C   UNL     1       7.606   5.195  14.022  0.00  0.00    +0.000 A 
ATOM     17  C   UNL     1       7.847   5.288  12.650  0.00  0.00    +0.000 A 
ATOM     18  C   UNL     1       7.148   4.477  11.763  0.00  0.00    +0.000 A 
ATOM     19  C   UNL     1       6.213   3.561  12.249  0.00  0.00    +0.000 A 
ATOM     20  C   UNL     1       5.970   3.465  13.623  0.00  0.00    +0.000 A 
ENDBRANCH  14  15
BRANCH  14  21
ATOM     21  C   UNL     1       7.340   4.873  16.941  0.00  0.00    +0.000 C 
ATOM     22  C   UNL     1       7.219   6.337  17.299  0.00  0.00    +0.000 C 
ATOM     23  O   UNL     1       8.234   4.199  17.445  0.00  0.00    +0.000 OA
ENDBRANCH  14  21
ENDBRANCH   1  13
TORSDOF 6
ENDMDL
MODEL 3
REMARK VINA RESULT:      -7.4      1.491      2.666
REMARK  Name = 
REMARK  9 active torsions:
REMARK  status: ('A' for Active; 'I' for Inactive)
REMARK    1  A    between atoms: C_1  and  O_2
REMARK    2  A    between atoms: O_2  and  C_3
REMARK    3  A    between atoms: C_5  and  N_6
REMARK    4  A    between atoms: N_6  and  C_7
REMARK    5  A    between atoms: C_8  and  C_9
REMARK    6  A    between atoms: C_8  and  C_12
REMARK    7  A    between atoms: C_9  and  C_10
REMARK    8  A    between atoms: C_19  and  O_20
REMARK    9  A    between atoms: O_20  and  C_21
REMARK                            x       y       z     vdW  Elec       q    Type
REMARK                         _______ _______ _______ _____ _____    ______ ____
ROOT
ATOM      1  N   UNL     1       4.291   6.373  17.265  0.00  0.00    +0.000 N 
ATOM      2  H   UNL     1       4.344   7.385  17.296  0.00  0.00    +0.000 HD
ENDROOT
BRANCH   1   5
ATOM      3  C   UNL     1       2.085   5.952  20.255  0.00  0.00    +0.000 A 
ATOM      4  C   UNL     1       2.768   6.562  19.198  0.00  0.00    +0.000 A 
ATOM      5  C   UNL     1       3.547   5.811  18.315  0.00  0.00    +0.000 A 
ATOM      6  C   UNL     1       3.609   4.424  18.504  0.00  0.00    +0.000 A 
ATOM      7  C   UNL     1       2.935   3.799  19.555  0.00  0.00    +0.000 A 
ATOM      8  C   UNL     1       2.179   4.570  20.438  0.00  0.00    +0.000 A 
BRANCH   3  10
ATOM      9  C   UNL     1       1.454   8.195  20.721  0.00  0.00    +0.000 C 
ATOM     10  O   UNL     1       1.357   6.812  21.034  0.00  0.00    +0.000 OA
ENDBRANCH   3  10
BRANCH   7  11
ATOM     11  O   UNL     1       3.098   2.442  19.609  0.00  0.00    +0.000 OA
ATOM     12  C   UNL     1       3.341   1.773  18.378  0.00  0.00    +0.000 C 
ENDBRANCH   7  11
ENDBRANCH   1   5
BRANCH   1  13
ATOM     13  C   UNL     1       4.836   5.758  16.169  0.00  0.00    +0.000 C 
ATOM     14  C   UNL     1       6.109   5.390  15.919  0.00  0.00    +0.000 C 
BRANCH  14  15
ATOM     15  C   UNL     1       6.407   4.925  14.543  0.00  0.00    +0.000 A 
ATOM     16  C   UNL     1       5.619   3.928  13.951  0.00  0.00    +0.000 A 
ATOM     17  C   UNL     1       5.925   3.440  12.679  0.00  0.00    +0.000 A 
ATOM     18  C   UNL     1       7.021   3.941  11.986  0.00  0.00    +0.000 A 
ATOM     19  C   UNL     1       7.809   4.940  12.560  0.00  0.00    +0.000 A 
ATOM     20  C   UNL     1       7.505   5.431  13.835  0.00  0.00    +0.000 A 
ENDBRANCH  14  15
BRANCH  14  21
ATOM     21  C   UNL     1       7.226   5.470  16.927  0.00  0.00    +0.000 C 
ATOM     22  C   UNL     1       7.569   6.784  17.592  0.00  0.00    +0.000 C 
ATOM     23  O   UNL     1       7.864   4.460  17.217  0.00  0.00    +0.000 OA
ENDBRANCH  14  21
ENDBRANCH   1  13
TORSDOF 6
ENDMDL
MODEL 4
REMARK VINA RESULT:      -7.2      1.385      2.951
REMARK  Name = 
REMARK  9 active torsions:
REMARK  status: ('A' for Active; 'I' for Inactive)
REMARK    1  A    between atoms: C_1  and  O_2
REMARK    2  A    between atoms: O_2  and  C_3
REMARK    3  A    between atoms: C_5  and  N_6
REMARK    4  A    between atoms: N_6  and  C_7
REMARK    5  A    between atoms: C_8  and  C_9
REMARK    6  A    between atoms: C_8  and  C_12
REMARK    7  A    between atoms: C_9  and  C_10
REMARK    8  A    between atoms: C_19  and  O_20
REMARK    9  A    between atoms: O_20  and  C_21
REMARK                            x       y       z     vdW  Elec       q    Type
REMARK                         _______ _______ _______ _____ _____    ______ ____
ROOT
ATOM      1  N   UNL     1       5.559   3.938  18.114  0.00  0.00    +0.000 N 
ATOM      2  H   UNL     1       6.263   3.704  18.805  0.00  0.00    +0.000 HD
ENDROOT
BRANCH   1   5
ATOM      3  C   UNL     1       2.644   5.957  19.300  0.00  0.00    +0.000 A 
ATOM      4  C   UNL     1       3.863   5.633  18.694  0.00  0.00    +0.000 A 
ATOM      5  C   UNL     1       4.325   4.316  18.666  0.00  0.00    +0.000 A 
ATOM      6  C   UNL     1       3.523   3.321  19.244  0.00  0.00    +0.000 A 
ATOM      7  C   UNL     1       2.306   3.628  19.854  0.00  0.00    +0.000 A 
ATOM      8  C   UNL     1       1.872   4.952  19.889  0.00  0.00    +0.000 A 
BRANCH   3  10
ATOM      9  C   UNL     1       2.666   7.981  18.054  0.00  0.00    +0.000 C 
ATOM     10  O   UNL     1       2.316   7.286  19.245  0.00  0.00    +0.000 OA
ENDBRANCH   3  10
BRANCH   7  11
ATOM     11  O   UNL     1       1.643   2.550  20.375  0.00  0.00    +0.000 OA
ATOM     12  C   UNL     1       1.481   2.514  21.787  0.00  0.00    +0.000 C 
ENDBRANCH   7  11
ENDBRANCH   1   5
BRANCH   1  13
ATOM     13  C   UNL     1       5.961   3.958  16.804  0.00  0.00    +0.000 C 
ATOM     14  C   UNL     1       6.268   4.997  16.002  0.00  0.00    +0.000 C 
BRANCH  14  15
ATOM     15  C   UNL     1       6.473   4.690  14.567  0.00  0.00    +0.000 A 
ATOM     16  C   UNL     1       5.638   3.767  13.919  0.00  0.00    +0.000 A 
ATOM     17  C   UNL     1       5.857   3.425  12.583  0.00  0.00    +0.000 A 
ATOM     18  C   UNL     1       6.910   3.998  11.881  0.00  0.00    +0.000 A 
ATOM     19  C   UNL     1       7.744   4.924  12.511  0.00  0.00    +0.000 A 
ATOM     20  C   UNL     1       7.527   5.269  13.850  0.00  0.00    +0.000 A 
ENDBRANCH  14  15
BRANCH  14  21
ATOM     21  C   UNL     1       6.364   6.426  16.470  0.00  0.00    +0.000 C 
ATOM     22  C   UNL     1       7.455   6.850  17.428  0.00  0.00    +0.000 C 
ATOM     23  O   UNL     1       5.553   7.258  16.071  0.00  0.00    +0.000 OA
ENDBRANCH  14  21
ENDBRANCH   1  13
TORSDOF 6
ENDMDL
MODEL 5
REMARK VINA RESULT:      -7.2      1.584      1.685
REMARK  Name = 
REMARK  9 active torsions:
REMARK  status: ('A' for Active; 'I' for Inactive)
REMARK    1  A    between atoms: C_1  and  O_2
REMARK    2  A    between atoms: O_2  and  C_3
REMARK    3  A    between atoms: C_5  and  N_6
REMARK    4  A    between atoms: N_6  and  C_7
REMARK    5  A    between atoms: C_8  and  C_9
REMARK    6  A    between atoms: C_8  and  C_12
REMARK    7  A    between atoms: C_9  and  C_10
REMARK    8  A    between atoms: C_19  and  O_20
REMARK    9  A    between atoms: O_20  and  C_21
REMARK                            x       y       z     vdW  Elec       q    Type
REMARK                         _______ _______ _______ _____ _____    ______ ____
ROOT
ATOM      1  N   UNL     1       5.942   4.037  18.329  0.00  0.00    +0.000 N 
ATOM      2  H   UNL     1       6.708   3.941  18.986  0.00  0.00    +0.000 HD
ENDROOT
BRANCH   1   5
ATOM      3  C   UNL     1       2.644   3.506  20.008  0.00  0.00    +0.000 A 
ATOM      4  C   UNL     1       3.899   3.233  19.454  0.00  0.00    +0.000 A 
ATOM      5  C   UNL     1       4.696   4.256  18.937  0.00  0.00    +0.000 A 
ATOM      6  C   UNL     1       4.213   5.570  19.008  0.00  0.00    +0.000 A 
ATOM      7  C   UNL     1       2.962   5.860  19.555  0.00  0.00    +0.000 A 
ATOM      8  C   UNL     1       2.173   4.821  20.047  0.00  0.00    +0.000 A 
BRANCH   3  10
ATOM      9  C   UNL     1       1.455   2.495  21.800  0.00  0.00    +0.000 C 
ATOM     10  O   UNL     1       1.978   2.406  20.481  0.00  0.00    +0.000 OA
ENDBRANCH   3  10
BRANCH   7  11
ATOM     11  O   UNL     1       2.631   7.188  19.547  0.00  0.00    +0.000 OA
ATOM     12  C   UNL     1       1.683   7.621  20.514  0.00  0.00    +0.000 C 
ENDBRANCH   7  11
ENDBRANCH   1   5
BRANCH   1  13
ATOM     13  C   UNL     1       6.268   4.056  16.998  0.00  0.00    +0.000 C 
ATOM     14  C   UNL     1       6.431   5.096  16.155  0.00  0.00    +0.000 C 
BRANCH  14  15
ATOM     15  C   UNL     1       6.585   4.766  14.718  0.00  0.00    +0.000 A 
ATOM     16  C   UNL     1       5.747   3.814  14.121  0.00  0.00    +0.000 A 
ATOM     17  C   UNL     1       5.919   3.453  12.783  0.00  0.00    +0.000 A 
ATOM     18  C   UNL     1       6.931   4.035  12.029  0.00  0.00    +0.000 A 
ATOM     19  C   UNL     1       7.768   4.991  12.609  0.00  0.00    +0.000 A 
ATOM     20  C   UNL     1       7.597   5.355  13.949  0.00  0.00    +0.000 A 
ENDBRANCH  14  15
BRANCH  14  21
ATOM     21  C   UNL     1       6.417   6.541  16.582  0.00  0.00    +0.000 C 
ATOM     22  C   UNL     1       7.496   7.085  17.492  0.00  0.00    +0.000 C 
ATOM     23  O   UNL     1       5.524   7.287  16.188  0.00  0.00    +0.000 OA
ENDBRANCH  14  21
ENDBRANCH   1  13
TORSDOF 6
ENDMDL
MODEL 6
REMARK VINA RESULT:      -7.1      1.445      1.933
REMARK  Name = 
REMARK  9 active torsions:
REMARK  status: ('A' for Active; 'I' for Inactive)
REMARK    1  A    between atoms: C_1  and  O_2
REMARK    2  A    between atoms: O_2  and  C_3
REMARK    3  A    between atoms: C_5  and  N_6
REMARK    4  A    between atoms: N_6  and  C_7
REMARK    5  A    between atoms: C_8  and  C_9
REMARK    6  A    between atoms: C_8  and  C_12
REMARK    7  A    between atoms: C_9  and  C_10
REMARK    8  A    between atoms: C_19  and  O_20
REMARK    9  A    between atoms: O_20  and  C_21
REMARK                            x       y       z     vdW  Elec       q    Type
REMARK                         _______ _______ _______ _____ _____    ______ ____
ROOT
ATOM      1  N   UNL     1       4.326   6.640  17.249  0.00  0.00    +0.000 N 
ATOM      2  H   UNL     1       4.364   7.651  17.182  0.00  0.00    +0.000 HD
ENDROOT
BRANCH   1   5
ATOM      3  C   UNL     1       2.883   4.424  19.892  0.00  0.00    +0.000 A 
ATOM      4  C   UNL     1       3.646   4.843  18.798  0.00  0.00    +0.000 A 
ATOM      5  C   UNL     1       3.618   6.171  18.367  0.00  0.00    +0.000 A 
ATOM      6  C   UNL     1       2.820   7.080  19.076  0.00  0.00    +0.000 A 
ATOM      7  C   UNL     1       2.050   6.677  20.169  0.00  0.00    +0.000 A 
ATOM      8  C   UNL     1       2.077   5.342  20.570  0.00  0.00    +0.000 A 
BRANCH   3  10
ATOM      9  C   UNL     1       2.104   2.572  21.161  0.00  0.00    +0.000 C 
ATOM     10  O   UNL     1       3.015   3.096  20.204  0.00  0.00    +0.000 OA
ENDBRANCH   3  10
BRANCH   7  11
ATOM     11  O   UNL     1       1.322   7.679  20.752  0.00  0.00    +0.000 OA
ATOM     12  C   UNL     1       1.254   8.915  20.054  0.00  0.00    +0.000 C 
ENDBRANCH   7  11
ENDBRANCH   1   5
BRANCH   1  13
ATOM     13  C   UNL     1       4.855   5.930  16.203  0.00  0.00    +0.000 C 
ATOM     14  C   UNL     1       6.112   5.487  15.997  0.00  0.00    +0.000 C 
BRANCH  14  15
ATOM     15  C   UNL     1       6.404   4.921  14.658  0.00  0.00    +0.000 A 
ATOM     16  C   UNL     1       7.508   5.382  13.925  0.00  0.00    +0.000 A 
ATOM     17  C   UNL     1       7.760   4.899  12.640  0.00  0.00    +0.000 A 
ATOM     18  C   UNL     1       6.914   3.953  12.072  0.00  0.00    +0.000 A 
ATOM     19  C   UNL     1       5.816   3.480  12.794  0.00  0.00    +0.000 A 
ATOM     20  C   UNL     1       5.561   3.962  14.082  0.00  0.00    +0.000 A 
ENDBRANCH  14  15
BRANCH  14  21
ATOM     21  C   UNL     1       7.218   5.579  17.015  0.00  0.00    +0.000 C 
ATOM     22  C   UNL     1       7.575   6.907  17.646  0.00  0.00    +0.000 C 
ATOM     23  O   UNL     1       7.838   4.569  17.341  0.00  0.00    +0.000 OA
ENDBRANCH  14  21
ENDBRANCH   1  13
TORSDOF 6
ENDMDL
MODEL 7
REMARK VINA RESULT:      -7.0      1.494      1.690
REMARK  Name = 
REMARK  9 active torsions:
REMARK  status: ('A' for Active; 'I' for Inactive)
REMARK    1  A    between atoms: C_1  and  O_2
REMARK    2  A    between atoms: O_2  and  C_3
REMARK    3  A    between atoms: C_5  and  N_6
REMARK    4  A    between atoms: N_6  and  C_7
REMARK    5  A    between atoms: C_8  and  C_9
REMARK    6  A    between atoms: C_8  and  C_12
REMARK    7  A    between atoms: C_9  and  C_10
REMARK    8  A    between atoms: C_19  and  O_20
REMARK    9  A    between atoms: O_20  and  C_21
REMARK                            x       y       z     vdW  Elec       q    Type
REMARK                         _______ _______ _______ _____ _____    ______ ____
ROOT
ATOM      1  N   UNL     1       4.379   6.602  17.331  0.00  0.00    +0.000 N 
ATOM      2  H   UNL     1       4.553   7.600  17.373  0.00  0.00    +0.000 HD
ENDROOT
BRANCH   1   5
ATOM      3  C   UNL     1       2.407   4.362  19.584  0.00  0.00    +0.000 A 
ATOM      4  C   UNL     1       3.285   4.774  18.576  0.00  0.00    +0.000 A 
ATOM      5  C   UNL     1       3.544   6.128  18.355  0.00  0.00    +0.000 A 
ATOM      6  C   UNL     1       2.915   7.065  19.187  0.00  0.00    +0.000 A 
ATOM      7  C   UNL     1       2.035   6.672  20.196  0.00  0.00    +0.000 A 
ATOM      8  C   UNL     1       1.775   5.316  20.387  0.00  0.00    +0.000 A 
BRANCH   3  10
ATOM      9  C   UNL     1       1.730   2.513  20.915  0.00  0.00    +0.000 C 
ATOM     10  O   UNL     1       2.256   3.005  19.688  0.00  0.00    +0.000 OA
ENDBRANCH   3  10
BRANCH   7  11
ATOM     11  O   UNL     1       1.500   7.703  20.919  0.00  0.00    +0.000 OA
ATOM     12  C   UNL     1       1.135   8.873  20.198  0.00  0.00    +0.000 C 
ENDBRANCH   7  11
ENDBRANCH   1   5
BRANCH   1  13
ATOM     13  C   UNL     1       4.877   5.932  16.244  0.00  0.00    +0.000 C 
ATOM     14  C   UNL     1       6.122   5.477  15.996  0.00  0.00    +0.000 C 
BRANCH  14  15
ATOM     15  C   UNL     1       6.381   4.968  14.628  0.00  0.00    +0.000 A 
ATOM     16  C   UNL     1       5.526   4.014  14.058  0.00  0.00    +0.000 A 
ATOM     17  C   UNL     1       5.793   3.484  12.795  0.00  0.00    +0.000 A 
ATOM     18  C   UNL     1       6.916   3.898  12.088  0.00  0.00    +0.000 A 
ATOM     19  C   UNL     1       7.771   4.854  12.640  0.00  0.00    +0.000 A 
ATOM     20  C   UNL     1       7.506   5.387  13.906  0.00  0.00    +0.000 A 
ENDBRANCH  14  15
BRANCH  14  21
ATOM     21  C   UNL     1       7.247   5.504  16.998  0.00  0.00    +0.000 C 
ATOM     22  C   UNL     1       7.629   6.792  17.692  0.00  0.00    +0.000 C 
ATOM     23  O   UNL     1       7.861   4.472  17.258  0.00  0.00    +0.000 OA
ENDBRANCH  14  21
ENDBRANCH   1  13
TORSDOF 6
ENDMDL
MODEL 8
REMARK VINA RESULT:      -7.0      1.440      1.885
REMARK  Name = 
REMARK  9 active torsions:
REMARK  status: ('A' for Active; 'I' for Inactive)
REMARK    1  A    between atoms: C_1  and  O_2
REMARK    2  A    between atoms: O_2  and  C_3
REMARK    3  A    between atoms: C_5  and  N_6
REMARK    4  A    between atoms: N_6  and  C_7
REMARK    5  A    between atoms: C_8  and  C_9
REMARK    6  A    between atoms: C_8  and  C_12
REMARK    7  A    between atoms: C_9  and  C_10
REMARK    8  A    between atoms: C_19  and  O_20
REMARK    9  A    between atoms: O_20  and  C_21
REMARK                            x       y       z     vdW  Elec       q    Type
REMARK                         _______ _______ _______ _____ _____    ______ ____
ROOT
ATOM      1  N   UNL     1       6.064   3.964  18.186  0.00  0.00    +0.000 N 
ATOM      2  H   UNL     1       6.820   3.935  18.861  0.00  0.00    +0.000 HD
ENDROOT
BRANCH   1   5
ATOM      3  C   UNL     1       3.002   3.382  20.253  0.00  0.00    +0.000 A 
ATOM      4  C   UNL     1       4.297   3.232  19.746  0.00  0.00    +0.000 A 
ATOM      5  C   UNL     1       4.791   4.094  18.765  0.00  0.00    +0.000 A 
ATOM      6  C   UNL     1       3.960   5.130  18.317  0.00  0.00    +0.000 A 
ATOM      7  C   UNL     1       2.665   5.294  18.811  0.00  0.00    +0.000 A 
ATOM      8  C   UNL     1       2.184   4.410  19.775  0.00  0.00    +0.000 A 
BRANCH   3  10
ATOM      9  C   UNL     1       1.380   2.630  21.819  0.00  0.00    +0.000 C 
ATOM     10  O   UNL     1       2.657   2.469  21.214  0.00  0.00    +0.000 OA
ENDBRANCH   3  10
BRANCH   7  11
ATOM     11  O   UNL     1       1.979   6.348  18.272  0.00  0.00    +0.000 OA
ATOM     12  C   UNL     1       2.585   7.630  18.373  0.00  0.00    +0.000 C 
ENDBRANCH   7  11
ENDBRANCH   1   5
BRANCH   1  13
ATOM     13  C   UNL     1       6.416   3.992  16.862  0.00  0.00    +0.000 C 
ATOM     14  C   UNL     1       6.560   5.034  16.020  0.00  0.00    +0.000 C 
BRANCH  14  15
ATOM     15  C   UNL     1       6.755   4.708  14.587  0.00  0.00    +0.000 A 
ATOM     16  C   UNL     1       7.711   5.402  13.831  0.00  0.00    +0.000 A 
ATOM     17  C   UNL     1       7.864   5.145  12.468  0.00  0.00    +0.000 A 
ATOM     18  C   UNL     1       7.065   4.193  11.844  0.00  0.00    +0.000 A 
ATOM     19  C   UNL     1       6.115   3.489  12.587  0.00  0.00    +0.000 A 
ATOM     20  C   UNL     1       5.960   3.745  13.954  0.00  0.00    +0.000 A 
ENDBRANCH  14  15
BRANCH  14  21
ATOM     21  C   UNL     1       6.485   6.479  16.442  0.00  0.00    +0.000 C 
ATOM     22  C   UNL     1       7.514   7.058  17.387  0.00  0.00    +0.000 C 
ATOM     23  O   UNL     1       5.583   7.196  16.016  0.00  0.00    +0.000 OA
ENDBRANCH  14  21
ENDBRANCH   1  13
TORSDOF 6
ENDMDL
MODEL 9
REMARK VINA RESULT:      -7.0      1.641      2.852
REMARK  Name = 
REMARK  9 active torsions:
REMARK  status: ('A' for Active; 'I' for Inactive)
REMARK    1  A    between atoms: C_1  and  O_2
REMARK    2  A    between atoms: O_2  and  C_3
REMARK    3  A    between atoms: C_5  and  N_6
REMARK    4  A    between atoms: N_6  and  C_7
REMARK    5  A    between atoms: C_8  and  C_9
REMARK    6  A    between atoms: C_8  and  C_12
REMARK    7  A    between atoms: C_9  and  C_10
REMARK    8  A    between atoms: C_19  and  O_20
REMARK    9  A    between atoms: O_20  and  C_21
REMARK                            x       y       z     vdW  Elec       q    Type
REMARK                         _______ _______ _______ _____ _____    ______ ____
ROOT
ATOM      1  N   UNL     1       4.221   6.840  17.267  0.00  0.00    +0.000 N 
ATOM      2  H   UNL     1       4.353   7.844  17.239  0.00  0.00    +0.000 HD
ENDROOT
BRANCH   1   5
ATOM      3  C   UNL     1       1.933   6.777  20.224  0.00  0.00    +0.000 A 
ATOM      4  C   UNL     1       2.689   7.267  19.155  0.00  0.00    +0.000 A 
ATOM      5  C   UNL     1       3.409   6.403  18.326  0.00  0.00    +0.000 A 
ATOM      6  C   UNL     1       3.335   5.027  18.583  0.00  0.00    +0.000 A 
ATOM      7  C   UNL     1       2.587   4.522  19.647  0.00  0.00    +0.000 A 
ATOM      8  C   UNL     1       1.892   5.403  20.475  0.00  0.00    +0.000 A 
BRANCH   3  10
ATOM      9  C   UNL     1       1.097   9.000  20.312  0.00  0.00    +0.000 C 
ATOM     10  O   UNL     1       1.276   7.739  20.945  0.00  0.00    +0.000 OA
ENDBRANCH   3  10
BRANCH   7  11
ATOM     11  O   UNL     1       2.618   3.159  19.768  0.00  0.00    +0.000 OA
ATOM     12  C   UNL     1       1.723   2.575  20.706  0.00  0.00    +0.000 C 
ENDBRANCH   7  11
ENDBRANCH   1   5
BRANCH   1  13
ATOM     13  C   UNL     1       4.745   6.117  16.227  0.00  0.00    +0.000 C 
ATOM     14  C   UNL     1       5.999   5.668  16.022  0.00  0.00    +0.000 C 
BRANCH  14  15
ATOM     15  C   UNL     1       6.286   5.087  14.689  0.00  0.00    +0.000 A 
ATOM     16  C   UNL     1       5.428   4.122  14.143  0.00  0.00    +0.000 A 
ATOM     17  C   UNL     1       5.718   3.525  12.915  0.00  0.00    +0.000 A 
ATOM     18  C   UNL     1       6.869   3.882  12.221  0.00  0.00    +0.000 A 
ATOM     19  C   UNL     1       7.728   4.847  12.749  0.00  0.00    +0.000 A 
ATOM     20  C   UNL     1       7.439   5.448  13.980  0.00  0.00    +0.000 A 
ENDBRANCH  14  15
BRANCH  14  21
ATOM     21  C   UNL     1       7.110   5.769  17.036  0.00  0.00    +0.000 C 
ATOM     22  C   UNL     1       7.701   4.522  17.655  0.00  0.00    +0.000 C 
ATOM     23  O   UNL     1       7.542   6.871  17.365  0.00  0.00    +0.000 OA
ENDBRANCH  14  21
ENDBRANCH   1  13
TORSDOF 6
ENDMDL
