MODEL 1
REMARK VINA RESULT:      -9.4      0.000      0.000
REMARK  Name = 
REMARK  9 active torsions:
REMARK  status: ('A' for Active; 'I' for Inactive)
REMARK    1  A    between atoms: C_1  and  C_2
REMARK    2  A    between atoms: C_4  and  C_5
REMARK    3  A    between atoms: C_5  and  O_6
REMARK    4  A    between atoms: O_6  and  C_7
REMARK    5  A    between atoms: C_10  and  S_11
REMARK    6  A    between atoms: S_11  and  N_14
REMARK    7  A    between atoms: N_14  and  C_15
REMARK    8  A    between atoms: C_15  and  C_16
REMARK    9  A    between atoms: N_18  and  O_19
REMARK                            x       y       z     vdW  Elec       q    Type
REMARK                         _______ _______ _______ _____ _____    ______ ____
ROOT
ATOM      1  C   UNL     1       1.182   9.873  18.866  0.00  0.00    +0.000 A 
ATOM      2  C   UNL     1       1.832   9.194  17.833  0.00  0.00    +0.000 A 
ATOM      3  C   UNL     1       2.289   7.893  18.024  0.00  0.00    +0.000 A 
ATOM      4  C   UNL     1       2.121   7.283  19.264  0.00  0.00    +0.000 A 
ATOM      5  C   UNL     1       1.480   7.954  20.314  0.00  0.00    +0.000 A 
ATOM      6  C   UNL     1       1.027   9.261  20.113  0.00  0.00    +0.000 A 
ENDROOT
BRANCH   4   7
ATOM      7  S   UNL     1       2.638   5.604  19.474  0.00  0.00    +0.000 S 
ATOM      8  O   UNL     1       2.407   5.280  20.864  0.00  0.00    +0.000 OA
ATOM      9  O   UNL     1       2.074   4.810  18.409  0.00  0.00    +0.000 OA
BRANCH   7  10
ATOM     10  N   UNL     1       4.289   5.679  19.304  0.00  0.00    +0.000 NA
ATOM     11  H   UNL     1       4.667   6.578  19.600  0.00  0.00    +0.000 HD
BRANCH  10  12
ATOM     12  C   UNL     1       5.178   4.761  18.545  0.00  0.00    +0.000 C 
ATOM     13  C   UNL     1       4.983   5.175  17.059  0.00  0.00    +0.000 C 
ATOM     14  C   UNL     1       5.578   6.575  16.772  0.00  0.00    +0.000 C 
ATOM     15  C   UNL     1       7.064   6.655  17.113  0.00  0.00    +0.000 C 
ATOM     16  C   UNL     1       7.333   6.224  18.546  0.00  0.00    +0.000 C 
ATOM     17  C   UNL     1       6.688   4.883  18.853  0.00  0.00    +0.000 C 
BRANCH  12  18
ATOM     18  C   UNL     1       4.829   3.277  18.832  0.00  0.00    +0.000 C 
ATOM     19  O   UNL     1       5.026   2.733  19.924  0.00  0.00    +0.000 OA
ATOM     20  N   UNL     1       4.253   2.537  17.834  0.00  0.00    +0.000 N 
ATOM     21  H   UNL     1       4.195   2.771  16.853  0.00  0.00    +0.000 HD
BRANCH  20  22
ATOM     22  O   UNL     1       3.882   1.221  18.208  0.00  0.00    +0.000 OA
ATOM     23  H   UNL     1       2.914   1.212  18.014  0.00  0.00    +0.000 HD
ENDBRANCH  20  22
ENDBRANCH  12  18
ENDBRANCH  10  12
ENDBRANCH   7  10
ENDBRANCH   4   7
BRANCH   1  24
ATOM     24  O   UNL     1       0.656  11.131  18.748  0.00  0.00    +0.000 OA
BRANCH  24  25
ATOM     25  C   UNL     1      -0.549  11.354  19.492  0.00  0.00    +0.000 C 
BRANCH  25  29
ATOM     26  C   UNL     1      -2.838   9.854  15.274  0.00  0.00    +0.000 C 
ATOM     27  C   UNL     1      -2.868  10.538  16.609  0.00  0.00    +0.000 A 
ATOM     28  C   UNL     1      -1.737  10.599  17.396  0.00  0.00    +0.000 A 
ATOM     29  C   UNL     1      -1.784  11.257  18.630  0.00  0.00    +0.000 A 
ATOM     30  C   UNL     1      -3.018  11.833  19.041  0.00  0.00    +0.000 A 
ATOM     31  C   UNL     1      -3.197  12.518  20.272  0.00  0.00    +0.000 A 
ATOM     32  C   UNL     1      -4.426  13.081  20.611  0.00  0.00    +0.000 A 
ATOM     33  C   UNL     1      -5.493  12.975  19.730  0.00  0.00    +0.000 A 
ATOM     34  C   UNL     1      -5.325  12.301  18.520  0.00  0.00    +0.000 A 
ATOM     35  C   UNL     1      -4.112  11.726  18.159  0.00  0.00    +0.000 A 
ATOM     36  N   UNL     1      -4.044  11.094  16.978  0.00  0.00    +0.000 NA
ENDBRANCH  25  29
ENDBRANCH  24  25
ENDBRANCH   1  24
TORSDOF 8
ENDMDL
MODEL 2
REMARK VINA RESULT:      -9.0      1.062      2.213
REMARK  Name = 
REMARK  9 active torsions:
REMARK  status: ('A' for Active; 'I' for Inactive)
REMARK    1  A    between atoms: C_1  and  C_2
REMARK    2  A    between atoms: C_4  and  C_5
REMARK    3  A    between atoms: C_5  and  O_6
REMARK    4  A    between atoms: O_6  and  C_7
REMARK    5  A    between atoms: C_10  and  S_11
REMARK    6  A    between atoms: S_11  and  N_14
REMARK    7  A    between atoms: N_14  and  C_15
REMARK    8  A    between atoms: C_15  and  C_16
REMARK    9  A    between atoms: N_18  and  O_19
REMARK                            x       y       z     vdW  Elec       q    Type
REMARK                         _______ _______ _______ _____ _____    ______ ____
ROOT
ATOM      1  C   UNL     1       1.154   9.810  19.485  0.00  0.00    +0.000 A 
ATOM      2  C   UNL     1       1.754   9.208  18.376  0.00  0.00    +0.000 A 
ATOM      3  C   UNL     1       2.196   7.889  18.444  0.00  0.00    +0.000 A 
ATOM      4  C   UNL     1       2.064   7.183  19.636  0.00  0.00    +0.000 A 
ATOM      5  C   UNL     1       1.474   7.776  20.761  0.00  0.00    +0.000 A 
ATOM      6  C   UNL     1       1.035   9.101  20.683  0.00  0.00    +0.000 A 
ENDROOT
BRANCH   4   7
ATOM      7  S   UNL     1       2.559   5.486  19.691  0.00  0.00    +0.000 S 
ATOM      8  O   UNL     1       2.404   5.063  21.065  0.00  0.00    +0.000 OA
ATOM      9  O   UNL     1       1.920   4.782  18.606  0.00  0.00    +0.000 OA
BRANCH   7  10
ATOM     10  N   UNL     1       4.199   5.549  19.429  0.00  0.00    +0.000 NA
ATOM     11  H   UNL     1       4.605   6.430  19.740  0.00  0.00    +0.000 HD
BRANCH  10  12
ATOM     12  C   UNL     1       5.031   4.653  18.583  0.00  0.00    +0.000 C 
ATOM     13  C   UNL     1       4.720   5.099  17.126  0.00  0.00    +0.000 C 
ATOM     14  C   UNL     1       5.285   6.509  16.827  0.00  0.00    +0.000 C 
ATOM     15  C   UNL     1       6.792   6.591  17.054  0.00  0.00    +0.000 C 
ATOM     16  C   UNL     1       7.173   6.128  18.452  0.00  0.00    +0.000 C 
ATOM     17  C   UNL     1       6.560   4.777  18.777  0.00  0.00    +0.000 C 
BRANCH  12  18
ATOM     18  C   UNL     1       4.710   3.161  18.862  0.00  0.00    +0.000 C 
ATOM     19  O   UNL     1       4.950   2.607  19.940  0.00  0.00    +0.000 OA
ATOM     20  N   UNL     1       4.113   2.426  17.874  0.00  0.00    +0.000 N 
ATOM     21  H   UNL     1       4.019   2.672  16.899  0.00  0.00    +0.000 HD
BRANCH  20  22
ATOM     22  O   UNL     1       3.771   1.101  18.243  0.00  0.00    +0.000 OA
ATOM     23  H   UNL     1       3.553   1.198  19.201  0.00  0.00    +0.000 HD
ENDBRANCH  20  22
ENDBRANCH  12  18
ENDBRANCH  10  12
ENDBRANCH   7  10
ENDBRANCH   4   7
BRANCH   1  24
ATOM     24  O   UNL     1       0.646  11.081  19.488  0.00  0.00    +0.000 OA
BRANCH  24  25
ATOM     25  C   UNL     1      -0.442  11.298  18.579  0.00  0.00    +0.000 C 
BRANCH  25  29
ATOM     26  C   UNL     1      -2.738  13.160  22.646  0.00  0.00    +0.000 C 
ATOM     27  C   UNL     1      -2.777  12.672  21.228  0.00  0.00    +0.000 A 
ATOM     28  C   UNL     1      -1.626  12.252  20.595  0.00  0.00    +0.000 A 
ATOM     29  C   UNL     1      -1.688  11.785  19.277  0.00  0.00    +0.000 A 
ATOM     30  C   UNL     1      -2.951  11.775  18.624  0.00  0.00    +0.000 A 
ATOM     31  C   UNL     1      -3.145  11.334  17.288  0.00  0.00    +0.000 A 
ATOM     32  C   UNL     1      -4.412  11.328  16.708  0.00  0.00    +0.000 A 
ATOM     33  C   UNL     1      -5.505  11.756  17.447  0.00  0.00    +0.000 A 
ATOM     34  C   UNL     1      -5.322  12.193  18.760  0.00  0.00    +0.000 A 
ATOM     35  C   UNL     1      -4.069  12.214  19.362  0.00  0.00    +0.000 A 
ATOM     36  N   UNL     1      -3.987  12.655  20.626  0.00  0.00    +0.000 NA
ENDBRANCH  25  29
ENDBRANCH  24  25
ENDBRANCH   1  24
TORSDOF 8
ENDMDL
MODEL 3
REMARK VINA RESULT:      -9.0      1.067      2.547
REMARK  Name = 
REMARK  9 active torsions:
REMARK  status: ('A' for Active; 'I' for Inactive)
REMARK    1  A    between atoms: C_1  and  C_2
REMARK    2  A    between atoms: C_4  and  C_5
REMARK    3  A    between atoms: C_5  and  O_6
REMARK    4  A    between atoms: O_6  and  C_7
REMARK    5  A    between atoms: C_10  and  S_11
REMARK    6  A    between atoms: S_11  and  N_14
REMARK    7  A    between atoms: N_14  and  C_15
REMARK    8  A    between atoms: C_15  and  C_16
REMARK    9  A    between atoms: N_18  and  O_19
REMARK                            x       y       z     vdW  Elec       q    Type
REMARK                         _______ _______ _______ _____ _____    ______ ____
ROOT
ATOM      1  C   UNL     1       1.125   9.759  20.129  0.00  0.00    +0.000 A 
ATOM      2  C   UNL     1       1.048   8.764  21.107  0.00  0.00    +0.000 A 
ATOM      3  C   UNL     1       1.500   7.475  20.837  0.00  0.00    +0.000 A 
ATOM      4  C   UNL     1       2.003   7.176  19.574  0.00  0.00    +0.000 A 
ATOM      5  C   UNL     1       2.077   8.160  18.579  0.00  0.00    +0.000 A 
ATOM      6  C   UNL     1       1.618   9.450  18.859  0.00  0.00    +0.000 A 
ENDROOT
BRANCH   4   7
ATOM      7  S   UNL     1       2.643   5.557  19.264  0.00  0.00    +0.000 S 
ATOM      8  O   UNL     1       2.734   4.904  20.551  0.00  0.00    +0.000 OA
ATOM      9  O   UNL     1       1.910   4.971  18.168  0.00  0.00    +0.000 OA
BRANCH   7  10
ATOM     10  N   UNL     1       4.214   5.841  18.799  0.00  0.00    +0.000 NA
ATOM     11  H   UNL     1       4.438   6.834  18.783  0.00  0.00    +0.000 HD
BRANCH  10  12
ATOM     12  C   UNL     1       5.169   4.897  18.161  0.00  0.00    +0.000 C 
ATOM     13  C   UNL     1       5.108   5.248  16.647  0.00  0.00    +0.000 C 
ATOM     14  C   UNL     1       5.724   6.639  16.358  0.00  0.00    +0.000 C 
ATOM     15  C   UNL     1       7.172   6.741  16.827  0.00  0.00    +0.000 C 
ATOM     16  C   UNL     1       7.312   6.370  18.296  0.00  0.00    +0.000 C 
ATOM     17  C   UNL     1       6.645   5.039  18.599  0.00  0.00    +0.000 C 
BRANCH  12  18
ATOM     18  C   UNL     1       4.797   3.424  18.476  0.00  0.00    +0.000 C 
ATOM     19  O   UNL     1       4.164   2.704  17.696  0.00  0.00    +0.000 OA
ATOM     20  N   UNL     1       5.209   2.886  19.665  0.00  0.00    +0.000 N 
ATOM     21  H   UNL     1       5.567   3.380  20.471  0.00  0.00    +0.000 HD
BRANCH  20  22
ATOM     22  O   UNL     1       4.908   1.511  19.832  0.00  0.00    +0.000 OA
ATOM     23  H   UNL     1       5.799   1.091  19.765  0.00  0.00    +0.000 HD
ENDBRANCH  20  22
ENDBRANCH  12  18
ENDBRANCH  10  12
ENDBRANCH   7  10
ENDBRANCH   4   7
BRANCH   1  24
ATOM     24  O   UNL     1       0.752  11.061  20.327  0.00  0.00    +0.000 OA
BRANCH  24  25
ATOM     25  C   UNL     1       0.247  11.727  19.161  0.00  0.00    +0.000 C 
BRANCH  25  29
ATOM     26  C   UNL     1      -3.835  13.668  21.364  0.00  0.00    +0.000 C 
ATOM     27  C   UNL     1      -3.194  12.857  20.277  0.00  0.00    +0.000 A 
ATOM     28  C   UNL     1      -1.824  12.702  20.227  0.00  0.00    +0.000 A 
ATOM     29  C   UNL     1      -1.248  11.926  19.215  0.00  0.00    +0.000 A 
ATOM     30  C   UNL     1      -2.107  11.331  18.250  0.00  0.00    +0.000 A 
ATOM     31  C   UNL     1      -1.647  10.530  17.171  0.00  0.00    +0.000 A 
ATOM     32  C   UNL     1      -2.540   9.955  16.269  0.00  0.00    +0.000 A 
ATOM     33  C   UNL     1      -3.902  10.163  16.428  0.00  0.00    +0.000 A 
ATOM     34  C   UNL     1      -4.362  10.950  17.485  0.00  0.00    +0.000 A 
ATOM     35  C   UNL     1      -3.494  11.540  18.396  0.00  0.00    +0.000 A 
ATOM     36  N   UNL     1      -4.025  12.285  19.378  0.00  0.00    +0.000 NA
ENDBRANCH  25  29
ENDBRANCH  24  25
ENDBRANCH   1  24
TORSDOF 8
ENDMDL
MODEL 4
REMARK VINA RESULT:      -9.0      3.326      4.919
REMARK  Name = 
REMARK  9 active torsions:
REMARK  status: ('A' for Active; 'I' for Inactive)
REMARK    1  A    between atoms: C_1  and  C_2
REMARK    2  A    between atoms: C_4  and  C_5
REMARK    3  A    between atoms: C_5  and  O_6
REMARK    4  A    between atoms: O_6  and  C_7
REMARK    5  A    between atoms: C_10  and  S_11
REMARK    6  A    between atoms: S_11  and  N_14
REMARK    7  A    between atoms: N_14  and  C_15
REMARK    8  A    between atoms: C_15  and  C_16
REMARK    9  A    between atoms: N_18  and  O_19
REMARK                            x       y       z     vdW  Elec       q    Type
REMARK                         _______ _______ _______ _____ _____    ______ ____
ROOT
ATOM      1  C   UNL     1       2.639   8.220  17.863  0.00  0.00    +0.000 A 
ATOM      2  C   UNL     1       2.268   7.438  18.960  0.00  0.00    +0.000 A 
ATOM      3  C   UNL     1       3.017   6.319  19.312  0.00  0.00    +0.000 A 
ATOM      4  C   UNL     1       4.123   5.964  18.544  0.00  0.00    +0.000 A 
ATOM      5  C   UNL     1       4.502   6.732  17.435  0.00  0.00    +0.000 A 
ATOM      6  C   UNL     1       3.743   7.853  17.088  0.00  0.00    +0.000 A 
ENDROOT
BRANCH   4   7
ATOM      7  S   UNL     1       5.110   4.585  19.043  0.00  0.00    +0.000 S 
ATOM      8  O   UNL     1       5.092   3.653  17.938  0.00  0.00    +0.000 OA
ATOM      9  O   UNL     1       6.349   5.078  19.596  0.00  0.00    +0.000 OA
BRANCH   7  10
ATOM     10  N   UNL     1       4.207   3.870  20.241  0.00  0.00    +0.000 NA
ATOM     11  H   UNL     1       4.260   4.382  21.120  0.00  0.00    +0.000 HD
BRANCH  10  12
ATOM     12  C   UNL     1       3.616   2.506  20.258  0.00  0.00    +0.000 C 
ATOM     13  C   UNL     1       2.545   2.563  21.385  0.00  0.00    +0.000 C 
ATOM     14  C   UNL     1       1.353   3.472  20.996  0.00  0.00    +0.000 C 
ATOM     15  C   UNL     1       0.680   3.023  19.702  0.00  0.00    +0.000 C 
ATOM     16  C   UNL     1       1.680   2.906  18.562  0.00  0.00    +0.000 C 
ATOM     17  C   UNL     1       2.887   2.076  18.964  0.00  0.00    +0.000 C 
BRANCH  12  18
ATOM     18  C   UNL     1       4.704   1.425  20.484  0.00  0.00    +0.000 C 
ATOM     19  O   UNL     1       5.417   1.382  21.494  0.00  0.00    +0.000 OA
ATOM     20  N   UNL     1       4.871   0.457  19.532  0.00  0.00    +0.000 N 
ATOM     21  H   UNL     1       4.507   0.454  18.589  0.00  0.00    +0.000 HD
BRANCH  20  22
ATOM     22  O   UNL     1       5.821  -0.544  19.860  0.00  0.00    +0.000 OA
ATOM     23  H   UNL     1       5.246  -1.297  20.138  0.00  0.00    +0.000 HD
ENDBRANCH  20  22
ENDBRANCH  12  18
ENDBRANCH  10  12
ENDBRANCH   7  10
ENDBRANCH   4   7
BRANCH   1  24
ATOM     24  O   UNL     1       1.992   9.363  17.479  0.00  0.00    +0.000 OA
BRANCH  24  25
ATOM     25  C   UNL     1       0.689   9.539  18.052  0.00  0.00    +0.000 C 
BRANCH  25  29
ATOM     26  C   UNL     1      -0.666  10.362  22.824  0.00  0.00    +0.000 C 
ATOM     27  C   UNL     1       0.062  10.775  21.579  0.00  0.00    +0.000 A 
ATOM     28  C   UNL     1       0.046   9.976  20.454  0.00  0.00    +0.000 A 
ATOM     29  C   UNL     1       0.719  10.389  19.299  0.00  0.00    +0.000 A 
ATOM     30  C   UNL     1       1.418  11.627  19.331  0.00  0.00    +0.000 A 
ATOM     31  C   UNL     1       2.145  12.152  18.230  0.00  0.00    +0.000 A 
ATOM     32  C   UNL     1       2.794  13.382  18.315  0.00  0.00    +0.000 A 
ATOM     33  C   UNL     1       2.727  14.111  19.494  0.00  0.00    +0.000 A 
ATOM     34  C   UNL     1       2.016  13.601  20.582  0.00  0.00    +0.000 A 
ATOM     35  C   UNL     1       1.364  12.374  20.526  0.00  0.00    +0.000 A 
ATOM     36  N   UNL     1       0.709  11.961  21.621  0.00  0.00    +0.000 NA
ENDBRANCH  25  29
ENDBRANCH  24  25
ENDBRANCH   1  24
TORSDOF 8
ENDMDL
MODEL 5
REMARK VINA RESULT:      -8.8      1.123      2.505
REMARK  Name = 
REMARK  9 active torsions:
REMARK  status: ('A' for Active; 'I' for Inactive)
REMARK    1  A    between atoms: C_1  and  C_2
REMARK    2  A    between atoms: C_4  and  C_5
REMARK    3  A    between atoms: C_5  and  O_6
REMARK    4  A    between atoms: O_6  and  C_7
REMARK    5  A    between atoms: C_10  and  S_11
REMARK    6  A    between atoms: S_11  and  N_14
REMARK    7  A    between atoms: N_14  and  C_15
REMARK    8  A    between atoms: C_15  and  C_16
REMARK    9  A    between atoms: N_18  and  O_19
REMARK                            x       y       z     vdW  Elec       q    Type
REMARK                         _______ _______ _______ _____ _____    ______ ____
ROOT
ATOM      1  C   UNL     1       0.921   9.693  20.264  0.00  0.00    +0.000 A 
ATOM      2  C   UNL     1       1.441   9.520  18.979  0.00  0.00    +0.000 A 
ATOM      3  C   UNL     1       2.021   8.309  18.611  0.00  0.00    +0.000 A 
ATOM      4  C   UNL     1       2.107   7.279  19.544  0.00  0.00    +0.000 A 
ATOM      5  C   UNL     1       1.600   7.440  20.840  0.00  0.00    +0.000 A 
ATOM      6  C   UNL     1       1.022   8.660  21.201  0.00  0.00    +0.000 A 
ENDROOT
BRANCH   4   7
ATOM      7  S   UNL     1       2.777   5.721  19.045  0.00  0.00    +0.000 S 
ATOM      8  O   UNL     1       3.072   4.998  20.262  0.00  0.00    +0.000 OA
ATOM      9  O   UNL     1       1.930   5.160  18.019  0.00  0.00    +0.000 OA
BRANCH   7  10
ATOM     10  N   UNL     1       4.254   6.119  18.396  0.00  0.00    +0.000 NA
ATOM     11  H   UNL     1       4.327   7.113  18.185  0.00  0.00    +0.000 HD
BRANCH  10  12
ATOM     12  C   UNL     1       5.296   5.209  17.851  0.00  0.00    +0.000 C 
ATOM     13  C   UNL     1       5.960   6.024  16.705  0.00  0.00    +0.000 C 
ATOM     14  C   UNL     1       6.775   7.221  17.254  0.00  0.00    +0.000 C 
ATOM     15  C   UNL     1       7.857   6.785  18.237  0.00  0.00    +0.000 C 
ATOM     16  C   UNL     1       7.281   5.946  19.367  0.00  0.00    +0.000 C 
ATOM     17  C   UNL     1       6.421   4.813  18.835  0.00  0.00    +0.000 C 
BRANCH  12  18
ATOM     18  C   UNL     1       4.678   3.865  17.385  0.00  0.00    +0.000 C 
ATOM     19  O   UNL     1       4.309   3.656  16.224  0.00  0.00    +0.000 OA
ATOM     20  N   UNL     1       4.555   2.851  18.296  0.00  0.00    +0.000 N 
ATOM     21  H   UNL     1       4.637   2.917  19.301  0.00  0.00    +0.000 HD
BRANCH  20  22
ATOM     22  O   UNL     1       4.069   1.630  17.766  0.00  0.00    +0.000 OA
ATOM     23  H   UNL     1       3.708   1.181  18.567  0.00  0.00    +0.000 HD
ENDBRANCH  20  22
ENDBRANCH  12  18
ENDBRANCH  10  12
ENDBRANCH   7  10
ENDBRANCH   4   7
BRANCH   1  24
ATOM     24  O   UNL     1       0.290  10.829  20.692  0.00  0.00    +0.000 OA
BRANCH  24  25
ATOM     25  C   UNL     1      -0.057  11.754  19.652  0.00  0.00    +0.000 C 
BRANCH  25  29
ATOM     26  C   UNL     1      -4.431  13.566  21.345  0.00  0.00    +0.000 C 
ATOM     27  C   UNL     1      -3.635  12.798  20.331  0.00  0.00    +0.000 A 
ATOM     28  C   UNL     1      -2.268  12.665  20.460  0.00  0.00    +0.000 A 
ATOM     29  C   UNL     1      -1.549  11.930  19.512  0.00  0.00    +0.000 A 
ATOM     30  C   UNL     1      -2.261  11.352  18.424  0.00  0.00    +0.000 A 
ATOM     31  C   UNL     1      -1.646  10.593  17.394  0.00  0.00    +0.000 A 
ATOM     32  C   UNL     1      -2.400  10.033  16.364  0.00  0.00    +0.000 A 
ATOM     33  C   UNL     1      -3.775  10.216  16.345  0.00  0.00    +0.000 A 
ATOM     34  C   UNL     1      -4.386  10.963  17.354  0.00  0.00    +0.000 A 
ATOM     35  C   UNL     1      -3.658  11.537  18.390  0.00  0.00    +0.000 A 
ATOM     36  N   UNL     1      -4.329  12.242  19.313  0.00  0.00    +0.000 NA
ENDBRANCH  25  29
ENDBRANCH  24  25
ENDBRANCH   1  24
TORSDOF 8
ENDMDL
MODEL 6
REMARK VINA RESULT:      -8.8      2.013      3.734
REMARK  Name = 
REMARK  9 active torsions:
REMARK  status: ('A' for Active; 'I' for Inactive)
REMARK    1  A    between atoms: C_1  and  C_2
REMARK    2  A    between atoms: C_4  and  C_5
REMARK    3  A    between atoms: C_5  and  O_6
REMARK    4  A    between atoms: O_6  and  C_7
REMARK    5  A    between atoms: C_10  and  S_11
REMARK    6  A    between atoms: S_11  and  N_14
REMARK    7  A    between atoms: N_14  and  C_15
REMARK    8  A    between atoms: C_15  and  C_16
REMARK    9  A    between atoms: N_18  and  O_19
REMARK                            x       y       z     vdW  Elec       q    Type
REMARK                         _______ _______ _______ _____ _____    ______ ____
ROOT
ATOM      1  C   UNL     1       0.719   9.917  19.891  0.00  0.00    +0.000 A 
ATOM      2  C   UNL     1       1.106   8.786  20.613  0.00  0.00    +0.000 A 
ATOM      3  C   UNL     1       1.950   7.839  20.040  0.00  0.00    +0.000 A 
ATOM      4  C   UNL     1       2.382   8.012  18.728  0.00  0.00    +0.000 A 
ATOM      5  C   UNL     1       1.995   9.135  17.986  0.00  0.00    +0.000 A 
ATOM      6  C   UNL     1       1.146  10.079  18.570  0.00  0.00    +0.000 A 
ENDROOT
BRANCH   4   7
ATOM      7  S   UNL     1       3.513   6.843  18.033  0.00  0.00    +0.000 S 
ATOM      8  O   UNL     1       3.610   7.159  16.625  0.00  0.00    +0.000 OA
ATOM      9  O   UNL     1       4.683   6.775  18.875  0.00  0.00    +0.000 OA
BRANCH   7  10
ATOM     10  N   UNL     1       2.684   5.404  18.108  0.00  0.00    +0.000 NA
ATOM     11  H   UNL     1       1.675   5.538  18.063  0.00  0.00    +0.000 HD
BRANCH  10  12
ATOM     12  C   UNL     1       3.197   4.067  18.506  0.00  0.00    +0.000 C 
ATOM     13  C   UNL     1       3.159   4.085  20.061  0.00  0.00    +0.000 C 
ATOM     14  C   UNL     1       1.706   4.091  20.597  0.00  0.00    +0.000 C 
ATOM     15  C   UNL     1       0.899   2.895  20.100  0.00  0.00    +0.000 C 
ATOM     16  C   UNL     1       0.928   2.792  18.583  0.00  0.00    +0.000 C 
ATOM     17  C   UNL     1       2.347   2.859  18.048  0.00  0.00    +0.000 C 
BRANCH  12  18
ATOM     18  C   UNL     1       4.610   3.809  17.919  0.00  0.00    +0.000 C 
ATOM     19  O   UNL     1       4.802   3.430  16.758  0.00  0.00    +0.000 OA
ATOM     20  N   UNL     1       5.699   4.034  18.717  0.00  0.00    +0.000 N 
ATOM     21  H   UNL     1       5.709   4.165  19.718  0.00  0.00    +0.000 HD
BRANCH  20  22
ATOM     22  O   UNL     1       6.952   3.864  18.074  0.00  0.00    +0.000 OA
ATOM     23  H   UNL     1       7.034   2.881  18.029  0.00  0.00    +0.000 HD
ENDBRANCH  20  22
ENDBRANCH  12  18
ENDBRANCH  10  12
ENDBRANCH   7  10
ENDBRANCH   4   7
BRANCH   1  24
ATOM     24  O   UNL     1      -0.063  10.920  20.395  0.00  0.00    +0.000 OA
BRANCH  24  25
ATOM     25  C   UNL     1      -0.460  11.913  19.439  0.00  0.00    +0.000 C 
BRANCH  25  29
ATOM     26  C   UNL     1      -4.917  13.196  21.380  0.00  0.00    +0.000 C 
ATOM     27  C   UNL     1      -4.086  12.646  20.259  0.00  0.00    +0.000 A 
ATOM     28  C   UNL     1      -2.714  12.565  20.372  0.00  0.00    +0.000 A 
ATOM     29  C   UNL     1      -1.959  12.033  19.321  0.00  0.00    +0.000 A 
ATOM     30  C   UNL     1      -2.643  11.604  18.149  0.00  0.00    +0.000 A 
ATOM     31  C   UNL     1      -1.992  11.056  17.012  0.00  0.00    +0.000 A 
ATOM     32  C   UNL     1      -2.719  10.633  15.900  0.00  0.00    +0.000 A 
ATOM     33  C   UNL     1      -4.102  10.746  15.904  0.00  0.00    +0.000 A 
ATOM     34  C   UNL     1      -4.748  11.286  17.017  0.00  0.00    +0.000 A 
ATOM     35  C   UNL     1      -4.048  11.720  18.137  0.00  0.00    +0.000 A 
ATOM     36  N   UNL     1      -4.752  12.229  19.159  0.00  0.00    +0.000 NA
ENDBRANCH  25  29
ENDBRANCH  24  25
ENDBRANCH   1  24
TORSDOF 8
ENDMDL
MODEL 7
REMARK VINA RESULT:      -8.8      1.836      3.302
REMARK  Name = 
REMARK  9 active torsions:
REMARK  status: ('A' for Active; 'I' for Inactive)
REMARK    1  A    between atoms: C_1  and  C_2
REMARK    2  A    between atoms: C_4  and  C_5
REMARK    3  A    between atoms: C_5  and  O_6
REMARK    4  A    between atoms: O_6  and  C_7
REMARK    5  A    between atoms: C_10  and  S_11
REMARK    6  A    between atoms: S_11  and  N_14
REMARK    7  A    between atoms: N_14  and  C_15
REMARK    8  A    between atoms: C_15  and  C_16
REMARK    9  A    between atoms: N_18  and  O_19
REMARK                            x       y       z     vdW  Elec       q    Type
REMARK                         _______ _______ _______ _____ _____    ______ ____
ROOT
ATOM      1  C   UNL     1       1.289   9.087  19.640  0.00  0.00    +0.000 A 
ATOM      2  C   UNL     1       1.459   8.045  20.554  0.00  0.00    +0.000 A 
ATOM      3  C   UNL     1       2.159   6.897  20.192  0.00  0.00    +0.000 A 
ATOM      4  C   UNL     1       2.661   6.781  18.899  0.00  0.00    +0.000 A 
ATOM      5  C   UNL     1       2.490   7.812  17.966  0.00  0.00    +0.000 A 
ATOM      6  C   UNL     1       1.784   8.960  18.339  0.00  0.00    +0.000 A 
ENDROOT
BRANCH   4   7
ATOM      7  S   UNL     1       3.612   5.352  18.470  0.00  0.00    +0.000 S 
ATOM      8  O   UNL     1       4.277   4.929  19.683  0.00  0.00    +0.000 OA
ATOM      9  O   UNL     1       2.777   4.452  17.712  0.00  0.00    +0.000 OA
BRANCH   7  10
ATOM     10  N   UNL     1       4.812   5.959  17.494  0.00  0.00    +0.000 NA
ATOM     11  H   UNL     1       4.456   6.639  16.824  0.00  0.00    +0.000 HD
BRANCH  10  12
ATOM     12  C   UNL     1       6.192   5.441  17.302  0.00  0.00    +0.000 C 
ATOM     13  C   UNL     1       6.012   3.901  17.173  0.00  0.00    +0.000 C 
ATOM     14  C   UNL     1       5.293   3.518  15.857  0.00  0.00    +0.000 C 
ATOM     15  C   UNL     1       6.030   4.030  14.623  0.00  0.00    +0.000 C 
ATOM     16  C   UNL     1       6.277   5.529  14.701  0.00  0.00    +0.000 C 
ATOM     17  C   UNL     1       6.916   5.919  16.023  0.00  0.00    +0.000 C 
BRANCH  12  18
ATOM     18  C   UNL     1       7.119   5.866  18.471  0.00  0.00    +0.000 C 
ATOM     19  O   UNL     1       7.790   6.905  18.460  0.00  0.00    +0.000 OA
ATOM     20  N   UNL     1       7.183   5.064  19.578  0.00  0.00    +0.000 N 
ATOM     21  H   UNL     1       6.850   4.115  19.668  0.00  0.00    +0.000 HD
BRANCH  20  22
ATOM     22  O   UNL     1       7.981   5.572  20.635  0.00  0.00    +0.000 OA
ATOM     23  H   UNL     1       7.393   6.260  21.030  0.00  0.00    +0.000 HD
ENDBRANCH  20  22
ENDBRANCH  12  18
ENDBRANCH  10  12
ENDBRANCH   7  10
ENDBRANCH   4   7
BRANCH   1  24
ATOM     24  O   UNL     1       0.662  10.269  19.928  0.00  0.00    +0.000 OA
BRANCH  24  25
ATOM     25  C   UNL     1       0.211  11.007  18.785  0.00  0.00    +0.000 C 
BRANCH  25  29
ATOM     26  C   UNL     1      -3.480  13.275  21.337  0.00  0.00    +0.000 C 
ATOM     27  C   UNL     1      -2.989  12.520  20.137  0.00  0.00    +0.000 A 
ATOM     28  C   UNL     1      -1.663  12.155  20.027  0.00  0.00    +0.000 A 
ATOM     29  C   UNL     1      -1.230  11.436  18.907  0.00  0.00    +0.000 A 
ATOM     30  C   UNL     1      -2.183  11.119  17.900  0.00  0.00    +0.000 A 
ATOM     31  C   UNL     1      -1.868  10.404  16.714  0.00  0.00    +0.000 A 
ATOM     32  C   UNL     1      -2.851  10.104  15.772  0.00  0.00    +0.000 A 
ATOM     33  C   UNL     1      -4.159  10.506  15.996  0.00  0.00    +0.000 A 
ATOM     34  C   UNL     1      -4.476  11.212  17.158  0.00  0.00    +0.000 A 
ATOM     35  C   UNL     1      -3.515  11.529  18.112  0.00  0.00    +0.000 A 
ATOM     36  N   UNL     1      -3.909  12.213  19.196  0.00  0.00    +0.000 NA
ENDBRANCH  25  29
ENDBRANCH  24  25
ENDBRANCH   1  24
TORSDOF 8
ENDMDL
MODEL 8
REMARK VINA RESULT:      -8.7      1.210      2.474
REMARK  Name = 
REMARK  9 active torsions:
REMARK  status: ('A' for Active; 'I' for Inactive)
REMARK    1  A    between atoms: C_1  and  C_2
REMARK    2  A    between atoms: C_4  and  C_5
REMARK    3  A    between atoms: C_5  and  O_6
REMARK    4  A    between atoms: O_6  and  C_7
REMARK    5  A    between atoms: C_10  and  S_11
REMARK    6  A    between atoms: S_11  and  N_14
REMARK    7  A    between atoms: N_14  and  C_15
REMARK    8  A    between atoms: C_15  and  C_16
REMARK    9  A    between atoms: N_18  and  O_19
REMARK                            x       y       z     vdW  Elec       q    Type
REMARK                         _______ _______ _______ _____ _____    ______ ____
ROOT
ATOM      1  C   UNL     1       1.262   9.432  19.892  0.00  0.00    +0.000 A 
ATOM      2  C   UNL     1       1.809   8.956  18.697  0.00  0.00    +0.000 A 
ATOM      3  C   UNL     1       2.164   7.616  18.569  0.00  0.00    +0.000 A 
ATOM      4  C   UNL     1       1.999   6.757  19.652  0.00  0.00    +0.000 A 
ATOM      5  C   UNL     1       1.462   7.220  20.860  0.00  0.00    +0.000 A 
ATOM      6  C   UNL     1       1.111   8.568  20.980  0.00  0.00    +0.000 A 
ENDROOT
BRANCH   4   7
ATOM      7  S   UNL     1       2.382   5.042  19.456  0.00  0.00    +0.000 S 
ATOM      8  O   UNL     1       3.262   4.696  20.550  0.00  0.00    +0.000 OA
ATOM      9  O   UNL     1       1.158   4.319  19.213  0.00  0.00    +0.000 OA
BRANCH   7  10
ATOM     10  N   UNL     1       3.334   5.007  18.094  0.00  0.00    +0.000 NA
ATOM     11  H   UNL     1       2.865   5.412  17.286  0.00  0.00    +0.000 HD
BRANCH  10  12
ATOM     12  C   UNL     1       4.585   4.238  17.865  0.00  0.00    +0.000 C 
ATOM     13  C   UNL     1       4.799   4.296  16.326  0.00  0.00    +0.000 C 
ATOM     14  C   UNL     1       5.159   5.725  15.852  0.00  0.00    +0.000 C 
ATOM     15  C   UNL     1       6.408   6.267  16.541  0.00  0.00    +0.000 C 
ATOM     16  C   UNL     1       6.284   6.202  18.056  0.00  0.00    +0.000 C 
ATOM     17  C   UNL     1       5.859   4.820  18.520  0.00  0.00    +0.000 C 
BRANCH  12  18
ATOM     18  C   UNL     1       4.468   2.796  18.426  0.00  0.00    +0.000 C 
ATOM     19  O   UNL     1       3.771   1.920  17.902  0.00  0.00    +0.000 OA
ATOM     20  N   UNL     1       5.189   2.469  19.542  0.00  0.00    +0.000 N 
ATOM     21  H   UNL     1       5.652   3.101  20.180  0.00  0.00    +0.000 HD
BRANCH  20  22
ATOM     22  O   UNL     1       5.098   1.109  19.932  0.00  0.00    +0.000 OA
ATOM     23  H   UNL     1       4.969   0.650  19.068  0.00  0.00    +0.000 HD
ENDBRANCH  20  22
ENDBRANCH  12  18
ENDBRANCH  10  12
ENDBRANCH   7  10
ENDBRANCH   4   7
BRANCH   1  24
ATOM     24  O   UNL     1       0.839  10.719  20.085  0.00  0.00    +0.000 OA
BRANCH  24  25
ATOM     25  C   UNL     1       0.320  11.365  18.915  0.00  0.00    +0.000 C 
BRANCH  25  29
ATOM     26  C   UNL     1      -3.458  13.566  21.398  0.00  0.00    +0.000 C 
ATOM     27  C   UNL     1      -2.944  12.758  20.243  0.00  0.00    +0.000 A 
ATOM     28  C   UNL     1      -1.599  12.475  20.123  0.00  0.00    +0.000 A 
ATOM     29  C   UNL     1      -1.144  11.705  19.047  0.00  0.00    +0.000 A 
ATOM     30  C   UNL     1      -2.096  11.250  18.092  0.00  0.00    +0.000 A 
ATOM     31  C   UNL     1      -1.760  10.471  16.954  0.00  0.00    +0.000 A 
ATOM     32  C   UNL     1      -2.741  10.036  16.064  0.00  0.00    +0.000 A 
ATOM     33  C   UNL     1      -4.069  10.366  16.295  0.00  0.00    +0.000 A 
ATOM     34  C   UNL     1      -4.406  11.133  17.411  0.00  0.00    +0.000 A 
ATOM     35  C   UNL     1      -3.448  11.585  18.311  0.00  0.00    +0.000 A 
ATOM     36  N   UNL     1      -3.863  12.321  19.353  0.00  0.00    +0.000 NA
ENDBRANCH  25  29
ENDBRANCH  24  25
ENDBRANCH   1  24
TORSDOF 8
ENDMDL
MODEL 9
REMARK VINA RESULT:      -8.6      1.375      1.924
REMARK  Name = 
REMARK  9 active torsions:
REMARK  status: ('A' for Active; 'I' for Inactive)
REMARK    1  A    between atoms: C_1  and  C_2
REMARK    2  A    between atoms: C_4  and  C_5
REMARK    3  A    between atoms: C_5  and  O_6
REMARK    4  A    between atoms: O_6  and  C_7
REMARK    5  A    between atoms: C_10  and  S_11
REMARK    6  A    between atoms: S_11  and  N_14
REMARK    7  A    between atoms: N_14  and  C_15
REMARK    8  A    between atoms: C_15  and  C_16
REMARK    9  A    between atoms: N_18  and  O_19
REMARK                            x       y       z     vdW  Elec       q    Type
REMARK                         _______ _______ _______ _____ _____    ______ ____
ROOT
ATOM      1  C   UNL     1       1.332   9.848  18.911  0.00  0.00    +0.000 A 
ATOM      2  C   UNL     1       1.980   9.266  17.820  0.00  0.00    +0.000 A 
ATOM      3  C   UNL     1       2.412   7.943  17.880  0.00  0.00    +0.000 A 
ATOM      4  C   UNL     1       2.221   7.214  19.050  0.00  0.00    +0.000 A 
ATOM      5  C   UNL     1       1.582   7.786  20.158  0.00  0.00    +0.000 A 
ATOM      6  C   UNL     1       1.154   9.115  20.088  0.00  0.00    +0.000 A 
ENDROOT
BRANCH   4   7
ATOM      7  S   UNL     1       2.705   5.513  19.092  0.00  0.00    +0.000 S 
ATOM      8  O   UNL     1       3.519   5.353  20.277  0.00  0.00    +0.000 OA
ATOM      9  O   UNL     1       1.541   4.694  18.858  0.00  0.00    +0.000 OA
BRANCH   7  10
ATOM     10  N   UNL     1       3.755   5.374  17.811  0.00  0.00    +0.000 NA
ATOM     11  H   UNL     1       3.447   5.910  17.001  0.00  0.00    +0.000 HD
BRANCH  10  12
ATOM     12  C   UNL     1       4.854   4.391  17.625  0.00  0.00    +0.000 C 
ATOM     13  C   UNL     1       4.965   4.222  16.082  0.00  0.00    +0.000 C 
ATOM     14  C   UNL     1       5.506   5.504  15.405  0.00  0.00    +0.000 C 
ATOM     15  C   UNL     1       6.869   5.919  15.952  0.00  0.00    +0.000 C 
ATOM     16  C   UNL     1       6.844   6.063  17.466  0.00  0.00    +0.000 C 
ATOM     17  C   UNL     1       6.245   4.836  18.131  0.00  0.00    +0.000 C 
BRANCH  12  18
ATOM     18  C   UNL     1       4.557   3.067  18.378  0.00  0.00    +0.000 C 
ATOM     19  O   UNL     1       3.738   2.231  17.981  0.00  0.00    +0.000 OA
ATOM     20  N   UNL     1       5.251   2.800  19.527  0.00  0.00    +0.000 N 
ATOM     21  H   UNL     1       5.808   3.444  20.071  0.00  0.00    +0.000 HD
BRANCH  20  22
ATOM     22  O   UNL     1       4.987   1.531  20.100  0.00  0.00    +0.000 OA
ATOM     23  H   UNL     1       5.588   1.523  20.883  0.00  0.00    +0.000 HD
ENDBRANCH  20  22
ENDBRANCH  12  18
ENDBRANCH  10  12
ENDBRANCH   7  10
ENDBRANCH   4   7
BRANCH   1  24
ATOM     24  O   UNL     1       0.830  11.121  18.918  0.00  0.00    +0.000 OA
BRANCH  24  25
ATOM     25  C   UNL     1       0.223  11.524  20.153  0.00  0.00    +0.000 C 
BRANCH  25  29
ATOM     26  C   UNL     1      -3.969  11.565  17.377  0.00  0.00    +0.000 C 
ATOM     27  C   UNL     1      -3.252  11.812  18.672  0.00  0.00    +0.000 A 
ATOM     28  C   UNL     1      -1.906  11.539  18.797  0.00  0.00    +0.000 A 
ATOM     29  C   UNL     1      -1.254  11.794  20.008  0.00  0.00    +0.000 A 
ATOM     30  C   UNL     1      -2.018  12.318  21.088  0.00  0.00    +0.000 A 
ATOM     31  C   UNL     1      -1.477  12.610  22.368  0.00  0.00    +0.000 A 
ATOM     32  C   UNL     1      -2.272  13.143  23.381  0.00  0.00    +0.000 A 
ATOM     33  C   UNL     1      -3.614  13.396  23.136  0.00  0.00    +0.000 A 
ATOM     34  C   UNL     1      -4.153  13.109  21.881  0.00  0.00    +0.000 A 
ATOM     35  C   UNL     1      -3.385  12.573  20.854  0.00  0.00    +0.000 A 
ATOM     36  N   UNL     1      -3.988  12.325  19.683  0.00  0.00    +0.000 NA
ENDBRANCH  25  29
ENDBRANCH  24  25
ENDBRANCH   1  24
TORSDOF 8
ENDMDL
