MODEL 1
REMARK VINA RESULT:      -7.5      0.000      0.000
REMARK  Name = 
REMARK  8 active torsions:
REMARK  status: ('A' for Active; 'I' for Inactive)
REMARK    1  A    between atoms: C_1  and  C_2
REMARK    2  A    between atoms: C_5  and  S_6
REMARK    3  A    between atoms: S_6  and  N_9
REMARK    4  A    between atoms: N_9  and  C_10
REMARK    5  A    between atoms: N_9  and  C_14
REMARK    6  A    between atoms: C_10  and  C_11
REMARK    7  A    between atoms: C_11  and  O_13
REMARK    8  A    between atoms: C_14  and  C_15
REMARK                            x       y       z     vdW  Elec       q    Type
REMARK                         _______ _______ _______ _____ _____    ______ ____
ROOT
ATOM      1  N   UNL     1       3.131   4.629  18.933  0.00  0.00    +0.000 NA
ENDROOT
BRANCH   1   2
ATOM      2  S   UNL     1       4.629   3.874  18.515  0.00  0.00    +0.000 S 
ATOM      3  O   UNL     1       4.429   3.170  17.268  0.00  0.00    +0.000 OA
ATOM      4  O   UNL     1       5.196   3.193  19.657  0.00  0.00    +0.000 OA
BRANCH   2   9
ATOM      5  C   UNL     1       8.373   8.602  17.830  0.00  0.00    +0.000 C 
ATOM      6  C   UNL     1       7.490   7.393  17.906  0.00  0.00    +0.000 A 
ATOM      7  C   UNL     1       6.397   7.241  17.041  0.00  0.00    +0.000 A 
ATOM      8  C   UNL     1       5.522   6.157  17.173  0.00  0.00    +0.000 A 
ATOM      9  C   UNL     1       5.753   5.211  18.172  0.00  0.00    +0.000 A 
ATOM     10  C   UNL     1       6.851   5.344  19.032  0.00  0.00    +0.000 A 
ATOM     11  C   UNL     1       7.712   6.432  18.901  0.00  0.00    +0.000 A 
ENDBRANCH   2   9
ENDBRANCH   1   2
BRANCH   1  12
ATOM     12  C   UNL     1       2.140   3.608  19.422  0.00  0.00    +0.000 C 
BRANCH  12  13
ATOM     13  C   UNL     1       1.104   3.160  18.426  0.00  0.00    +0.000 C 
ATOM     14  O   UNL     1       0.176   2.396  18.650  0.00  0.00    +0.000 OA
BRANCH  13  15
ATOM     15  O   UNL     1       1.252   3.705  17.203  0.00  0.00    +0.000 OA
ATOM     16  H   UNL     1       2.168   4.060  17.211  0.00  0.00    +0.000 HD
ENDBRANCH  13  15
ENDBRANCH  12  13
ENDBRANCH   1  12
BRANCH   1  17
ATOM     17  C   UNL     1       3.245   5.781  19.883  0.00  0.00    +0.000 C 
BRANCH  17  18
ATOM     18  C   UNL     1       2.476   7.021  19.488  0.00  0.00    +0.000 A 
ATOM     19  C   UNL     1       2.528   7.523  18.179  0.00  0.00    +0.000 A 
ATOM     20  C   UNL     1       1.890   8.725  17.861  0.00  0.00    +0.000 A 
ATOM     21  C   UNL     1       1.195   9.431  18.843  0.00  0.00    +0.000 A 
ATOM     22  C   UNL     1       1.114   8.927  20.138  0.00  0.00    +0.000 A 
ATOM     23  C   UNL     1       1.738   7.721  20.455  0.00  0.00    +0.000 A 
ENDBRANCH  17  18
ENDBRANCH   1  17
TORSDOF 7
ENDMDL
MODEL 2
REMARK VINA RESULT:      -7.4      1.707      2.491
REMARK  Name = 
REMARK  8 active torsions:
REMARK  status: ('A' for Active; 'I' for Inactive)
REMARK    1  A    between atoms: C_1  and  C_2
REMARK    2  A    between atoms: C_5  and  S_6
REMARK    3  A    between atoms: S_6  and  N_9
REMARK    4  A    between atoms: N_9  and  C_10
REMARK    5  A    between atoms: N_9  and  C_14
REMARK    6  A    between atoms: C_10  and  C_11
REMARK    7  A    between atoms: C_11  and  O_13
REMARK    8  A    between atoms: C_14  and  C_15
REMARK                            x       y       z     vdW  Elec       q    Type
REMARK                         _______ _______ _______ _____ _____    ______ ____
ROOT
ATOM      1  N   UNL     1       3.420   4.718  19.105  0.00  0.00    +0.000 NA
ENDROOT
BRANCH   1   2
ATOM      2  S   UNL     1       5.121   4.412  19.146  0.00  0.00    +0.000 S 
ATOM      3  O   UNL     1       5.309   3.071  19.652  0.00  0.00    +0.000 OA
ATOM      4  O   UNL     1       5.828   5.524  19.739  0.00  0.00    +0.000 OA
BRANCH   2   9
ATOM      5  C   UNL     1       7.064   4.830  13.410  0.00  0.00    +0.000 C 
ATOM      6  C   UNL     1       6.572   4.619  14.811  0.00  0.00    +0.000 A 
ATOM      7  C   UNL     1       5.218   4.357  15.069  0.00  0.00    +0.000 A 
ATOM      8  C   UNL     1       4.745   4.250  16.381  0.00  0.00    +0.000 A 
ATOM      9  C   UNL     1       5.638   4.393  17.443  0.00  0.00    +0.000 A 
ATOM     10  C   UNL     1       6.996   4.640  17.197  0.00  0.00    +0.000 A 
ATOM     11  C   UNL     1       7.458   4.756  15.887  0.00  0.00    +0.000 A 
ENDBRANCH   2   9
ENDBRANCH   1   2
BRANCH   1  12
ATOM     12  C   UNL     1       2.646   3.431  19.187  0.00  0.00    +0.000 C 
BRANCH  12  13
ATOM     13  C   UNL     1       1.779   3.103  18.001  0.00  0.00    +0.000 C 
ATOM     14  O   UNL     1       1.159   3.907  17.321  0.00  0.00    +0.000 OA
BRANCH  13  15
ATOM     15  O   UNL     1       1.744   1.790  17.697  0.00  0.00    +0.000 OA
ATOM     16  H   UNL     1       1.119   1.738  16.943  0.00  0.00    +0.000 HD
ENDBRANCH  13  15
ENDBRANCH  12  13
ENDBRANCH   1  12
BRANCH   1  17
ATOM     17  C   UNL     1       2.931   5.715  20.110  0.00  0.00    +0.000 C 
BRANCH  17  18
ATOM     18  C   UNL     1       2.464   7.034  19.537  0.00  0.00    +0.000 A 
ATOM     19  C   UNL     1       1.701   7.930  20.300  0.00  0.00    +0.000 A 
ATOM     20  C   UNL     1       1.198   9.097  19.720  0.00  0.00    +0.000 A 
ATOM     21  C   UNL     1       1.455   9.380  18.379  0.00  0.00    +0.000 A 
ATOM     22  C   UNL     1       2.236   8.513  17.621  0.00  0.00    +0.000 A 
ATOM     23  C   UNL     1       2.751   7.353  18.200  0.00  0.00    +0.000 A 
ENDBRANCH  17  18
ENDBRANCH   1  17
TORSDOF 7
ENDMDL
MODEL 3
REMARK VINA RESULT:      -7.4      1.712      2.273
REMARK  Name = 
REMARK  8 active torsions:
REMARK  status: ('A' for Active; 'I' for Inactive)
REMARK    1  A    between atoms: C_1  and  C_2
REMARK    2  A    between atoms: C_5  and  S_6
REMARK    3  A    between atoms: S_6  and  N_9
REMARK    4  A    between atoms: N_9  and  C_10
REMARK    5  A    between atoms: N_9  and  C_14
REMARK    6  A    between atoms: C_10  and  C_11
REMARK    7  A    between atoms: C_11  and  O_13
REMARK    8  A    between atoms: C_14  and  C_15
REMARK                            x       y       z     vdW  Elec       q    Type
REMARK                         _______ _______ _______ _____ _____    ______ ____
ROOT
ATOM      1  N   UNL     1       3.441   4.769  19.093  0.00  0.00    +0.000 NA
ENDROOT
BRANCH   1   2
ATOM      2  S   UNL     1       5.135   4.425  19.122  0.00  0.00    +0.000 S 
ATOM      3  O   UNL     1       5.296   3.075  19.618  0.00  0.00    +0.000 OA
ATOM      4  O   UNL     1       5.870   5.516  19.718  0.00  0.00    +0.000 OA
BRANCH   2   9
ATOM      5  C   UNL     1       7.059   4.835  13.380  0.00  0.00    +0.000 C 
ATOM      6  C   UNL     1       6.568   4.626  14.781  0.00  0.00    +0.000 A 
ATOM      7  C   UNL     1       5.209   4.402  15.044  0.00  0.00    +0.000 A 
ATOM      8  C   UNL     1       4.740   4.297  16.358  0.00  0.00    +0.000 A 
ATOM      9  C   UNL     1       5.642   4.405  17.416  0.00  0.00    +0.000 A 
ATOM     10  C   UNL     1       7.005   4.613  17.164  0.00  0.00    +0.000 A 
ATOM     11  C   UNL     1       7.464   4.727  15.853  0.00  0.00    +0.000 A 
ENDBRANCH   2   9
ENDBRANCH   1   2
BRANCH   1  12
ATOM     12  C   UNL     1       2.639   3.499  19.184  0.00  0.00    +0.000 C 
BRANCH  12  13
ATOM     13  C   UNL     1       1.820   3.145  17.972  0.00  0.00    +0.000 C 
ATOM     14  O   UNL     1       1.150   3.922  17.306  0.00  0.00    +0.000 OA
BRANCH  13  15
ATOM     15  O   UNL     1       1.894   1.845  17.625  0.00  0.00    +0.000 OA
ATOM     16  H   UNL     1       2.704   1.525  18.078  0.00  0.00    +0.000 HD
ENDBRANCH  13  15
ENDBRANCH  12  13
ENDBRANCH   1  12
BRANCH   1  17
ATOM     17  C   UNL     1       2.983   5.779  20.099  0.00  0.00    +0.000 C 
BRANCH  17  18
ATOM     18  C   UNL     1       2.383   7.041  19.520  0.00  0.00    +0.000 A 
ATOM     19  C   UNL     1       2.607   7.406  18.185  0.00  0.00    +0.000 A 
ATOM     20  C   UNL     1       2.125   8.624  17.699  0.00  0.00    +0.000 A 
ATOM     21  C   UNL     1       1.415   9.482  18.538  0.00  0.00    +0.000 A 
ATOM     22  C   UNL     1       1.162   9.115  19.857  0.00  0.00    +0.000 A 
ATOM     23  C   UNL     1       1.630   7.894  20.341  0.00  0.00    +0.000 A 
ENDBRANCH  17  18
ENDBRANCH   1  17
TORSDOF 7
ENDMDL
MODEL 4
REMARK VINA RESULT:      -7.4      1.752      2.721
REMARK  Name = 
REMARK  8 active torsions:
REMARK  status: ('A' for Active; 'I' for Inactive)
REMARK    1  A    between atoms: C_1  and  C_2
REMARK    2  A    between atoms: C_5  and  S_6
REMARK    3  A    between atoms: S_6  and  N_9
REMARK    4  A    between atoms: N_9  and  C_10
REMARK    5  A    between atoms: N_9  and  C_14
REMARK    6  A    between atoms: C_10  and  C_11
REMARK    7  A    between atoms: C_11  and  O_13
REMARK    8  A    between atoms: C_14  and  C_15
REMARK                            x       y       z     vdW  Elec       q    Type
REMARK                         _______ _______ _______ _____ _____    ______ ____
ROOT
ATOM      1  N   UNL     1       3.432   4.760  19.097  0.00  0.00    +0.000 NA
ENDROOT
BRANCH   1   2
ATOM      2  S   UNL     1       5.131   4.443  19.124  0.00  0.00    +0.000 S 
ATOM      3  O   UNL     1       5.311   3.069  19.542  0.00  0.00    +0.000 OA
ATOM      4  O   UNL     1       5.841   5.509  19.793  0.00  0.00    +0.000 OA
BRANCH   2   9
ATOM      5  C   UNL     1       6.716   4.275  13.267  0.00  0.00    +0.000 C 
ATOM      6  C   UNL     1       6.348   4.424  14.713  0.00  0.00    +0.000 A 
ATOM      7  C   UNL     1       7.334   4.596  15.695  0.00  0.00    +0.000 A 
ATOM      8  C   UNL     1       6.996   4.644  17.051  0.00  0.00    +0.000 A 
ATOM      9  C   UNL     1       5.657   4.532  17.426  0.00  0.00    +0.000 A 
ATOM     10  C   UNL     1       4.661   4.376  16.452  0.00  0.00    +0.000 A 
ATOM     11  C   UNL     1       5.007   4.318  15.103  0.00  0.00    +0.000 A 
ENDBRANCH   2   9
ENDBRANCH   1   2
BRANCH   1  12
ATOM     12  C   UNL     1       2.651   3.477  19.181  0.00  0.00    +0.000 C 
BRANCH  12  13
ATOM     13  C   UNL     1       1.831   3.120  17.969  0.00  0.00    +0.000 C 
ATOM     14  O   UNL     1       1.080   3.871  17.364  0.00  0.00    +0.000 OA
BRANCH  13  15
ATOM     15  O   UNL     1       2.004   1.851  17.549  0.00  0.00    +0.000 OA
ATOM     16  H   UNL     1       1.219   1.679  16.986  0.00  0.00    +0.000 HD
ENDBRANCH  13  15
ENDBRANCH  12  13
ENDBRANCH   1  12
BRANCH   1  17
ATOM     17  C   UNL     1       2.957   5.758  20.106  0.00  0.00    +0.000 C 
BRANCH  17  18
ATOM     18  C   UNL     1       2.467   7.070  19.537  0.00  0.00    +0.000 A 
ATOM     19  C   UNL     1       1.691   7.951  20.305  0.00  0.00    +0.000 A 
ATOM     20  C   UNL     1       1.167   9.111  19.728  0.00  0.00    +0.000 A 
ATOM     21  C   UNL     1       1.415   9.401  18.387  0.00  0.00    +0.000 A 
ATOM     22  C   UNL     1       2.208   8.548  17.625  0.00  0.00    +0.000 A 
ATOM     23  C   UNL     1       2.744   7.396  18.201  0.00  0.00    +0.000 A 
ENDBRANCH  17  18
ENDBRANCH   1  17
TORSDOF 7
ENDMDL
MODEL 5
REMARK VINA RESULT:      -7.4      0.883      1.380
REMARK  Name = 
REMARK  8 active torsions:
REMARK  status: ('A' for Active; 'I' for Inactive)
REMARK    1  A    between atoms: C_1  and  C_2
REMARK    2  A    between atoms: C_5  and  S_6
REMARK    3  A    between atoms: S_6  and  N_9
REMARK    4  A    between atoms: N_9  and  C_10
REMARK    5  A    between atoms: N_9  and  C_14
REMARK    6  A    between atoms: C_10  and  C_11
REMARK    7  A    between atoms: C_11  and  O_13
REMARK    8  A    between atoms: C_14  and  C_15
REMARK                            x       y       z     vdW  Elec       q    Type
REMARK                         _______ _______ _______ _____ _____    ______ ____
ROOT
ATOM      1  N   UNL     1       2.693   4.729  18.556  0.00  0.00    +0.000 NA
ENDROOT
BRANCH   1   2
ATOM      2  S   UNL     1       4.187   3.879  18.368  0.00  0.00    +0.000 S 
ATOM      3  O   UNL     1       4.086   3.084  17.163  0.00  0.00    +0.000 OA
ATOM      4  O   UNL     1       4.591   3.269  19.614  0.00  0.00    +0.000 OA
BRANCH   2   9
ATOM      5  C   UNL     1       8.281   8.320  17.777  0.00  0.00    +0.000 C 
ATOM      6  C   UNL     1       7.308   7.181  17.828  0.00  0.00    +0.000 A 
ATOM      7  C   UNL     1       6.202   7.136  16.967  0.00  0.00    +0.000 A 
ATOM      8  C   UNL     1       5.247   6.120  17.078  0.00  0.00    +0.000 A 
ATOM      9  C   UNL     1       5.408   5.134  18.050  0.00  0.00    +0.000 A 
ATOM     10  C   UNL     1       6.518   5.160  18.907  0.00  0.00    +0.000 A 
ATOM     11  C   UNL     1       7.460   6.181  18.797  0.00  0.00    +0.000 A 
ENDBRANCH   2   9
ENDBRANCH   1   2
BRANCH   1  12
ATOM     12  C   UNL     1       1.528   3.782  18.466  0.00  0.00    +0.000 C 
BRANCH  12  13
ATOM     13  C   UNL     1       1.534   2.629  19.435  0.00  0.00    +0.000 C 
ATOM     14  O   UNL     1       1.131   2.659  20.588  0.00  0.00    +0.000 OA
BRANCH  13  15
ATOM     15  O   UNL     1       2.015   1.483  18.915  0.00  0.00    +0.000 OA
ATOM     16  H   UNL     1       2.779   1.264  19.492  0.00  0.00    +0.000 HD
ENDBRANCH  13  15
ENDBRANCH  12  13
ENDBRANCH   1  12
BRANCH   1  17
ATOM     17  C   UNL     1       2.604   5.591  19.777  0.00  0.00    +0.000 C 
BRANCH  17  18
ATOM     18  C   UNL     1       2.178   7.020  19.528  0.00  0.00    +0.000 A 
ATOM     19  C   UNL     1       1.581   7.787  20.539  0.00  0.00    +0.000 A 
ATOM     20  C   UNL     1       1.106   9.071  20.260  0.00  0.00    +0.000 A 
ATOM     21  C   UNL     1       1.226   9.599  18.975  0.00  0.00    +0.000 A 
ATOM     22  C   UNL     1       1.843   8.857  17.972  0.00  0.00    +0.000 A 
ATOM     23  C   UNL     1       2.330   7.580  18.251  0.00  0.00    +0.000 A 
ENDBRANCH  17  18
ENDBRANCH   1  17
TORSDOF 7
ENDMDL
MODEL 6
REMARK VINA RESULT:      -7.3      1.976      2.806
REMARK  Name = 
REMARK  8 active torsions:
REMARK  status: ('A' for Active; 'I' for Inactive)
REMARK    1  A    between atoms: C_1  and  C_2
REMARK    2  A    between atoms: C_5  and  S_6
REMARK    3  A    between atoms: S_6  and  N_9
REMARK    4  A    between atoms: N_9  and  C_10
REMARK    5  A    between atoms: N_9  and  C_14
REMARK    6  A    between atoms: C_10  and  C_11
REMARK    7  A    between atoms: C_11  and  O_13
REMARK    8  A    between atoms: C_14  and  C_15
REMARK                            x       y       z     vdW  Elec       q    Type
REMARK                         _______ _______ _______ _____ _____    ______ ____
ROOT
ATOM      1  N   UNL     1       3.338   4.482  19.261  0.00  0.00    +0.000 NA
ENDROOT
BRANCH   1   2
ATOM      2  S   UNL     1       5.055   4.280  19.238  0.00  0.00    +0.000 S 
ATOM      3  O   UNL     1       5.340   2.927  19.662  0.00  0.00    +0.000 OA
ATOM      4  O   UNL     1       5.711   5.399  19.874  0.00  0.00    +0.000 OA
BRANCH   2   9
ATOM      5  C   UNL     1       6.453   4.160  13.333  0.00  0.00    +0.000 C 
ATOM      6  C   UNL     1       6.126   4.298  14.790  0.00  0.00    +0.000 A 
ATOM      7  C   UNL     1       7.137   4.514  15.739  0.00  0.00    +0.000 A 
ATOM      8  C   UNL     1       6.841   4.552  17.105  0.00  0.00    +0.000 A 
ATOM      9  C   UNL     1       5.520   4.386  17.524  0.00  0.00    +0.000 A 
ATOM     10  C   UNL     1       4.501   4.186  16.583  0.00  0.00    +0.000 A 
ATOM     11  C   UNL     1       4.804   4.138  15.224  0.00  0.00    +0.000 A 
ENDBRANCH   2   9
ENDBRANCH   1   2
BRANCH   1  12
ATOM     12  C   UNL     1       2.652   3.167  19.515  0.00  0.00    +0.000 C 
BRANCH  12  13
ATOM     13  C   UNL     1       2.037   2.993  20.878  0.00  0.00    +0.000 C 
ATOM     14  O   UNL     1       2.642   2.761  21.914  0.00  0.00    +0.000 OA
BRANCH  13  15
ATOM     15  O   UNL     1       0.697   3.143  20.894  0.00  0.00    +0.000 OA
ATOM     16  H   UNL     1       0.429   2.777  21.765  0.00  0.00    +0.000 HD
ENDBRANCH  13  15
ENDBRANCH  12  13
ENDBRANCH   1  12
BRANCH   1  17
ATOM     17  C   UNL     1       2.837   5.548  20.186  0.00  0.00    +0.000 C 
BRANCH  17  18
ATOM     18  C   UNL     1       2.390   6.826  19.516  0.00  0.00    +0.000 A 
ATOM     19  C   UNL     1       2.713   7.099  18.179  0.00  0.00    +0.000 A 
ATOM     20  C   UNL     1       2.374   8.328  17.609  0.00  0.00    +0.000 A 
ATOM     21  C   UNL     1       1.709   9.292  18.366  0.00  0.00    +0.000 A 
ATOM     22  C   UNL     1       1.357   9.021  19.686  0.00  0.00    +0.000 A 
ATOM     23  C   UNL     1       1.682   7.789  20.253  0.00  0.00    +0.000 A 
ENDBRANCH  17  18
ENDBRANCH   1  17
TORSDOF 7
ENDMDL
MODEL 7
REMARK VINA RESULT:      -7.3      1.900      2.483
REMARK  Name = 
REMARK  8 active torsions:
REMARK  status: ('A' for Active; 'I' for Inactive)
REMARK    1  A    between atoms: C_1  and  C_2
REMARK    2  A    between atoms: C_5  and  S_6
REMARK    3  A    between atoms: S_6  and  N_9
REMARK    4  A    between atoms: N_9  and  C_10
REMARK    5  A    between atoms: N_9  and  C_14
REMARK    6  A    between atoms: C_10  and  C_11
REMARK    7  A    between atoms: C_11  and  O_13
REMARK    8  A    between atoms: C_14  and  C_15
REMARK                            x       y       z     vdW  Elec       q    Type
REMARK                         _______ _______ _______ _____ _____    ______ ____
ROOT
ATOM      1  N   UNL     1       2.923   4.569  19.723  0.00  0.00    +0.000 NA
ENDROOT
BRANCH   1   2
ATOM      2  S   UNL     1       3.843   3.233  19.125  0.00  0.00    +0.000 S 
ATOM      3  O   UNL     1       2.918   2.312  18.502  0.00  0.00    +0.000 OA
ATOM      4  O   UNL     1       4.778   2.767  20.122  0.00  0.00    +0.000 OA
BRANCH   2   9
ATOM      5  C   UNL     1       7.210   5.067  14.419  0.00  0.00    +0.000 C 
ATOM      6  C   UNL     1       6.379   4.718  15.618  0.00  0.00    +0.000 A 
ATOM      7  C   UNL     1       6.948   4.659  16.899  0.00  0.00    +0.000 A 
ATOM      8  C   UNL     1       6.193   4.245  18.001  0.00  0.00    +0.000 A 
ATOM      9  C   UNL     1       4.853   3.901  17.821  0.00  0.00    +0.000 A 
ATOM     10  C   UNL     1       4.270   3.971  16.549  0.00  0.00    +0.000 A 
ATOM     11  C   UNL     1       5.032   4.374  15.453  0.00  0.00    +0.000 A 
ENDBRANCH   2   9
ENDBRANCH   1   2
BRANCH   1  12
ATOM     12  C   UNL     1       2.438   4.296  21.121  0.00  0.00    +0.000 C 
BRANCH  12  13
ATOM     13  C   UNL     1       1.464   3.159  21.275  0.00  0.00    +0.000 C 
ATOM     14  O   UNL     1       1.471   2.323  22.168  0.00  0.00    +0.000 OA
BRANCH  13  15
ATOM     15  O   UNL     1       0.506   3.130  20.327  0.00  0.00    +0.000 OA
ATOM     16  H   UNL     1      -0.048   2.358  20.574  0.00  0.00    +0.000 HD
ENDBRANCH  13  15
ENDBRANCH  12  13
ENDBRANCH   1  12
BRANCH   1  17
ATOM     17  C   UNL     1       3.602   5.900  19.628  0.00  0.00    +0.000 C 
BRANCH  17  18
ATOM     18  C   UNL     1       2.700   7.062  19.279  0.00  0.00    +0.000 A 
ATOM     19  C   UNL     1       2.664   7.589  17.980  0.00  0.00    +0.000 A 
ATOM     20  C   UNL     1       1.898   8.724  17.703  0.00  0.00    +0.000 A 
ATOM     21  C   UNL     1       1.162   9.338  18.716  0.00  0.00    +0.000 A 
ATOM     22  C   UNL     1       1.168   8.805  20.002  0.00  0.00    +0.000 A 
ATOM     23  C   UNL     1       1.921   7.664  20.278  0.00  0.00    +0.000 A 
ENDBRANCH  17  18
ENDBRANCH   1  17
TORSDOF 7
ENDMDL
MODEL 8
REMARK VINA RESULT:      -7.3      1.988      2.978
REMARK  Name = 
REMARK  8 active torsions:
REMARK  status: ('A' for Active; 'I' for Inactive)
REMARK    1  A    between atoms: C_1  and  C_2
REMARK    2  A    between atoms: C_5  and  S_6
REMARK    3  A    between atoms: S_6  and  N_9
REMARK    4  A    between atoms: N_9  and  C_10
REMARK    5  A    between atoms: N_9  and  C_14
REMARK    6  A    between atoms: C_10  and  C_11
REMARK    7  A    between atoms: C_11  and  O_13
REMARK    8  A    between atoms: C_14  and  C_15
REMARK                            x       y       z     vdW  Elec       q    Type
REMARK                         _______ _______ _______ _____ _____    ______ ____
ROOT
ATOM      1  N   UNL     1       3.352   4.547  19.167  0.00  0.00    +0.000 NA
ENDROOT
BRANCH   1   2
ATOM      2  S   UNL     1       5.069   4.348  19.176  0.00  0.00    +0.000 S 
ATOM      3  O   UNL     1       5.349   3.001  19.622  0.00  0.00    +0.000 OA
ATOM      4  O   UNL     1       5.713   5.476  19.809  0.00  0.00    +0.000 OA
BRANCH   2   9
ATOM      5  C   UNL     1       6.565   4.158  13.296  0.00  0.00    +0.000 C 
ATOM      6  C   UNL     1       6.216   4.313  14.746  0.00  0.00    +0.000 A 
ATOM      7  C   UNL     1       7.211   4.532  15.710  0.00  0.00    +0.000 A 
ATOM      8  C   UNL     1       6.893   4.586  17.071  0.00  0.00    +0.000 A 
ATOM      9  C   UNL     1       5.564   4.434  17.468  0.00  0.00    +0.000 A 
ATOM     10  C   UNL     1       4.559   4.230  16.513  0.00  0.00    +0.000 A 
ATOM     11  C   UNL     1       4.885   4.166  15.159  0.00  0.00    +0.000 A 
ENDBRANCH   2   9
ENDBRANCH   1   2
BRANCH   1  12
ATOM     12  C   UNL     1       2.663   3.219  19.327  0.00  0.00    +0.000 C 
BRANCH  12  13
ATOM     13  C   UNL     1       2.186   2.884  20.716  0.00  0.00    +0.000 C 
ATOM     14  O   UNL     1       1.028   2.921  21.105  0.00  0.00    +0.000 OA
BRANCH  13  15
ATOM     15  O   UNL     1       3.170   2.490  21.549  0.00  0.00    +0.000 OA
ATOM     16  H   UNL     1       3.017   1.526  21.656  0.00  0.00    +0.000 HD
ENDBRANCH  13  15
ENDBRANCH  12  13
ENDBRANCH   1  12
BRANCH   1  17
ATOM     17  C   UNL     1       2.826   5.558  20.138  0.00  0.00    +0.000 C 
BRANCH  17  18
ATOM     18  C   UNL     1       2.451   6.895  19.539  0.00  0.00    +0.000 A 
ATOM     19  C   UNL     1       1.722   7.841  20.273  0.00  0.00    +0.000 A 
ATOM     20  C   UNL     1       1.302   9.029  19.668  0.00  0.00    +0.000 A 
ATOM     21  C   UNL     1       1.610   9.281  18.331  0.00  0.00    +0.000 A 
ATOM     22  C   UNL     1       2.359   8.361  17.603  0.00  0.00    +0.000 A 
ATOM     23  C   UNL     1       2.790   7.181  18.208  0.00  0.00    +0.000 A 
ENDBRANCH  17  18
ENDBRANCH   1  17
TORSDOF 7
ENDMDL
MODEL 9
REMARK VINA RESULT:      -7.3      1.866      2.458
REMARK  Name = 
REMARK  8 active torsions:
REMARK  status: ('A' for Active; 'I' for Inactive)
REMARK    1  A    between atoms: C_1  and  C_2
REMARK    2  A    between atoms: C_5  and  S_6
REMARK    3  A    between atoms: S_6  and  N_9
REMARK    4  A    between atoms: N_9  and  C_10
REMARK    5  A    between atoms: N_9  and  C_14
REMARK    6  A    between atoms: C_10  and  C_11
REMARK    7  A    between atoms: C_11  and  O_13
REMARK    8  A    between atoms: C_14  and  C_15
REMARK                            x       y       z     vdW  Elec       q    Type
REMARK                         _______ _______ _______ _____ _____    ______ ____
ROOT
ATOM      1  N   UNL     1       3.327   4.631  19.095  0.00  0.00    +0.000 NA
ENDROOT
BRANCH   1   2
ATOM      2  S   UNL     1       5.026   4.318  19.156  0.00  0.00    +0.000 S 
ATOM      3  O   UNL     1       5.203   2.968  19.644  0.00  0.00    +0.000 OA
ATOM      4  O   UNL     1       5.728   5.418  19.777  0.00  0.00    +0.000 OA
BRANCH   2   9
ATOM      5  C   UNL     1       7.049   4.820  13.455  0.00  0.00    +0.000 C 
ATOM      6  C   UNL     1       6.538   4.588  14.846  0.00  0.00    +0.000 A 
ATOM      7  C   UNL     1       5.185   4.304  15.081  0.00  0.00    +0.000 A 
ATOM      8  C   UNL     1       4.694   4.177  16.384  0.00  0.00    +0.000 A 
ATOM      9  C   UNL     1       5.569   4.323  17.461  0.00  0.00    +0.000 A 
ATOM     10  C   UNL     1       6.927   4.591  17.238  0.00  0.00    +0.000 A 
ATOM     11  C   UNL     1       7.406   4.726  15.936  0.00  0.00    +0.000 A 
ENDBRANCH   2   9
ENDBRANCH   1   2
BRANCH   1  12
ATOM     12  C   UNL     1       2.547   3.347  19.182  0.00  0.00    +0.000 C 
BRANCH  12  13
ATOM     13  C   UNL     1       1.868   3.073  20.498  0.00  0.00    +0.000 C 
ATOM     14  O   UNL     1       2.421   2.739  21.535  0.00  0.00    +0.000 OA
BRANCH  13  15
ATOM     15  O   UNL     1       0.533   3.253  20.469  0.00  0.00    +0.000 OA
ATOM     16  H   UNL     1       0.384   3.792  19.662  0.00  0.00    +0.000 HD
ENDBRANCH  13  15
ENDBRANCH  12  13
ENDBRANCH   1  12
BRANCH   1  17
ATOM     17  C   UNL     1       2.832   5.640  20.084  0.00  0.00    +0.000 C 
BRANCH  17  18
ATOM     18  C   UNL     1       2.348   6.943  19.490  0.00  0.00    +0.000 A 
ATOM     19  C   UNL     1       2.650   7.296  18.167  0.00  0.00    +0.000 A 
ATOM     20  C   UNL     1       2.277   8.548  17.670  0.00  0.00    +0.000 A 
ATOM     21  C   UNL     1       1.598   9.452  18.486  0.00  0.00    +0.000 A 
ATOM     22  C   UNL     1       1.267   9.100  19.792  0.00  0.00    +0.000 A 
ATOM     23  C   UNL     1       1.627   7.846  20.286  0.00  0.00    +0.000 A 
ENDBRANCH  17  18
ENDBRANCH   1  17
TORSDOF 7
ENDMDL
