MODEL 1
REMARK VINA RESULT:      -8.1      0.000      0.000
REMARK  Name = 
REMARK  8 active torsions:
REMARK  status: ('A' for Active; 'I' for Inactive)
REMARK    1  A    between atoms: C_1  and  O_2
REMARK    2  A    between atoms: O_2  and  C_3
REMARK    3  A    between atoms: C_5  and  N_6
REMARK    4  A    between atoms: C_13  and  O_14
REMARK    5  A    between atoms: O_14  and  C_15
REMARK    6  A    between atoms: C_19  and  C_21
REMARK    7  A    between atoms: C_31  and  O_32
REMARK    8  A    between atoms: O_32  and  C_33
REMARK                            x       y       z     vdW  Elec       q    Type
REMARK                         _______ _______ _______ _____ _____    ______ ____
ROOT
ATOM      1  N   UNL     1       3.711   4.205  17.048  0.00  0.00    +0.000 N 
ATOM      2  C   UNL     1       2.934   2.979  16.859  0.00  0.00    +0.000 C 
ATOM      3  C   UNL     1       2.944   2.170  18.151  0.00  0.00    +0.000 C 
ATOM      4  C   UNL     1       2.594   3.030  19.338  0.00  0.00    +0.000 A 
ATOM      5  N   UNL     1       2.168   2.389  20.449  0.00  0.00    +0.000 NA
ATOM      6  C   UNL     1       1.928   3.156  21.528  0.00  0.00    +0.000 A 
ATOM      7  N   UNL     1       2.087   4.482  21.605  0.00  0.00    +0.000 NA
ATOM      8  C   UNL     1       2.527   5.076  20.477  0.00  0.00    +0.000 A 
ATOM      9  C   UNL     1       2.782   4.399  19.298  0.00  0.00    +0.000 A 
ATOM     10  C   UNL     1       3.226   5.132  18.071  0.00  0.00    +0.000 C 
ENDROOT
BRANCH   1  13
ATOM     11  C   UNL     1       6.918   5.764  16.017  0.00  0.00    +0.000 A 
ATOM     12  C   UNL     1       5.764   5.461  16.752  0.00  0.00    +0.000 A 
ATOM     13  C   UNL     1       4.850   4.494  16.327  0.00  0.00    +0.000 A 
ATOM     14  C   UNL     1       5.162   3.875  15.117  0.00  0.00    +0.000 A 
ATOM     15  N   UNL     1       6.245   4.138  14.358  0.00  0.00    +0.000 NA
ATOM     16  C   UNL     1       7.102   5.077  14.815  0.00  0.00    +0.000 A 
BRANCH  11  18
ATOM     17  C   UNL     1       7.430   7.527  17.519  0.00  0.00    +0.000 C 
ATOM     18  O   UNL     1       7.828   6.712  16.413  0.00  0.00    +0.000 OA
ENDBRANCH  11  18
BRANCH  16  19
ATOM     19  O   UNL     1       8.209   5.362  14.034  0.00  0.00    +0.000 OA
ATOM     20  C   UNL     1       7.912   5.296  12.635  0.00  0.00    +0.000 C 
ENDBRANCH  16  19
ENDBRANCH   1  13
BRANCH   8  21
ATOM     21  O   UNL     1       2.722   6.436  20.470  0.00  0.00    +0.000 OA
BRANCH  21  22
ATOM     22  C   UNL     1       1.560   7.188  20.127  0.00  0.00    +0.000 C 
ATOM     23  C   UNL     1       1.260   8.141  21.289  0.00  0.00    +0.000 C 
ATOM     24  C   UNL     1       0.562   9.301  20.615  0.00  0.00    +0.000 C 
ATOM     25  N   UNL     1       1.260   9.422  19.350  0.00  0.00    +0.000 N 
ATOM     26  C   UNL     1       1.459  10.572  18.597  0.00  0.00    +0.000 C 
ATOM     27  O   UNL     1       2.199  10.552  17.612  0.00  0.00    +0.000 OA
ATOM     28  C   UNL     1       1.807   8.134  18.943  0.00  0.00    +0.000 C 
BRANCH  26  29
ATOM     29  C   UNL     1       0.798  11.782  19.025  0.00  0.00    +0.000 A 
ATOM     30  C   UNL     1       1.230  12.840  19.797  0.00  0.00    +0.000 A 
ATOM     31  N   UNL     1       0.225  13.768  19.942  0.00  0.00    +0.000 NA
ATOM     32  C   UNL     1      -0.756  13.265  19.229  0.00  0.00    +0.000 A 
ATOM     33  O   UNL     1      -0.486  12.076  18.633  0.00  0.00    +0.000 OA
ENDBRANCH  26  29
ENDBRANCH  21  22
ENDBRANCH   8  21
TORSDOF 6
ENDMDL
MODEL 2
REMARK VINA RESULT:      -7.9      1.153      1.547
REMARK  Name = 
REMARK  8 active torsions:
REMARK  status: ('A' for Active; 'I' for Inactive)
REMARK    1  A    between atoms: C_1  and  O_2
REMARK    2  A    between atoms: O_2  and  C_3
REMARK    3  A    between atoms: C_5  and  N_6
REMARK    4  A    between atoms: C_13  and  O_14
REMARK    5  A    between atoms: O_14  and  C_15
REMARK    6  A    between atoms: C_19  and  C_21
REMARK    7  A    between atoms: C_31  and  O_32
REMARK    8  A    between atoms: O_32  and  C_33
REMARK                            x       y       z     vdW  Elec       q    Type
REMARK                         _______ _______ _______ _____ _____    ______ ____
ROOT
ATOM      1  N   UNL     1       4.173   3.404  17.257  0.00  0.00    +0.000 N 
ATOM      2  C   UNL     1       4.180   2.011  17.709  0.00  0.00    +0.000 C 
ATOM      3  C   UNL     1       4.271   1.974  19.231  0.00  0.00    +0.000 C 
ATOM      4  C   UNL     1       3.261   2.899  19.862  0.00  0.00    +0.000 A 
ATOM      5  N   UNL     1       2.950   2.666  21.156  0.00  0.00    +0.000 NA
ATOM      6  C   UNL     1       2.104   3.538  21.734  0.00  0.00    +0.000 A 
ATOM      7  N   UNL     1       1.561   4.614  21.154  0.00  0.00    +0.000 NA
ATOM      8  C   UNL     1       1.911   4.813  19.867  0.00  0.00    +0.000 A 
ATOM      9  C   UNL     1       2.749   3.973  19.157  0.00  0.00    +0.000 A 
ATOM     10  C   UNL     1       3.059   4.232  17.716  0.00  0.00    +0.000 C 
ENDROOT
BRANCH   1  13
ATOM     11  C   UNL     1       6.949   5.558  16.058  0.00  0.00    +0.000 A 
ATOM     12  C   UNL     1       5.954   5.005  16.875  0.00  0.00    +0.000 A 
ATOM     13  C   UNL     1       5.156   3.939  16.452  0.00  0.00    +0.000 A 
ATOM     14  C   UNL     1       5.412   3.486  15.159  0.00  0.00    +0.000 A 
ATOM     15  N   UNL     1       6.341   3.989  14.320  0.00  0.00    +0.000 NA
ATOM     16  C   UNL     1       7.090   5.016  14.777  0.00  0.00    +0.000 A 
BRANCH  11  18
ATOM     17  C   UNL     1       7.171   7.479  17.432  0.00  0.00    +0.000 C 
ATOM     18  O   UNL     1       7.740   6.608  16.450  0.00  0.00    +0.000 OA
ENDBRANCH  11  18
BRANCH  16  19
ATOM     19  O   UNL     1       8.034   5.547  13.917  0.00  0.00    +0.000 OA
ATOM     20  C   UNL     1       7.793   5.176  12.556  0.00  0.00    +0.000 C 
ENDBRANCH  16  19
ENDBRANCH   1  13
BRANCH   8  21
ATOM     21  O   UNL     1       1.401   5.898  19.196  0.00  0.00    +0.000 OA
BRANCH  21  22
ATOM     22  C   UNL     1       2.114   7.111  19.426  0.00  0.00    +0.000 C 
ATOM     23  C   UNL     1       2.113   7.910  18.118  0.00  0.00    +0.000 C 
ATOM     24  C   UNL     1       2.206   9.344  18.588  0.00  0.00    +0.000 C 
ATOM     25  N   UNL     1       1.397   9.356  19.791  0.00  0.00    +0.000 N 
ATOM     26  C   UNL     1       0.672  10.417  20.316  0.00  0.00    +0.000 C 
ATOM     27  O   UNL     1      -0.091  10.241  21.269  0.00  0.00    +0.000 OA
ATOM     28  C   UNL     1       1.386   8.037  20.411  0.00  0.00    +0.000 C 
BRANCH  26  29
ATOM     29  C   UNL     1       0.820  11.711  19.692  0.00  0.00    +0.000 A 
ATOM     30  C   UNL     1       0.030  12.390  18.789  0.00  0.00    +0.000 A 
ATOM     31  N   UNL     1       0.598  13.603  18.475  0.00  0.00    +0.000 NA
ATOM     32  C   UNL     1       1.679  13.632  19.219  0.00  0.00    +0.000 A 
ATOM     33  O   UNL     1       1.878  12.535  19.992  0.00  0.00    +0.000 OA
ENDBRANCH  26  29
ENDBRANCH  21  22
ENDBRANCH   8  21
TORSDOF 6
ENDMDL
MODEL 3
REMARK VINA RESULT:      -7.8      1.426      1.780
REMARK  Name = 
REMARK  8 active torsions:
REMARK  status: ('A' for Active; 'I' for Inactive)
REMARK    1  A    between atoms: C_1  and  O_2
REMARK    2  A    between atoms: O_2  and  C_3
REMARK    3  A    between atoms: C_5  and  N_6
REMARK    4  A    between atoms: C_13  and  O_14
REMARK    5  A    between atoms: O_14  and  C_15
REMARK    6  A    between atoms: C_19  and  C_21
REMARK    7  A    between atoms: C_31  and  O_32
REMARK    8  A    between atoms: O_32  and  C_33
REMARK                            x       y       z     vdW  Elec       q    Type
REMARK                         _______ _______ _______ _____ _____    ______ ____
ROOT
ATOM      1  N   UNL     1       4.161   3.533  17.222  0.00  0.00    +0.000 N 
ATOM      2  C   UNL     1       4.094   2.133  17.646  0.00  0.00    +0.000 C 
ATOM      3  C   UNL     1       4.184   2.060  19.166  0.00  0.00    +0.000 C 
ATOM      4  C   UNL     1       3.224   3.023  19.818  0.00  0.00    +0.000 A 
ATOM      5  N   UNL     1       2.903   2.781  21.108  0.00  0.00    +0.000 NA
ATOM      6  C   UNL     1       2.105   3.684  21.706  0.00  0.00    +0.000 A 
ATOM      7  N   UNL     1       1.619   4.800  21.148  0.00  0.00    +0.000 NA
ATOM      8  C   UNL     1       1.978   5.005  19.865  0.00  0.00    +0.000 A 
ATOM      9  C   UNL     1       2.770   4.137  19.136  0.00  0.00    +0.000 A 
ATOM     10  C   UNL     1       3.091   4.410  17.700  0.00  0.00    +0.000 C 
ENDROOT
BRANCH   1  13
ATOM     11  C   UNL     1       6.948   5.659  16.000  0.00  0.00    +0.000 A 
ATOM     12  C   UNL     1       5.927   5.142  16.808  0.00  0.00    +0.000 A 
ATOM     13  C   UNL     1       5.170   4.032  16.427  0.00  0.00    +0.000 A 
ATOM     14  C   UNL     1       5.494   3.494  15.182  0.00  0.00    +0.000 A 
ATOM     15  N   UNL     1       6.452   3.958  14.352  0.00  0.00    +0.000 NA
ATOM     16  C   UNL     1       7.159   5.031  14.769  0.00  0.00    +0.000 A 
BRANCH  11  18
ATOM     17  C   UNL     1       7.316   7.401  17.566  0.00  0.00    +0.000 C 
ATOM     18  O   UNL     1       7.700   6.751  16.352  0.00  0.00    +0.000 OA
ENDBRANCH  11  18
BRANCH  16  19
ATOM     19  O   UNL     1       8.133   5.521  13.917  0.00  0.00    +0.000 OA
ATOM     20  C   UNL     1       7.805   5.301  12.541  0.00  0.00    +0.000 C 
ENDBRANCH  16  19
ENDBRANCH   1  13
BRANCH   8  21
ATOM     21  O   UNL     1       1.526   6.130  19.217  0.00  0.00    +0.000 OA
BRANCH  21  22
ATOM     22  C   UNL     1       2.017   7.352  19.762  0.00  0.00    +0.000 C 
ATOM     23  C   UNL     1       1.797   8.452  18.717  0.00  0.00    +0.000 C 
ATOM     24  C   UNL     1       1.652   9.702  19.556  0.00  0.00    +0.000 C 
ATOM     25  N   UNL     1       0.924   9.241  20.721  0.00  0.00    +0.000 N 
ATOM     26  C   UNL     1       0.048   9.968  21.517  0.00  0.00    +0.000 C 
ATOM     27  O   UNL     1      -0.615   9.405  22.391  0.00  0.00    +0.000 OA
ATOM     28  C   UNL     1       1.188   7.828  20.964  0.00  0.00    +0.000 C 
BRANCH  26  29
ATOM     29  C   UNL     1      -0.078  11.384  21.264  0.00  0.00    +0.000 A 
ATOM     30  C   UNL     1      -0.952  12.101  20.476  0.00  0.00    +0.000 A 
ATOM     31  N   UNL     1      -0.669  13.446  20.549  0.00  0.00    +0.000 NA
ATOM     32  C   UNL     1       0.329  13.498  21.400  0.00  0.00    +0.000 A 
ATOM     33  O   UNL     1       0.737  12.299  21.887  0.00  0.00    +0.000 OA
ENDBRANCH  26  29
ENDBRANCH  21  22
ENDBRANCH   8  21
TORSDOF 6
ENDMDL
MODEL 4
REMARK VINA RESULT:      -7.6      0.944      1.777
REMARK  Name = 
REMARK  8 active torsions:
REMARK  status: ('A' for Active; 'I' for Inactive)
REMARK    1  A    between atoms: C_1  and  O_2
REMARK    2  A    between atoms: O_2  and  C_3
REMARK    3  A    between atoms: C_5  and  N_6
REMARK    4  A    between atoms: C_13  and  O_14
REMARK    5  A    between atoms: O_14  and  C_15
REMARK    6  A    between atoms: C_19  and  C_21
REMARK    7  A    between atoms: C_31  and  O_32
REMARK    8  A    between atoms: O_32  and  C_33
REMARK                            x       y       z     vdW  Elec       q    Type
REMARK                         _______ _______ _______ _____ _____    ______ ____
ROOT
ATOM      1  N   UNL     1       3.814   4.253  16.839  0.00  0.00    +0.000 N 
ATOM      2  C   UNL     1       3.055   3.005  16.739  0.00  0.00    +0.000 C 
ATOM      3  C   UNL     1       3.102   2.275  18.077  0.00  0.00    +0.000 C 
ATOM      4  C   UNL     1       2.761   3.200  19.217  0.00  0.00    +0.000 A 
ATOM      5  N   UNL     1       2.367   2.620  20.373  0.00  0.00    +0.000 NA
ATOM      6  C   UNL     1       2.134   3.447  21.408  0.00  0.00    +0.000 A 
ATOM      7  N   UNL     1       2.273   4.778  21.402  0.00  0.00    +0.000 NA
ATOM      8  C   UNL     1       2.681   5.309  20.232  0.00  0.00    +0.000 A 
ATOM      9  C   UNL     1       2.925   4.568  19.091  0.00  0.00    +0.000 A 
ATOM     10  C   UNL     1       3.334   5.232  17.814  0.00  0.00    +0.000 C 
ENDROOT
BRANCH   1  13
ATOM     11  C   UNL     1       6.326   4.101  14.110  0.00  0.00    +0.000 A 
ATOM     12  C   UNL     1       5.185   3.844  14.881  0.00  0.00    +0.000 A 
ATOM     13  C   UNL     1       4.934   4.516  16.079  0.00  0.00    +0.000 A 
ATOM     14  C   UNL     1       5.909   5.440  16.455  0.00  0.00    +0.000 A 
ATOM     15  N   UNL     1       7.035   5.716  15.766  0.00  0.00    +0.000 NA
ATOM     16  C   UNL     1       7.229   5.044  14.610  0.00  0.00    +0.000 A 
BRANCH  11  18
ATOM     17  C   UNL     1       5.468   3.219  12.083  0.00  0.00    +0.000 C 
ATOM     18  O   UNL     1       6.595   3.451  12.932  0.00  0.00    +0.000 OA
ENDBRANCH  11  18
BRANCH  16  19
ATOM     19  O   UNL     1       8.389   5.312  13.905  0.00  0.00    +0.000 OA
ATOM     20  C   UNL     1       8.119   5.881  12.620  0.00  0.00    +0.000 C 
ENDBRANCH  16  19
ENDBRANCH   1  13
BRANCH   8  21
ATOM     21  O   UNL     1       2.853   6.669  20.140  0.00  0.00    +0.000 OA
BRANCH  21  22
ATOM     22  C   UNL     1       1.657   7.389  19.852  0.00  0.00    +0.000 C 
ATOM     23  C   UNL     1       1.229   8.116  21.131  0.00  0.00    +0.000 C 
ATOM     24  C   UNL     1       0.480   9.322  20.611  0.00  0.00    +0.000 C 
ATOM     25  N   UNL     1       1.228   9.696  19.426  0.00  0.00    +0.000 N 
ATOM     26  C   UNL     1       1.377  10.964  18.880  0.00  0.00    +0.000 C 
ATOM     27  O   UNL     1       2.165  11.155  17.952  0.00  0.00    +0.000 OA
ATOM     28  C   UNL     1       1.890   8.531  18.852  0.00  0.00    +0.000 C 
BRANCH  26  29
ATOM     29  C   UNL     1       0.607  12.041  19.456  0.00  0.00    +0.000 A 
ATOM     30  C   UNL     1       0.938  13.022  20.367  0.00  0.00    +0.000 A 
ATOM     31  N   UNL     1      -0.149  13.826  20.619  0.00  0.00    +0.000 NA
ATOM     32  C   UNL     1      -1.078  13.336  19.832  0.00  0.00    +0.000 A 
ATOM     33  O   UNL     1      -0.698  12.266  19.087  0.00  0.00    +0.000 OA
ENDBRANCH  26  29
ENDBRANCH  21  22
ENDBRANCH   8  21
TORSDOF 6
ENDMDL
MODEL 5
REMARK VINA RESULT:      -7.2      3.360     10.113
REMARK  Name = 
REMARK  8 active torsions:
REMARK  status: ('A' for Active; 'I' for Inactive)
REMARK    1  A    between atoms: C_1  and  O_2
REMARK    2  A    between atoms: O_2  and  C_3
REMARK    3  A    between atoms: C_5  and  N_6
REMARK    4  A    between atoms: C_13  and  O_14
REMARK    5  A    between atoms: O_14  and  C_15
REMARK    6  A    between atoms: C_19  and  C_21
REMARK    7  A    between atoms: C_31  and  O_32
REMARK    8  A    between atoms: O_32  and  C_33
REMARK                            x       y       z     vdW  Elec       q    Type
REMARK                         _______ _______ _______ _____ _____    ______ ____
ROOT
ATOM      1  N   UNL     1      -2.478  12.407  20.818  0.00  0.00    +0.000 N 
ATOM      2  C   UNL     1      -2.645  12.759  22.230  0.00  0.00    +0.000 C 
ATOM      3  C   UNL     1      -2.291  11.554  23.096  0.00  0.00    +0.000 C 
ATOM      4  C   UNL     1      -0.970  10.955  22.687  0.00  0.00    +0.000 A 
ATOM      5  N   UNL     1      -0.350  10.172  23.597  0.00  0.00    +0.000 NA
ATOM      6  C   UNL     1       0.791   9.580  23.200  0.00  0.00    +0.000 A 
ATOM      7  N   UNL     1       1.354   9.683  21.990  0.00  0.00    +0.000 NA
ATOM      8  C   UNL     1       0.692  10.463  21.112  0.00  0.00    +0.000 A 
ATOM      9  C   UNL     1      -0.474  11.143  21.410  0.00  0.00    +0.000 A 
ATOM     10  C   UNL     1      -1.130  12.028  20.396  0.00  0.00    +0.000 C 
ENDROOT
BRANCH   1  13
ATOM     11  C   UNL     1      -4.490  11.735  17.771  0.00  0.00    +0.000 A 
ATOM     12  C   UNL     1      -3.439  11.727  18.698  0.00  0.00    +0.000 A 
ATOM     13  C   UNL     1      -3.518  12.410  19.914  0.00  0.00    +0.000 A 
ATOM     14  C   UNL     1      -4.707  13.109  20.123  0.00  0.00    +0.000 A 
ATOM     15  N   UNL     1      -5.744  13.168  19.263  0.00  0.00    +0.000 NA
ATOM     16  C   UNL     1      -5.620  12.487  18.103  0.00  0.00    +0.000 A 
BRANCH  11  18
ATOM     17  C   UNL     1      -3.134  10.987  15.975  0.00  0.00    +0.000 C 
ATOM     18  O   UNL     1      -4.432  11.076  16.569  0.00  0.00    +0.000 OA
ENDBRANCH  11  18
BRANCH  16  19
ATOM     19  O   UNL     1      -6.674  12.556  17.209  0.00  0.00    +0.000 OA
ATOM     20  C   UNL     1      -6.975  13.905  16.834  0.00  0.00    +0.000 C 
ENDBRANCH  16  19
ENDBRANCH   1  13
BRANCH   8  21
ATOM     21  O   UNL     1       1.199  10.619  19.844  0.00  0.00    +0.000 OA
BRANCH  21  22
ATOM     22  C   UNL     1       1.057   9.468  19.015  0.00  0.00    +0.000 C 
ATOM     23  C   UNL     1       2.103   9.564  17.899  0.00  0.00    +0.000 C 
ATOM     24  C   UNL     1       2.374   8.117  17.553  0.00  0.00    +0.000 C 
ATOM     25  N   UNL     1       2.312   7.448  18.837  0.00  0.00    +0.000 N 
ATOM     26  C   UNL     1       2.994   6.305  19.233  0.00  0.00    +0.000 C 
ATOM     27  O   UNL     1       2.957   5.931  20.407  0.00  0.00    +0.000 OA
ATOM     28  C   UNL     1       1.435   8.172  19.749  0.00  0.00    +0.000 C 
BRANCH  26  29
ATOM     29  C   UNL     1       3.763   5.598  18.236  0.00  0.00    +0.000 A 
ATOM     30  C   UNL     1       3.431   4.571  17.379  0.00  0.00    +0.000 A 
ATOM     31  N   UNL     1       4.518   4.219  16.611  0.00  0.00    +0.000 NA
ATOM     32  C   UNL     1       5.446   5.063  16.998  0.00  0.00    +0.000 A 
ATOM     33  O   UNL     1       5.068   5.936  17.965  0.00  0.00    +0.000 OA
ENDBRANCH  26  29
ENDBRANCH  21  22
ENDBRANCH   8  21
TORSDOF 6
ENDMDL
MODEL 6
REMARK VINA RESULT:      -7.2      1.499      2.383
REMARK  Name = 
REMARK  8 active torsions:
REMARK  status: ('A' for Active; 'I' for Inactive)
REMARK    1  A    between atoms: C_1  and  O_2
REMARK    2  A    between atoms: O_2  and  C_3
REMARK    3  A    between atoms: C_5  and  N_6
REMARK    4  A    between atoms: C_13  and  O_14
REMARK    5  A    between atoms: O_14  and  C_15
REMARK    6  A    between atoms: C_19  and  C_21
REMARK    7  A    between atoms: C_31  and  O_32
REMARK    8  A    between atoms: O_32  and  C_33
REMARK                            x       y       z     vdW  Elec       q    Type
REMARK                         _______ _______ _______ _____ _____    ______ ____
ROOT
ATOM      1  N   UNL     1       4.277   3.844  16.986  0.00  0.00    +0.000 N 
ATOM      2  C   UNL     1       4.222   2.505  17.575  0.00  0.00    +0.000 C 
ATOM      3  C   UNL     1       4.296   2.618  19.094  0.00  0.00    +0.000 C 
ATOM      4  C   UNL     1       3.319   3.640  19.615  0.00  0.00    +0.000 A 
ATOM      5  N   UNL     1       2.986   3.552  20.922  0.00  0.00    +0.000 NA
ATOM      6  C   UNL     1       2.171   4.511  21.399  0.00  0.00    +0.000 A 
ATOM      7  N   UNL     1       1.679   5.544  20.706  0.00  0.00    +0.000 NA
ATOM      8  C   UNL     1       2.049   5.598  19.411  0.00  0.00    +0.000 A 
ATOM      9  C   UNL     1       2.859   4.658  18.800  0.00  0.00    +0.000 A 
ATOM     10  C   UNL     1       3.193   4.759  17.344  0.00  0.00    +0.000 C 
ENDROOT
BRANCH   1  13
ATOM     11  C   UNL     1       6.476   4.134  14.009  0.00  0.00    +0.000 A 
ATOM     12  C   UNL     1       5.444   3.725  14.863  0.00  0.00    +0.000 A 
ATOM     13  C   UNL     1       5.290   4.256  16.146  0.00  0.00    +0.000 A 
ATOM     14  C   UNL     1       6.246   5.202  16.514  0.00  0.00    +0.000 A 
ATOM     15  N   UNL     1       7.271   5.621  15.744  0.00  0.00    +0.000 NA
ATOM     16  C   UNL     1       7.374   5.082  14.510  0.00  0.00    +0.000 A 
BRANCH  11  18
ATOM     17  C   UNL     1       5.455   3.210  12.079  0.00  0.00    +0.000 C 
ATOM     18  O   UNL     1       6.650   3.624  12.748  0.00  0.00    +0.000 OA
ENDBRANCH  11  18
BRANCH  16  19
ATOM     19  O   UNL     1       8.432   5.496  13.720  0.00  0.00    +0.000 OA
ATOM     20  C   UNL     1       8.006   5.891  12.412  0.00  0.00    +0.000 C 
ENDBRANCH  16  19
ENDBRANCH   1  13
BRANCH   8  21
ATOM     21  O   UNL     1       1.592   6.630  18.627  0.00  0.00    +0.000 OA
BRANCH  21  22
ATOM     22  C   UNL     1       2.158   7.899  18.948  0.00  0.00    +0.000 C 
ATOM     23  C   UNL     1       2.035   8.793  17.709  0.00  0.00    +0.000 C 
ATOM     24  C   UNL     1       1.964  10.186  18.293  0.00  0.00    +0.000 C 
ATOM     25  N   UNL     1       1.183  10.003  19.501  0.00  0.00    +0.000 N 
ATOM     26  C   UNL     1       0.346  10.923  20.119  0.00  0.00    +0.000 C 
ATOM     27  O   UNL     1      -0.370  10.581  21.062  0.00  0.00    +0.000 OA
ATOM     28  C   UNL     1       1.343   8.647  20.013  0.00  0.00    +0.000 C 
BRANCH  26  29
ATOM     29  C   UNL     1       0.325  12.271  19.601  0.00  0.00    +0.000 A 
ATOM     30  C   UNL     1      -0.571  12.926  18.782  0.00  0.00    +0.000 A 
ATOM     31  N   UNL     1      -0.154  14.216  18.553  0.00  0.00    +0.000 NA
ATOM     32  C   UNL     1       0.946  14.309  19.264  0.00  0.00    +0.000 A 
ATOM     33  O   UNL     1       1.297  13.183  19.936  0.00  0.00    +0.000 OA
ENDBRANCH  26  29
ENDBRANCH  21  22
ENDBRANCH   8  21
TORSDOF 6
ENDMDL
MODEL 7
REMARK VINA RESULT:      -7.0      3.590      9.408
REMARK  Name = 
REMARK  8 active torsions:
REMARK  status: ('A' for Active; 'I' for Inactive)
REMARK    1  A    between atoms: C_1  and  O_2
REMARK    2  A    between atoms: O_2  and  C_3
REMARK    3  A    between atoms: C_5  and  N_6
REMARK    4  A    between atoms: C_13  and  O_14
REMARK    5  A    between atoms: O_14  and  C_15
REMARK    6  A    between atoms: C_19  and  C_21
REMARK    7  A    between atoms: C_31  and  O_32
REMARK    8  A    between atoms: O_32  and  C_33
REMARK                            x       y       z     vdW  Elec       q    Type
REMARK                         _______ _______ _______ _____ _____    ______ ____
ROOT
ATOM      1  N   UNL     1      -1.267  11.528  19.516  0.00  0.00    +0.000 N 
ATOM      2  C   UNL     1      -1.672  12.455  20.575  0.00  0.00    +0.000 C 
ATOM      3  C   UNL     1      -1.858  11.684  21.877  0.00  0.00    +0.000 C 
ATOM      4  C   UNL     1      -0.676  10.791  22.158  0.00  0.00    +0.000 A 
ATOM      5  N   UNL     1      -0.515  10.381  23.435  0.00  0.00    +0.000 NA
ATOM      6  C   UNL     1       0.497   9.525  23.666  0.00  0.00    +0.000 A 
ATOM      7  N   UNL     1       1.341   9.036  22.750  0.00  0.00    +0.000 NA
ATOM      8  C   UNL     1       1.133   9.463  21.488  0.00  0.00    +0.000 A 
ATOM      9  C   UNL     1       0.144  10.361  21.131  0.00  0.00    +0.000 A 
ATOM     10  C   UNL     1      -0.001  10.825  19.715  0.00  0.00    +0.000 C 
ENDROOT
BRANCH   1  13
ATOM     11  C   UNL     1      -4.129  11.472  17.152  0.00  0.00    +0.000 A 
ATOM     12  C   UNL     1      -3.355  11.710  18.295  0.00  0.00    +0.000 A 
ATOM     13  C   UNL     1      -2.023  11.299  18.386  0.00  0.00    +0.000 A 
ATOM     14  C   UNL     1      -1.535  10.623  17.268  0.00  0.00    +0.000 A 
ATOM     15  N   UNL     1      -2.236  10.348  16.149  0.00  0.00    +0.000 NA
ATOM     16  C   UNL     1      -3.518  10.771  16.109  0.00  0.00    +0.000 A 
BRANCH  11  18
ATOM     17  C   UNL     1      -6.329  11.324  18.026  0.00  0.00    +0.000 C 
ATOM     18  O   UNL     1      -5.440  11.862  17.043  0.00  0.00    +0.000 OA
ENDBRANCH  11  18
BRANCH  16  19
ATOM     19  O   UNL     1      -4.249  10.480  14.970  0.00  0.00    +0.000 OA
ATOM     20  C   UNL     1      -3.428   9.947  13.925  0.00  0.00    +0.000 C 
ENDBRANCH  16  19
ENDBRANCH   1  13
BRANCH   8  21
ATOM     21  O   UNL     1       1.952   9.006  20.484  0.00  0.00    +0.000 OA
BRANCH  21  22
ATOM     22  C   UNL     1       1.468   7.837  19.826  0.00  0.00    +0.000 C 
ATOM     23  C   UNL     1       2.491   7.448  18.753  0.00  0.00    +0.000 C 
ATOM     24  C   UNL     1       2.314   5.951  18.633  0.00  0.00    +0.000 C 
ATOM     25  N   UNL     1       2.057   5.533  19.997  0.00  0.00    +0.000 N 
ATOM     26  C   UNL     1       2.364   4.313  20.584  0.00  0.00    +0.000 C 
ATOM     27  O   UNL     1       2.220   4.149  21.797  0.00  0.00    +0.000 OA
ATOM     28  C   UNL     1       1.441   6.615  20.755  0.00  0.00    +0.000 C 
BRANCH  26  29
ATOM     29  C   UNL     1       2.883   3.266  19.734  0.00  0.00    +0.000 A 
ATOM     30  C   UNL     1       2.273   2.456  18.800  0.00  0.00    +0.000 A 
ATOM     31  N   UNL     1       3.189   1.592  18.246  0.00  0.00    +0.000 NA
ATOM     32  C   UNL     1       4.316   1.932  18.828  0.00  0.00    +0.000 A 
ATOM     33  O   UNL     1       4.219   2.943  19.729  0.00  0.00    +0.000 OA
ENDBRANCH  26  29
ENDBRANCH  21  22
ENDBRANCH   8  21
TORSDOF 6
ENDMDL
MODEL 8
REMARK VINA RESULT:      -6.9      1.530      1.673
REMARK  Name = 
REMARK  8 active torsions:
REMARK  status: ('A' for Active; 'I' for Inactive)
REMARK    1  A    between atoms: C_1  and  O_2
REMARK    2  A    between atoms: O_2  and  C_3
REMARK    3  A    between atoms: C_5  and  N_6
REMARK    4  A    between atoms: C_13  and  O_14
REMARK    5  A    between atoms: O_14  and  C_15
REMARK    6  A    between atoms: C_19  and  C_21
REMARK    7  A    between atoms: C_31  and  O_32
REMARK    8  A    between atoms: O_32  and  C_33
REMARK                            x       y       z     vdW  Elec       q    Type
REMARK                         _______ _______ _______ _____ _____    ______ ____
ROOT
ATOM      1  N   UNL     1       3.696   4.334  17.124  0.00  0.00    +0.000 N 
ATOM      2  C   UNL     1       2.958   3.082  16.945  0.00  0.00    +0.000 C 
ATOM      3  C   UNL     1       2.981   2.292  18.249  0.00  0.00    +0.000 C 
ATOM      4  C   UNL     1       2.594   3.158  19.421  0.00  0.00    +0.000 A 
ATOM      5  N   UNL     1       2.178   2.520  20.537  0.00  0.00    +0.000 NA
ATOM      6  C   UNL     1       1.906   3.294  21.603  0.00  0.00    +0.000 A 
ATOM      7  N   UNL     1       2.024   4.626  21.662  0.00  0.00    +0.000 NA
ATOM      8  C   UNL     1       2.455   5.216  20.530  0.00  0.00    +0.000 A 
ATOM      9  C   UNL     1       2.742   4.532  19.363  0.00  0.00    +0.000 A 
ATOM     10  C   UNL     1       3.174   5.260  18.129  0.00  0.00    +0.000 C 
ENDROOT
BRANCH   1  13
ATOM     11  C   UNL     1       6.866   5.972  16.100  0.00  0.00    +0.000 A 
ATOM     12  C   UNL     1       5.715   5.644  16.829  0.00  0.00    +0.000 A 
ATOM     13  C   UNL     1       4.831   4.647  16.408  0.00  0.00    +0.000 A 
ATOM     14  C   UNL     1       5.171   4.024  15.208  0.00  0.00    +0.000 A 
ATOM     15  N   UNL     1       6.253   4.309  14.454  0.00  0.00    +0.000 NA
ATOM     16  C   UNL     1       7.079   5.276  14.907  0.00  0.00    +0.000 A 
BRANCH  11  18
ATOM     17  C   UNL     1       7.745   7.258  17.889  0.00  0.00    +0.000 C 
ATOM     18  O   UNL     1       7.745   6.949  16.492  0.00  0.00    +0.000 OA
ENDBRANCH  11  18
BRANCH  16  19
ATOM     19  O   UNL     1       8.183   5.584  14.131  0.00  0.00    +0.000 OA
ATOM     20  C   UNL     1       7.970   5.287  12.748  0.00  0.00    +0.000 C 
ENDBRANCH  16  19
ENDBRANCH   1  13
BRANCH   8  21
ATOM     21  O   UNL     1       2.609   6.581  20.505  0.00  0.00    +0.000 OA
BRANCH  21  22
ATOM     22  C   UNL     1       1.425   7.294  20.155  0.00  0.00    +0.000 C 
ATOM     23  C   UNL     1       0.442   7.170  21.324  0.00  0.00    +0.000 C 
ATOM     24  C   UNL     1      -0.383   8.433  21.218  0.00  0.00    +0.000 C 
ATOM     25  N   UNL     1       0.582   9.430  20.798  0.00  0.00    +0.000 N 
ATOM     26  C   UNL     1       0.569  10.792  21.068  0.00  0.00    +0.000 C 
ATOM     27  O   UNL     1       1.535  11.497  20.770  0.00  0.00    +0.000 OA
ATOM     28  C   UNL     1       1.666   8.807  20.048  0.00  0.00    +0.000 C 
BRANCH  26  29
ATOM     29  C   UNL     1      -0.592  11.337  21.732  0.00  0.00    +0.000 A 
ATOM     30  C   UNL     1      -0.995  11.306  23.050  0.00  0.00    +0.000 A 
ATOM     31  N   UNL     1      -2.193  11.965  23.199  0.00  0.00    +0.000 NA
ATOM     32  C   UNL     1      -2.451  12.402  21.988  0.00  0.00    +0.000 A 
ATOM     33  O   UNL     1      -1.527  12.077  21.048  0.00  0.00    +0.000 OA
ENDBRANCH  26  29
ENDBRANCH  21  22
ENDBRANCH   8  21
TORSDOF 6
ENDMDL
MODEL 9
REMARK VINA RESULT:      -6.8      2.398      4.279
REMARK  Name = 
REMARK  8 active torsions:
REMARK  status: ('A' for Active; 'I' for Inactive)
REMARK    1  A    between atoms: C_1  and  O_2
REMARK    2  A    between atoms: O_2  and  C_3
REMARK    3  A    between atoms: C_5  and  N_6
REMARK    4  A    between atoms: C_13  and  O_14
REMARK    5  A    between atoms: O_14  and  C_15
REMARK    6  A    between atoms: C_19  and  C_21
REMARK    7  A    between atoms: C_31  and  O_32
REMARK    8  A    between atoms: O_32  and  C_33
REMARK                            x       y       z     vdW  Elec       q    Type
REMARK                         _______ _______ _______ _____ _____    ______ ____
ROOT
ATOM      1  N   UNL     1       2.721   6.669  18.305  0.00  0.00    +0.000 N 
ATOM      2  C   UNL     1       1.958   5.688  19.081  0.00  0.00    +0.000 C 
ATOM      3  C   UNL     1       1.878   6.146  20.533  0.00  0.00    +0.000 C 
ATOM      4  C   UNL     1       1.447   7.587  20.631  0.00  0.00    +0.000 A 
ATOM      5  N   UNL     1       0.945   7.993  21.818  0.00  0.00    +0.000 NA
ATOM      6  C   UNL     1       0.632   9.297  21.922  0.00  0.00    +0.000 A 
ATOM      7  N   UNL     1       0.786  10.224  20.969  0.00  0.00    +0.000 NA
ATOM      8  C   UNL     1       1.303   9.775  19.807  0.00  0.00    +0.000 A 
ATOM      9  C   UNL     1       1.639   8.455  19.571  0.00  0.00    +0.000 A 
ATOM     10  C   UNL     1       2.167   8.021  18.239  0.00  0.00    +0.000 C 
ENDROOT
BRANCH   1  13
ATOM     11  C   UNL     1       6.162   6.987  16.950  0.00  0.00    +0.000 A 
ATOM     12  C   UNL     1       4.958   7.285  17.602  0.00  0.00    +0.000 A 
ATOM     13  C   UNL     1       3.907   6.368  17.670  0.00  0.00    +0.000 A 
ATOM     14  C   UNL     1       4.139   5.152  17.028  0.00  0.00    +0.000 A 
ATOM     15  N   UNL     1       5.267   4.815  16.370  0.00  0.00    +0.000 NA
ATOM     16  C   UNL     1       6.257   5.734  16.337  0.00  0.00    +0.000 A 
BRANCH  11  18
ATOM     17  C   UNL     1       8.026   7.974  18.033  0.00  0.00    +0.000 C 
ATOM     18  O   UNL     1       7.206   7.873  16.866  0.00  0.00    +0.000 OA
ENDBRANCH  11  18
BRANCH  16  19
ATOM     19  O   UNL     1       7.411   5.402  15.650  0.00  0.00    +0.000 OA
ATOM     20  C   UNL     1       7.131   4.845  14.362  0.00  0.00    +0.000 C 
ENDBRANCH  16  19
ENDBRANCH   1  13
BRANCH   8  21
ATOM     21  O   UNL     1       1.499  10.662  18.776  0.00  0.00    +0.000 OA
BRANCH  21  22
ATOM     22  C   UNL     1       1.981  11.938  19.191  0.00  0.00    +0.000 C 
ATOM     23  C   UNL     1       2.466  12.683  17.943  0.00  0.00    +0.000 C 
ATOM     24  C   UNL     1       2.272  14.138  18.310  0.00  0.00    +0.000 C 
ATOM     25  N   UNL     1       1.043  14.128  19.079  0.00  0.00    +0.000 N 
ATOM     26  C   UNL     1       0.103  15.144  19.192  0.00  0.00    +0.000 C 
ATOM     27  O   UNL     1      -0.970  14.942  19.764  0.00  0.00    +0.000 OA
ATOM     28  C   UNL     1       0.859  12.837  19.731  0.00  0.00    +0.000 C 
BRANCH  26  29
ATOM     29  C   UNL     1       0.415  16.421  18.593  0.00  0.00    +0.000 A 
ATOM     30  C   UNL     1       1.460  17.298  18.793  0.00  0.00    +0.000 A 
ATOM     31  N   UNL     1       1.317  18.403  17.986  0.00  0.00    +0.000 NA
ATOM     32  C   UNL     1       0.225  18.142  17.306  0.00  0.00    +0.000 A 
ATOM     33  O   UNL     1      -0.372  16.960  17.603  0.00  0.00    +0.000 OA
ENDBRANCH  26  29
ENDBRANCH  21  22
ENDBRANCH   8  21
TORSDOF 6
ENDMDL
