MODEL 1
REMARK VINA RESULT:      -9.1      0.000      0.000
REMARK  Name = 
REMARK  5 active torsions:
REMARK  status: ('A' for Active; 'I' for Inactive)
REMARK    1  A    between atoms: C_1  and  C_2
REMARK    2  A    between atoms: N_4  and  C_5
REMARK    3  A    between atoms: C_9  and  O_10
REMARK    4  A    between atoms: O_10  and  C_11
REMARK    5  A    between atoms: C_13  and  C_14
REMARK                            x       y       z     vdW  Elec       q    Type
REMARK                         _______ _______ _______ _____ _____    ______ ____
ROOT
ATOM      1  C   UNL     1       3.199   5.847  19.671  0.00  0.00    +0.000 A 
ATOM      2  N   UNL     1       4.537   5.946  19.442  0.00  0.00    +0.000 NA
ATOM      3  C   UNL     1       5.060   4.889  18.818  0.00  0.00    +0.000 A 
ATOM      4  N   UNL     1       4.713   3.647  19.217  0.00  0.00    +0.000 NA
ATOM      5  C   UNL     1       3.422   3.489  19.425  0.00  0.00    +0.000 A 
ATOM      6  C   UNL     1       2.877   2.260  19.078  0.00  0.00    +0.000 A 
ATOM      7  C   UNL     1       1.505   2.020  19.130  0.00  0.00    +0.000 A 
ATOM      8  C   UNL     1       0.671   2.995  19.643  0.00  0.00    +0.000 A 
ATOM      9  C   UNL     1       1.190   4.276  19.932  0.00  0.00    +0.000 A 
ATOM     10  C   UNL     1       2.570   4.567  19.735  0.00  0.00    +0.000 A 
ENDROOT
BRANCH   3  11
ATOM     11  C   UNL     1       4.879   4.909  17.296  0.00  0.00    +0.000 A 
ATOM     12  C   UNL     1       4.855   6.108  16.592  0.00  0.00    +0.000 A 
ATOM     13  C   UNL     1       5.361   6.130  15.288  0.00  0.00    +0.000 A 
ATOM     14  C   UNL     1       5.908   4.978  14.735  0.00  0.00    +0.000 A 
ATOM     15  C   UNL     1       5.848   3.814  15.461  0.00  0.00    +0.000 A 
ATOM     16  N   UNL     1       5.279   3.755  16.676  0.00  0.00    +0.000 NA
ENDBRANCH   3  11
BRANCH   1  17
ATOM     17  O   UNL     1       2.526   6.770  18.833  0.00  0.00    +0.000 OA
BRANCH  17  22
ATOM     18  C   UNL     1       0.284   9.650  18.609  0.00  0.00    +0.000 A 
ATOM     19  C   UNL     1       0.031   9.816  19.967  0.00  0.00    +0.000 A 
ATOM     20  C   UNL     1       0.772   9.135  20.944  0.00  0.00    +0.000 A 
ATOM     21  C   UNL     1       1.755   8.218  20.587  0.00  0.00    +0.000 A 
ATOM     22  C   UNL     1       1.949   7.945  19.246  0.00  0.00    +0.000 A 
ATOM     23  C   UNL     1       1.251   8.690  18.252  0.00  0.00    +0.000 A 
BRANCH  18  27
ATOM     24  C   UNL     1      -2.337  10.877  16.125  0.00  0.00    +0.000 C 
ATOM     25  C   UNL     1      -1.828  10.163  17.349  0.00  0.00    +0.000 C 
ATOM     26  O   UNL     1      -2.619   9.500  18.015  0.00  0.00    +0.000 OA
ATOM     27  N   UNL     1      -0.470  10.347  17.613  0.00  0.00    +0.000 N 
ATOM     28  H   UNL     1       0.007  11.090  17.111  0.00  0.00    +0.000 HD
ENDBRANCH  18  27
ENDBRANCH  17  22
ENDBRANCH   1  17
TORSDOF 4
ENDMDL
MODEL 2
REMARK VINA RESULT:      -8.8      1.530      1.557
REMARK  Name = 
REMARK  5 active torsions:
REMARK  status: ('A' for Active; 'I' for Inactive)
REMARK    1  A    between atoms: C_1  and  C_2
REMARK    2  A    between atoms: N_4  and  C_5
REMARK    3  A    between atoms: C_9  and  O_10
REMARK    4  A    between atoms: O_10  and  C_11
REMARK    5  A    between atoms: C_13  and  C_14
REMARK                            x       y       z     vdW  Elec       q    Type
REMARK                         _______ _______ _______ _____ _____    ______ ____
ROOT
ATOM      1  C   UNL     1       3.204   5.525  19.951  0.00  0.00    +0.000 A 
ATOM      2  N   UNL     1       4.538   5.600  19.691  0.00  0.00    +0.000 NA
ATOM      3  C   UNL     1       4.984   4.651  18.867  0.00  0.00    +0.000 A 
ATOM      4  N   UNL     1       4.583   3.374  19.050  0.00  0.00    +0.000 NA
ATOM      5  C   UNL     1       3.293   3.242  19.276  0.00  0.00    +0.000 A 
ATOM      6  C   UNL     1       2.671   2.125  18.736  0.00  0.00    +0.000 A 
ATOM      7  C   UNL     1       1.292   1.944  18.798  0.00  0.00    +0.000 A 
ATOM      8  C   UNL     1       0.526   2.848  19.511  0.00  0.00    +0.000 A 
ATOM      9  C   UNL     1       1.123   4.029  20.004  0.00  0.00    +0.000 A 
ATOM     10  C   UNL     1       2.509   4.285  19.808  0.00  0.00    +0.000 A 
ENDROOT
BRANCH   3  11
ATOM     11  C   UNL     1       4.758   4.955  17.381  0.00  0.00    +0.000 A 
ATOM     12  C   UNL     1       4.819   6.257  16.899  0.00  0.00    +0.000 A 
ATOM     13  C   UNL     1       5.284   6.469  15.597  0.00  0.00    +0.000 A 
ATOM     14  C   UNL     1       5.709   5.393  14.827  0.00  0.00    +0.000 A 
ATOM     15  C   UNL     1       5.568   4.128  15.341  0.00  0.00    +0.000 A 
ATOM     16  N   UNL     1       5.035   3.901  16.552  0.00  0.00    +0.000 NA
ENDBRANCH   3  11
BRANCH   1  17
ATOM     17  O   UNL     1       2.557   6.615  19.321  0.00  0.00    +0.000 OA
BRANCH  17  22
ATOM     18  C   UNL     1       0.673   9.738  19.585  0.00  0.00    +0.000 A 
ATOM     19  C   UNL     1       0.004   9.471  20.775  0.00  0.00    +0.000 A 
ATOM     20  C   UNL     1       0.348   8.380  21.587  0.00  0.00    +0.000 A 
ATOM     21  C   UNL     1       1.341   7.486  21.200  0.00  0.00    +0.000 A 
ATOM     22  C   UNL     1       1.944   7.659  19.967  0.00  0.00    +0.000 A 
ATOM     23  C   UNL     1       1.648   8.807  19.177  0.00  0.00    +0.000 A 
BRANCH  18  27
ATOM     24  C   UNL     1      -0.104  13.177  18.129  0.00  0.00    +0.000 C 
ATOM     25  C   UNL     1       0.526  12.195  19.082  0.00  0.00    +0.000 C 
ATOM     26  O   UNL     1       1.162  12.630  20.039  0.00  0.00    +0.000 OA
ATOM     27  N   UNL     1       0.323  10.853  18.758  0.00  0.00    +0.000 N 
ATOM     28  H   UNL     1      -0.029  10.644  17.830  0.00  0.00    +0.000 HD
ENDBRANCH  18  27
ENDBRANCH  17  22
ENDBRANCH   1  17
TORSDOF 4
ENDMDL
MODEL 3
REMARK VINA RESULT:      -8.6      1.860      2.638
REMARK  Name = 
REMARK  5 active torsions:
REMARK  status: ('A' for Active; 'I' for Inactive)
REMARK    1  A    between atoms: C_1  and  C_2
REMARK    2  A    between atoms: N_4  and  C_5
REMARK    3  A    between atoms: C_9  and  O_10
REMARK    4  A    between atoms: O_10  and  C_11
REMARK    5  A    between atoms: C_13  and  C_14
REMARK                            x       y       z     vdW  Elec       q    Type
REMARK                         _______ _______ _______ _____ _____    ______ ____
ROOT
ATOM      1  C   UNL     1       3.718   5.571  19.464  0.00  0.00    +0.000 A 
ATOM      2  N   UNL     1       5.061   5.556  19.685  0.00  0.00    +0.000 NA
ATOM      3  C   UNL     1       5.676   4.469  19.215  0.00  0.00    +0.000 A 
ATOM      4  N   UNL     1       5.123   3.255  19.423  0.00  0.00    +0.000 NA
ATOM      5  C   UNL     1       3.828   3.207  19.194  0.00  0.00    +0.000 A 
ATOM      6  C   UNL     1       3.332   2.038  18.632  0.00  0.00    +0.000 A 
ATOM      7  C   UNL     1       2.005   1.919  18.227  0.00  0.00    +0.000 A 
ATOM      8  C   UNL     1       1.126   2.953  18.487  0.00  0.00    +0.000 A 
ATOM      9  C   UNL     1       1.620   4.178  18.987  0.00  0.00    +0.000 A 
ATOM     10  C   UNL     1       3.006   4.349  19.261  0.00  0.00    +0.000 A 
ENDROOT
BRANCH   3  11
ATOM     11  C   UNL     1       6.003   4.533  17.719  0.00  0.00    +0.000 A 
ATOM     12  C   UNL     1       5.324   3.740  16.802  0.00  0.00    +0.000 A 
ATOM     13  C   UNL     1       5.111   4.237  15.512  0.00  0.00    +0.000 A 
ATOM     14  C   UNL     1       5.544   5.515  15.180  0.00  0.00    +0.000 A 
ATOM     15  C   UNL     1       6.259   6.225  16.113  0.00  0.00    +0.000 A 
ATOM     16  N   UNL     1       6.554   5.724  17.324  0.00  0.00    +0.000 NA
ENDBRANCH   3  11
BRANCH   1  17
ATOM     17  O   UNL     1       3.429   6.565  18.497  0.00  0.00    +0.000 OA
BRANCH  17  22
ATOM     18  C   UNL     1       1.343   9.062  20.166  0.00  0.00    +0.000 A 
ATOM     19  C   UNL     1       1.125   9.902  19.080  0.00  0.00    +0.000 A 
ATOM     20  C   UNL     1       1.469   9.525  17.774  0.00  0.00    +0.000 A 
ATOM     21  C   UNL     1       2.098   8.310  17.523  0.00  0.00    +0.000 A 
ATOM     22  C   UNL     1       2.433   7.504  18.595  0.00  0.00    +0.000 A 
ATOM     23  C   UNL     1       2.018   7.852  19.913  0.00  0.00    +0.000 A 
BRANCH  18  27
ATOM     24  C   UNL     1      -0.382   9.707  23.506  0.00  0.00    +0.000 C 
ATOM     25  C   UNL     1      -0.136   9.006  22.197  0.00  0.00    +0.000 C 
ATOM     26  O   UNL     1      -0.911   8.117  21.850  0.00  0.00    +0.000 OA
ATOM     27  N   UNL     1       0.989   9.446  21.499  0.00  0.00    +0.000 N 
ATOM     28  H   UNL     1       1.653  10.025  22.002  0.00  0.00    +0.000 HD
ENDBRANCH  18  27
ENDBRANCH  17  22
ENDBRANCH   1  17
TORSDOF 4
ENDMDL
MODEL 4
REMARK VINA RESULT:      -8.4      2.282      4.650
REMARK  Name = 
REMARK  5 active torsions:
REMARK  status: ('A' for Active; 'I' for Inactive)
REMARK    1  A    between atoms: C_1  and  C_2
REMARK    2  A    between atoms: N_4  and  C_5
REMARK    3  A    between atoms: C_9  and  O_10
REMARK    4  A    between atoms: O_10  and  C_11
REMARK    5  A    between atoms: C_13  and  C_14
REMARK                            x       y       z     vdW  Elec       q    Type
REMARK                         _______ _______ _______ _____ _____    ______ ____
ROOT
ATOM      1  C   UNL     1       3.545   6.331  17.550  0.00  0.00    +0.000 A 
ATOM      2  N   UNL     1       2.658   5.298  17.531  0.00  0.00    +0.000 NA
ATOM      3  C   UNL     1       3.180   4.129  17.906  0.00  0.00    +0.000 A 
ATOM      4  N   UNL     1       4.387   3.759  17.425  0.00  0.00    +0.000 NA
ATOM      5  C   UNL     1       5.291   4.715  17.448  0.00  0.00    +0.000 A 
ATOM      6  C   UNL     1       6.597   4.338  17.734  0.00  0.00    +0.000 A 
ATOM      7  C   UNL     1       7.613   5.273  17.913  0.00  0.00    +0.000 A 
ATOM      8  C   UNL     1       7.343   6.611  17.695  0.00  0.00    +0.000 A 
ATOM      9  C   UNL     1       6.011   7.026  17.478  0.00  0.00    +0.000 A 
ATOM     10  C   UNL     1       4.947   6.081  17.445  0.00  0.00    +0.000 A 
ENDROOT
BRANCH   3  11
ATOM     11  C   UNL     1       3.254   3.935  19.425  0.00  0.00    +0.000 A 
ATOM     12  C   UNL     1       2.281   4.467  20.263  0.00  0.00    +0.000 A 
ATOM     13  C   UNL     1       1.958   3.779  21.438  0.00  0.00    +0.000 A 
ATOM     14  C   UNL     1       2.578   2.570  21.727  0.00  0.00    +0.000 A 
ATOM     15  C   UNL     1       3.570   2.128  20.887  0.00  0.00    +0.000 A 
ATOM     16  N   UNL     1       3.958   2.824  19.807  0.00  0.00    +0.000 NA
ENDBRANCH   3  11
BRANCH   1  17
ATOM     17  O   UNL     1       3.201   7.205  18.609  0.00  0.00    +0.000 OA
BRANCH  17  22
ATOM     18  C   UNL     1       0.757   9.595  19.908  0.00  0.00    +0.000 A 
ATOM     19  C   UNL     1       0.980  10.626  19.001  0.00  0.00    +0.000 A 
ATOM     20  C   UNL     1       1.755  10.439  17.847  0.00  0.00    +0.000 A 
ATOM     21  C   UNL     1       2.383   9.223  17.597  0.00  0.00    +0.000 A 
ATOM     22  C   UNL     1       2.276   8.216  18.539  0.00  0.00    +0.000 A 
ATOM     23  C   UNL     1       1.428   8.380  19.672  0.00  0.00    +0.000 A 
BRANCH  18  27
ATOM     24  C   UNL     1      -0.645   9.751  23.452  0.00  0.00    +0.000 C 
ATOM     25  C   UNL     1       0.428   9.701  22.397  0.00  0.00    +0.000 C 
ATOM     26  O   UNL     1       1.600   9.603  22.754  0.00  0.00    +0.000 OA
ATOM     27  N   UNL     1      -0.037   9.786  21.084  0.00  0.00    +0.000 N 
ATOM     28  H   UNL     1      -0.997  10.082  20.947  0.00  0.00    +0.000 HD
ENDBRANCH  18  27
ENDBRANCH  17  22
ENDBRANCH   1  17
TORSDOF 4
ENDMDL
MODEL 5
REMARK VINA RESULT:      -8.3      1.442      3.873
REMARK  Name = 
REMARK  5 active torsions:
REMARK  status: ('A' for Active; 'I' for Inactive)
REMARK    1  A    between atoms: C_1  and  C_2
REMARK    2  A    between atoms: N_4  and  C_5
REMARK    3  A    between atoms: C_9  and  O_10
REMARK    4  A    between atoms: O_10  and  C_11
REMARK    5  A    between atoms: C_13  and  C_14
REMARK                            x       y       z     vdW  Elec       q    Type
REMARK                         _______ _______ _______ _____ _____    ______ ____
ROOT
ATOM      1  C   UNL     1       2.737   6.797  17.869  0.00  0.00    +0.000 A 
ATOM      2  N   UNL     1       1.818   5.795  17.936  0.00  0.00    +0.000 NA
ATOM      3  C   UNL     1       2.351   4.575  18.027  0.00  0.00    +0.000 A 
ATOM      4  N   UNL     1       3.390   4.246  17.228  0.00  0.00    +0.000 NA
ATOM      5  C   UNL     1       4.323   5.172  17.151  0.00  0.00    +0.000 A 
ATOM      6  C   UNL     1       5.637   4.733  17.065  0.00  0.00    +0.000 A 
ATOM      7  C   UNL     1       6.715   5.614  17.109  0.00  0.00    +0.000 A 
ATOM      8  C   UNL     1       6.472   6.974  17.129  0.00  0.00    +0.000 A 
ATOM      9  C   UNL     1       5.149   7.443  17.292  0.00  0.00    +0.000 A 
ATOM     10  C   UNL     1       4.060   6.533  17.399  0.00  0.00    +0.000 A 
ENDROOT
BRANCH   3  11
ATOM     11  C   UNL     1       2.771   4.179  19.447  0.00  0.00    +0.000 A 
ATOM     12  C   UNL     1       1.972   4.488  20.542  0.00  0.00    +0.000 A 
ATOM     13  C   UNL     1       1.964   3.613  21.634  0.00  0.00    +0.000 A 
ATOM     14  C   UNL     1       2.715   2.445  21.594  0.00  0.00    +0.000 A 
ATOM     15  C   UNL     1       3.526   2.228  20.508  0.00  0.00    +0.000 A 
ATOM     16  N   UNL     1       3.618   3.105  19.494  0.00  0.00    +0.000 NA
ENDBRANCH   3  11
BRANCH   1  17
ATOM     17  O   UNL     1       2.698   7.529  19.080  0.00  0.00    +0.000 OA
BRANCH  17  22
ATOM     18  C   UNL     1      -0.057   9.847  18.442  0.00  0.00    +0.000 A 
ATOM     19  C   UNL     1      -0.533   9.958  19.744  0.00  0.00    +0.000 A 
ATOM     20  C   UNL     1       0.187   9.459  20.839  0.00  0.00    +0.000 A 
ATOM     21  C   UNL     1       1.386   8.779  20.656  0.00  0.00    +0.000 A 
ATOM     22  C   UNL     1       1.827   8.550  19.366  0.00  0.00    +0.000 A 
ATOM     23  C   UNL     1       1.136   9.121  18.258  0.00  0.00    +0.000 A 
BRANCH  18  27
ATOM     24  C   UNL     1      -2.600  10.574  15.694  0.00  0.00    +0.000 C 
ATOM     25  C   UNL     1      -2.121  10.061  17.027  0.00  0.00    +0.000 C 
ATOM     26  O   UNL     1      -2.912   9.447  17.739  0.00  0.00    +0.000 OA
ATOM     27  N   UNL     1      -0.791  10.359  17.326  0.00  0.00    +0.000 N 
ATOM     28  H   UNL     1      -0.328  11.055  16.751  0.00  0.00    +0.000 HD
ENDBRANCH  18  27
ENDBRANCH  17  22
ENDBRANCH   1  17
TORSDOF 4
ENDMDL
MODEL 6
REMARK VINA RESULT:      -8.1      2.747      8.748
REMARK  Name = 
REMARK  5 active torsions:
REMARK  status: ('A' for Active; 'I' for Inactive)
REMARK    1  A    between atoms: C_1  and  C_2
REMARK    2  A    between atoms: N_4  and  C_5
REMARK    3  A    between atoms: C_9  and  O_10
REMARK    4  A    between atoms: O_10  and  C_11
REMARK    5  A    between atoms: C_13  and  C_14
REMARK                            x       y       z     vdW  Elec       q    Type
REMARK                         _______ _______ _______ _____ _____    ______ ____
ROOT
ATOM      1  C   UNL     1       0.022  10.980  18.686  0.00  0.00    +0.000 A 
ATOM      2  N   UNL     1       0.177  12.072  19.483  0.00  0.00    +0.000 NA
ATOM      3  C   UNL     1      -0.971  12.664  19.820  0.00  0.00    +0.000 A 
ATOM      4  N   UNL     1      -1.913  12.867  18.874  0.00  0.00    +0.000 NA
ATOM      5  C   UNL     1      -2.123  11.828  18.092  0.00  0.00    +0.000 A 
ATOM      6  C   UNL     1      -3.430  11.606  17.679  0.00  0.00    +0.000 A 
ATOM      7  C   UNL     1      -3.795  10.471  16.960  0.00  0.00    +0.000 A 
ATOM      8  C   UNL     1      -2.813   9.590  16.550  0.00  0.00    +0.000 A 
ATOM      9  C   UNL     1      -1.490   9.752  17.019  0.00  0.00    +0.000 A 
ATOM     10  C   UNL     1      -1.148  10.833  17.880  0.00  0.00    +0.000 A 
ENDROOT
BRANCH   3  11
ATOM     11  C   UNL     1      -1.693  12.003  21.000  0.00  0.00    +0.000 A 
ATOM     12  C   UNL     1      -0.980  11.416  22.038  0.00  0.00    +0.000 A 
ATOM     13  C   UNL     1      -1.524  11.446  23.327  0.00  0.00    +0.000 A 
ATOM     14  C   UNL     1      -2.736  12.087  23.554  0.00  0.00    +0.000 A 
ATOM     15  C   UNL     1      -3.417  12.596  22.476  0.00  0.00    +0.000 A 
ATOM     16  N   UNL     1      -2.953  12.492  21.220  0.00  0.00    +0.000 NA
ENDBRANCH   3  11
BRANCH   1  17
ATOM     17  O   UNL     1       0.346   9.823  19.435  0.00  0.00    +0.000 OA
BRANCH  17  22
ATOM     18  C   UNL     1       2.373   6.797  19.768  0.00  0.00    +0.000 A 
ATOM     19  C   UNL     1       2.940   6.793  18.498  0.00  0.00    +0.000 A 
ATOM     20  C   UNL     1       2.832   7.894  17.637  0.00  0.00    +0.000 A 
ATOM     21  C   UNL     1       2.098   9.018  18.003  0.00  0.00    +0.000 A 
ATOM     22  C   UNL     1       1.425   9.005  19.211  0.00  0.00    +0.000 A 
ATOM     23  C   UNL     1       1.596   7.919  20.117  0.00  0.00    +0.000 A 
BRANCH  18  27
ATOM     24  C   UNL     1       1.981   3.495  21.635  0.00  0.00    +0.000 C 
ATOM     25  C   UNL     1       1.853   4.442  20.472  0.00  0.00    +0.000 C 
ATOM     26  O   UNL     1       1.230   4.074  19.479  0.00  0.00    +0.000 OA
ATOM     27  N   UNL     1       2.486   5.674  20.647  0.00  0.00    +0.000 N 
ATOM     28  H   UNL     1       3.142   5.756  21.417  0.00  0.00    +0.000 HD
ENDBRANCH  18  27
ENDBRANCH  17  22
ENDBRANCH   1  17
TORSDOF 4
ENDMDL
MODEL 7
REMARK VINA RESULT:      -8.1      3.074      6.102
REMARK  Name = 
REMARK  5 active torsions:
REMARK  status: ('A' for Active; 'I' for Inactive)
REMARK    1  A    between atoms: C_1  and  C_2
REMARK    2  A    between atoms: N_4  and  C_5
REMARK    3  A    between atoms: C_9  and  O_10
REMARK    4  A    between atoms: O_10  and  C_11
REMARK    5  A    between atoms: C_13  and  C_14
REMARK                            x       y       z     vdW  Elec       q    Type
REMARK                         _______ _______ _______ _____ _____    ______ ____
ROOT
ATOM      1  C   UNL     1       4.303   3.348  18.540  0.00  0.00    +0.000 A 
ATOM      2  N   UNL     1       3.956   4.032  17.416  0.00  0.00    +0.000 NA
ATOM      3  C   UNL     1       2.831   4.739  17.536  0.00  0.00    +0.000 A 
ATOM      4  N   UNL     1       1.756   4.176  18.128  0.00  0.00    +0.000 NA
ATOM      5  C   UNL     1       2.033   3.525  19.239  0.00  0.00    +0.000 A 
ATOM      6  C   UNL     1       1.091   3.593  20.257  0.00  0.00    +0.000 A 
ATOM      7  C   UNL     1       1.329   3.056  21.520  0.00  0.00    +0.000 A 
ATOM      8  C   UNL     1       2.490   2.339  21.738  0.00  0.00    +0.000 A 
ATOM      9  C   UNL     1       3.494   2.320  20.745  0.00  0.00    +0.000 A 
ATOM     10  C   UNL     1       3.311   2.999  19.508  0.00  0.00    +0.000 A 
ENDROOT
BRANCH   3  11
ATOM     11  C   UNL     1       3.020   6.103  18.212  0.00  0.00    +0.000 A 
ATOM     12  C   UNL     1       3.237   7.251  17.460  0.00  0.00    +0.000 A 
ATOM     13  C   UNL     1       2.745   8.470  17.940  0.00  0.00    +0.000 A 
ATOM     14  C   UNL     1       2.024   8.509  19.127  0.00  0.00    +0.000 A 
ATOM     15  C   UNL     1       1.894   7.349  19.850  0.00  0.00    +0.000 A 
ATOM     16  N   UNL     1       2.442   6.190  19.451  0.00  0.00    +0.000 NA
ENDBRANCH   3  11
BRANCH   1  17
ATOM     17  O   UNL     1       5.456   3.949  19.100  0.00  0.00    +0.000 OA
BRANCH  17  22
ATOM     18  C   UNL     1       7.155   5.298  16.156  0.00  0.00    +0.000 A 
ATOM     19  C   UNL     1       7.402   6.581  16.635  0.00  0.00    +0.000 A 
ATOM     20  C   UNL     1       7.217   6.913  17.985  0.00  0.00    +0.000 A 
ATOM     21  C   UNL     1       6.720   5.981  18.889  0.00  0.00    +0.000 A 
ATOM     22  C   UNL     1       6.354   4.732  18.420  0.00  0.00    +0.000 A 
ATOM     23  C   UNL     1       6.613   4.370  17.066  0.00  0.00    +0.000 A 
BRANCH  18  27
ATOM     24  C   UNL     1       6.886   3.969  12.591  0.00  0.00    +0.000 C 
ATOM     25  C   UNL     1       6.377   4.413  13.937  0.00  0.00    +0.000 C 
ATOM     26  O   UNL     1       5.182   4.279  14.188  0.00  0.00    +0.000 OA
ATOM     27  N   UNL     1       7.348   4.959  14.779  0.00  0.00    +0.000 N 
ATOM     28  H   UNL     1       8.239   5.208  14.364  0.00  0.00    +0.000 HD
ENDBRANCH  18  27
ENDBRANCH  17  22
ENDBRANCH   1  17
TORSDOF 4
ENDMDL
MODEL 8
REMARK VINA RESULT:      -8.1      1.671      2.188
REMARK  Name = 
REMARK  5 active torsions:
REMARK  status: ('A' for Active; 'I' for Inactive)
REMARK    1  A    between atoms: C_1  and  C_2
REMARK    2  A    between atoms: N_4  and  C_5
REMARK    3  A    between atoms: C_9  and  O_10
REMARK    4  A    between atoms: O_10  and  C_11
REMARK    5  A    between atoms: C_13  and  C_14
REMARK                            x       y       z     vdW  Elec       q    Type
REMARK                         _______ _______ _______ _____ _____    ______ ____
ROOT
ATOM      1  C   UNL     1       2.984   6.166  19.457  0.00  0.00    +0.000 A 
ATOM      2  N   UNL     1       4.308   6.401  19.246  0.00  0.00    +0.000 NA
ATOM      3  C   UNL     1       4.990   5.331  18.830  0.00  0.00    +0.000 A 
ATOM      4  N   UNL     1       4.785   4.141  19.435  0.00  0.00    +0.000 NA
ATOM      5  C   UNL     1       3.516   3.851  19.637  0.00  0.00    +0.000 A 
ATOM      6  C   UNL     1       3.147   2.520  19.500  0.00  0.00    +0.000 A 
ATOM      7  C   UNL     1       1.816   2.112  19.561  0.00  0.00    +0.000 A 
ATOM      8  C   UNL     1       0.842   3.041  19.875  0.00  0.00    +0.000 A 
ATOM      9  C   UNL     1       1.181   4.410  19.944  0.00  0.00    +0.000 A 
ATOM     10  C   UNL     1       2.520   4.843  19.732  0.00  0.00    +0.000 A 
ENDROOT
BRANCH   3  11
ATOM     11  C   UNL     1       4.877   5.064  17.325  0.00  0.00    +0.000 A 
ATOM     12  C   UNL     1       4.846   6.112  16.412  0.00  0.00    +0.000 A 
ATOM     13  C   UNL     1       5.411   5.915  15.146  0.00  0.00    +0.000 A 
ATOM     14  C   UNL     1       6.020   4.705  14.838  0.00  0.00    +0.000 A 
ATOM     15  C   UNL     1       5.966   3.693  15.763  0.00  0.00    +0.000 A 
ATOM     16  N   UNL     1       5.344   3.834  16.945  0.00  0.00    +0.000 NA
ENDBRANCH   3  11
BRANCH   1  17
ATOM     17  O   UNL     1       2.240   6.833  18.454  0.00  0.00    +0.000 OA
BRANCH  17  22
ATOM     18  C   UNL     1       0.920   9.791  20.152  0.00  0.00    +0.000 A 
ATOM     19  C   UNL     1       1.450  10.761  19.309  0.00  0.00    +0.000 A 
ATOM     20  C   UNL     1       2.035  10.431  18.078  0.00  0.00    +0.000 A 
ATOM     21  C   UNL     1       2.158   9.104  17.678  0.00  0.00    +0.000 A 
ATOM     22  C   UNL     1       1.746   8.110  18.547  0.00  0.00    +0.000 A 
ATOM     23  C   UNL     1       1.085   8.447  19.763  0.00  0.00    +0.000 A 
BRANCH  18  27
ATOM     24  C   UNL     1      -1.069  11.337  23.015  0.00  0.00    +0.000 C 
ATOM     25  C   UNL     1      -0.753  11.003  21.581  0.00  0.00    +0.000 C 
ATOM     26  O   UNL     1      -1.447  11.497  20.696  0.00  0.00    +0.000 OA
ATOM     27  N   UNL     1       0.321  10.129  21.407  0.00  0.00    +0.000 N 
ATOM     28  H   UNL     1       0.656   9.632  22.225  0.00  0.00    +0.000 HD
ENDBRANCH  18  27
ENDBRANCH  17  22
ENDBRANCH   1  17
TORSDOF 4
ENDMDL
MODEL 9
REMARK VINA RESULT:      -8.0      2.537      8.186
REMARK  Name = 
REMARK  5 active torsions:
REMARK  status: ('A' for Active; 'I' for Inactive)
REMARK    1  A    between atoms: C_1  and  C_2
REMARK    2  A    between atoms: N_4  and  C_5
REMARK    3  A    between atoms: C_9  and  O_10
REMARK    4  A    between atoms: O_10  and  C_11
REMARK    5  A    between atoms: C_13  and  C_14
REMARK                            x       y       z     vdW  Elec       q    Type
REMARK                         _______ _______ _______ _____ _____    ______ ____
ROOT
ATOM      1  C   UNL     1       0.651  10.604  18.674  0.00  0.00    +0.000 A 
ATOM      2  N   UNL     1       1.400  11.580  19.255  0.00  0.00    +0.000 NA
ATOM      3  C   UNL     1       0.685  12.488  19.921  0.00  0.00    +0.000 A 
ATOM      4  N   UNL     1      -0.436  12.989  19.360  0.00  0.00    +0.000 NA
ATOM      5  C   UNL     1      -1.213  12.080  18.807  0.00  0.00    +0.000 A 
ATOM      6  C   UNL     1      -2.583  12.279  18.912  0.00  0.00    +0.000 A 
ATOM      7  C   UNL     1      -3.502  11.325  18.482  0.00  0.00    +0.000 A 
ATOM      8  C   UNL     1      -3.045  10.193  17.834  0.00  0.00    +0.000 A 
ATOM      9  C   UNL     1      -1.657   9.933  17.783  0.00  0.00    +0.000 A 
ATOM     10  C   UNL     1      -0.722  10.839  18.357  0.00  0.00    +0.000 A 
ENDROOT
BRANCH   3  11
ATOM     11  C   UNL     1       0.291  12.057  21.339  0.00  0.00    +0.000 A 
ATOM     12  C   UNL     1      -0.906  12.476  21.908  0.00  0.00    +0.000 A 
ATOM     13  C   UNL     1      -1.560  11.620  22.802  0.00  0.00    +0.000 A 
ATOM     14  C   UNL     1      -1.029  10.365  23.075  0.00  0.00    +0.000 A 
ATOM     15  C   UNL     1       0.185  10.036  22.525  0.00  0.00    +0.000 A 
ATOM     16  N   UNL     1       0.870  10.883  21.741  0.00  0.00    +0.000 NA
ENDBRANCH   3  11
BRANCH   1  17
ATOM     17  O   UNL     1       0.875   9.388  19.365  0.00  0.00    +0.000 OA
BRANCH  17  22
ATOM     18  C   UNL     1       2.720   6.244  19.649  0.00  0.00    +0.000 A 
ATOM     19  C   UNL     1       3.249   6.203  18.364  0.00  0.00    +0.000 A 
ATOM     20  C   UNL     1       3.184   7.308  17.503  0.00  0.00    +0.000 A 
ATOM     21  C   UNL     1       2.532   8.475  17.886  0.00  0.00    +0.000 A 
ATOM     22  C   UNL     1       1.895   8.506  19.113  0.00  0.00    +0.000 A 
ATOM     23  C   UNL     1       2.024   7.412  20.017  0.00  0.00    +0.000 A 
BRANCH  18  27
ATOM     24  C   UNL     1       2.043   3.142  21.763  0.00  0.00    +0.000 C 
ATOM     25  C   UNL     1       1.828   4.109  20.628  0.00  0.00    +0.000 C 
ATOM     26  O   UNL     1       0.861   3.942  19.889  0.00  0.00    +0.000 OA
ATOM     27  N   UNL     1       2.788   5.117  20.528  0.00  0.00    +0.000 N 
ATOM     28  H   UNL     1       3.642   5.003  21.064  0.00  0.00    +0.000 HD
ENDBRANCH  18  27
ENDBRANCH  17  22
ENDBRANCH   1  17
TORSDOF 4
ENDMDL
