MODEL 1
REMARK VINA RESULT:      -8.4      0.000      0.000
REMARK  Name = 
REMARK  8 active torsions:
REMARK  status: ('A' for Active; 'I' for Inactive)
REMARK    1  A    between atoms: C_1  and  O_2
REMARK    2  A    between atoms: O_2  and  C_3
REMARK    3  A    between atoms: C_6  and  C_7
REMARK    4  A    between atoms: C_12  and  C_13
REMARK    5  A    between atoms: C_14  and  C_15
REMARK    6  A    between atoms: C_15  and  O_17
REMARK    7  A    between atoms: O_17  and  C_18
REMARK    8  A    between atoms: C_21  and  C_22
REMARK                            x       y       z     vdW  Elec       q    Type
REMARK                         _______ _______ _______ _____ _____    ______ ____
ROOT
ATOM      1  C   UNL     1       4.690   4.378  19.149  0.00  0.00    +0.000 C 
ATOM      2  N   UNL     1       5.270   3.160  19.688  0.00  0.00    +0.000 N 
ATOM      3  C   UNL     1       4.633   2.304  20.514  0.00  0.00    +0.000 C 
ATOM      4  O   UNL     1       5.225   1.408  21.107  0.00  0.00    +0.000 OA
ATOM      5  N   UNL     1       3.288   2.467  20.619  0.00  0.00    +0.000 N 
ATOM      6  C   UNL     1       2.539   3.428  19.976  0.00  0.00    +0.000 C 
ATOM      7  C   UNL     1       1.060   3.343  20.248  0.00  0.00    +0.000 C 
ATOM      8  C   UNL     1       3.176   4.366  19.237  0.00  0.00    +0.000 C 
ATOM      9  H   UNL     1       6.273   3.029  19.628  0.00  0.00    +0.000 HD
ATOM     10  H   UNL     1       2.838   1.788  21.223  0.00  0.00    +0.000 HD
ENDROOT
BRANCH   1  14
ATOM     11  C   UNL     1       6.508   5.010  15.254  0.00  0.00    +0.000 A 
ATOM     12  C   UNL     1       5.539   4.019  15.421  0.00  0.00    +0.000 A 
ATOM     13  C   UNL     1       4.928   3.820  16.665  0.00  0.00    +0.000 A 
ATOM     14  C   UNL     1       5.296   4.601  17.770  0.00  0.00    +0.000 A 
ATOM     15  C   UNL     1       6.297   5.571  17.598  0.00  0.00    +0.000 A 
ATOM     16  C   UNL     1       6.897   5.776  16.351  0.00  0.00    +0.000 A 
BRANCH  11  18
ATOM     17  C   UNL     1       6.682   4.071  13.097  0.00  0.00    +0.000 C 
ATOM     18  O   UNL     1       7.036   5.117  13.997  0.00  0.00    +0.000 OA
ENDBRANCH  11  18
ENDBRANCH   1  14
BRANCH   8  19
ATOM     19  C   UNL     1       2.493   5.544  18.617  0.00  0.00    +0.000 C 
ATOM     20  O   UNL     1       1.868   5.485  17.569  0.00  0.00    +0.000 OA
BRANCH  19  21
ATOM     21  O   UNL     1       2.679   6.674  19.342  0.00  0.00    +0.000 OA
BRANCH  21  22
ATOM     22  C   UNL     1       1.616   7.649  19.399  0.00  0.00    +0.000 C 
ATOM     23  C   UNL     1       1.923   8.852  18.499  0.00  0.00    +0.000 C 
ATOM     24  C   UNL     1       0.899   9.970  18.684  0.00  0.00    +0.000 C 
ATOM     25  C   UNL     1       0.819  10.427  20.146  0.00  0.00    +0.000 C 
ATOM     26  C   UNL     1      -0.233  11.523  20.317  0.00  0.00    +0.000 C 
ATOM     27  C   UNL     1       0.522   9.236  21.065  0.00  0.00    +0.000 C 
ATOM     28  C   UNL     1       1.523   8.101  20.862  0.00  0.00    +0.000 C 
ENDBRANCH  21  22
ENDBRANCH  19  21
ENDBRANCH   8  19
TORSDOF 5
ENDMDL
MODEL 2
REMARK VINA RESULT:      -8.2      3.371      7.115
REMARK  Name = 
REMARK  8 active torsions:
REMARK  status: ('A' for Active; 'I' for Inactive)
REMARK    1  A    between atoms: C_1  and  O_2
REMARK    2  A    between atoms: O_2  and  C_3
REMARK    3  A    between atoms: C_6  and  C_7
REMARK    4  A    between atoms: C_12  and  C_13
REMARK    5  A    between atoms: C_14  and  C_15
REMARK    6  A    between atoms: C_15  and  O_17
REMARK    7  A    between atoms: O_17  and  C_18
REMARK    8  A    between atoms: C_21  and  C_22
REMARK                            x       y       z     vdW  Elec       q    Type
REMARK                         _______ _______ _______ _____ _____    ______ ____
ROOT
ATOM      1  C   UNL     1       6.406   4.844  17.962  0.00  0.00    +0.000 C 
ATOM      2  N   UNL     1       6.843   4.723  19.342  0.00  0.00    +0.000 N 
ATOM      3  C   UNL     1       7.787   5.494  19.922  0.00  0.00    +0.000 C 
ATOM      4  O   UNL     1       8.270   5.222  21.016  0.00  0.00    +0.000 OA
ATOM      5  N   UNL     1       8.143   6.613  19.239  0.00  0.00    +0.000 N 
ATOM      6  C   UNL     1       7.640   7.009  18.019  0.00  0.00    +0.000 C 
ATOM      7  C   UNL     1       8.188   8.320  17.519  0.00  0.00    +0.000 C 
ATOM      8  C   UNL     1       6.780   6.189  17.370  0.00  0.00    +0.000 C 
ATOM      9  H   UNL     1       6.596   3.888  19.861  0.00  0.00    +0.000 HD
ATOM     10  H   UNL     1       8.831   7.184  19.717  0.00  0.00    +0.000 HD
ENDROOT
BRANCH   1  14
ATOM     11  C   UNL     1       2.229   3.654  17.863  0.00  0.00    +0.000 A 
ATOM     12  C   UNL     1       2.593   4.883  18.416  0.00  0.00    +0.000 A 
ATOM     13  C   UNL     1       3.932   5.289  18.435  0.00  0.00    +0.000 A 
ATOM     14  C   UNL     1       4.934   4.457  17.914  0.00  0.00    +0.000 A 
ATOM     15  C   UNL     1       4.559   3.209  17.391  0.00  0.00    +0.000 A 
ATOM     16  C   UNL     1       3.219   2.810  17.364  0.00  0.00    +0.000 A 
BRANCH  11  18
ATOM     17  C   UNL     1       0.513   2.361  18.838  0.00  0.00    +0.000 C 
ATOM     18  O   UNL     1       0.893   3.362  17.898  0.00  0.00    +0.000 OA
ENDBRANCH  11  18
ENDBRANCH   1  14
BRANCH   8  19
ATOM     19  C   UNL     1       6.283   6.433  15.980  0.00  0.00    +0.000 C 
ATOM     20  O   UNL     1       5.180   6.893  15.730  0.00  0.00    +0.000 OA
BRANCH  19  21
ATOM     21  O   UNL     1       7.192   6.057  15.048  0.00  0.00    +0.000 OA
BRANCH  21  22
ATOM     22  C   UNL     1       6.991   4.815  14.339  0.00  0.00    +0.000 C 
ATOM     23  C   UNL     1       7.500   4.915  12.897  0.00  0.00    +0.000 C 
ATOM     24  C   UNL     1       7.136   3.675  12.082  0.00  0.00    +0.000 C 
ATOM     25  C   UNL     1       5.622   3.427  12.079  0.00  0.00    +0.000 C 
ATOM     26  C   UNL     1       5.279   2.165  11.287  0.00  0.00    +0.000 C 
ATOM     27  C   UNL     1       5.090   3.332  13.515  0.00  0.00    +0.000 C 
ATOM     28  C   UNL     1       5.479   4.554  14.343  0.00  0.00    +0.000 C 
ENDBRANCH  21  22
ENDBRANCH  19  21
ENDBRANCH   8  19
TORSDOF 5
ENDMDL
MODEL 3
REMARK VINA RESULT:      -8.1      0.636      1.207
REMARK  Name = 
REMARK  8 active torsions:
REMARK  status: ('A' for Active; 'I' for Inactive)
REMARK    1  A    between atoms: C_1  and  O_2
REMARK    2  A    between atoms: O_2  and  C_3
REMARK    3  A    between atoms: C_6  and  C_7
REMARK    4  A    between atoms: C_12  and  C_13
REMARK    5  A    between atoms: C_14  and  C_15
REMARK    6  A    between atoms: C_15  and  O_17
REMARK    7  A    between atoms: O_17  and  C_18
REMARK    8  A    between atoms: C_21  and  C_22
REMARK                            x       y       z     vdW  Elec       q    Type
REMARK                         _______ _______ _______ _____ _____    ______ ____
ROOT
ATOM      1  C   UNL     1       4.627   4.308  18.816  0.00  0.00    +0.000 C 
ATOM      2  N   UNL     1       5.244   3.175  19.483  0.00  0.00    +0.000 N 
ATOM      3  C   UNL     1       4.619   2.367  20.365  0.00  0.00    +0.000 C 
ATOM      4  O   UNL     1       5.232   1.559  21.056  0.00  0.00    +0.000 OA
ATOM      5  N   UNL     1       3.266   2.473  20.414  0.00  0.00    +0.000 N 
ATOM      6  C   UNL     1       2.495   3.333  19.663  0.00  0.00    +0.000 C 
ATOM      7  C   UNL     1       1.013   3.200  19.896  0.00  0.00    +0.000 C 
ATOM      8  C   UNL     1       3.114   4.230  18.859  0.00  0.00    +0.000 C 
ATOM      9  H   UNL     1       6.253   3.089  19.465  0.00  0.00    +0.000 HD
ATOM     10  H   UNL     1       2.827   1.831  21.065  0.00  0.00    +0.000 HD
ENDROOT
BRANCH   1  14
ATOM     11  C   UNL     1       6.547   4.650  14.933  0.00  0.00    +0.000 A 
ATOM     12  C   UNL     1       5.436   3.819  15.094  0.00  0.00    +0.000 A 
ATOM     13  C   UNL     1       4.794   3.717  16.333  0.00  0.00    +0.000 A 
ATOM     14  C   UNL     1       5.270   4.434  17.441  0.00  0.00    +0.000 A 
ATOM     15  C   UNL     1       6.409   5.239  17.275  0.00  0.00    +0.000 A 
ATOM     16  C   UNL     1       7.042   5.348  16.033  0.00  0.00    +0.000 A 
BRANCH  11  18
ATOM     17  C   UNL     1       6.501   3.780  12.740  0.00  0.00    +0.000 C 
ATOM     18  O   UNL     1       7.093   4.672  13.680  0.00  0.00    +0.000 OA
ENDBRANCH  11  18
ENDBRANCH   1  14
BRANCH   8  19
ATOM     19  C   UNL     1       2.398   5.311  18.111  0.00  0.00    +0.000 C 
ATOM     20  O   UNL     1       1.299   5.162  17.600  0.00  0.00    +0.000 OA
BRANCH  19  21
ATOM     21  O   UNL     1       3.129   6.450  18.052  0.00  0.00    +0.000 OA
BRANCH  21  22
ATOM     22  C   UNL     1       2.743   7.572  18.875  0.00  0.00    +0.000 C 
ATOM     23  C   UNL     1       1.929   7.109  20.089  0.00  0.00    +0.000 C 
ATOM     24  C   UNL     1       1.362   8.292  20.872  0.00  0.00    +0.000 C 
ATOM     25  C   UNL     1       0.496   9.194  19.984  0.00  0.00    +0.000 C 
ATOM     26  C   UNL     1      -0.035  10.389  20.776  0.00  0.00    +0.000 C 
ATOM     27  C   UNL     1       1.291   9.661  18.758  0.00  0.00    +0.000 C 
ATOM     28  C   UNL     1       1.887   8.485  17.989  0.00  0.00    +0.000 C 
ENDBRANCH  21  22
ENDBRANCH  19  21
ENDBRANCH   8  19
TORSDOF 5
ENDMDL
MODEL 4
REMARK VINA RESULT:      -8.0      3.359      7.253
REMARK  Name = 
REMARK  8 active torsions:
REMARK  status: ('A' for Active; 'I' for Inactive)
REMARK    1  A    between atoms: C_1  and  O_2
REMARK    2  A    between atoms: O_2  and  C_3
REMARK    3  A    between atoms: C_6  and  C_7
REMARK    4  A    between atoms: C_12  and  C_13
REMARK    5  A    between atoms: C_14  and  C_15
REMARK    6  A    between atoms: C_15  and  O_17
REMARK    7  A    between atoms: O_17  and  C_18
REMARK    8  A    between atoms: C_21  and  C_22
REMARK                            x       y       z     vdW  Elec       q    Type
REMARK                         _______ _______ _______ _____ _____    ______ ____
ROOT
ATOM      1  C   UNL     1       6.356   4.838  17.979  0.00  0.00    +0.000 C 
ATOM      2  N   UNL     1       6.810   4.716  19.353  0.00  0.00    +0.000 N 
ATOM      3  C   UNL     1       7.760   5.487  19.922  0.00  0.00    +0.000 C 
ATOM      4  O   UNL     1       8.258   5.214  21.010  0.00  0.00    +0.000 OA
ATOM      5  N   UNL     1       8.105   6.609  19.237  0.00  0.00    +0.000 N 
ATOM      6  C   UNL     1       7.586   7.005  18.024  0.00  0.00    +0.000 C 
ATOM      7  C   UNL     1       8.125   8.318  17.520  0.00  0.00    +0.000 C 
ATOM      8  C   UNL     1       6.719   6.185  17.385  0.00  0.00    +0.000 C 
ATOM      9  H   UNL     1       6.571   3.880  19.873  0.00  0.00    +0.000 HD
ATOM     10  H   UNL     1       8.798   7.180  19.707  0.00  0.00    +0.000 HD
ENDROOT
BRANCH   1  14
ATOM     11  C   UNL     1       2.180   3.641  17.931  0.00  0.00    +0.000 A 
ATOM     12  C   UNL     1       2.550   4.864  18.494  0.00  0.00    +0.000 A 
ATOM     13  C   UNL     1       3.889   5.272  18.496  0.00  0.00    +0.000 A 
ATOM     14  C   UNL     1       4.884   4.449  17.949  0.00  0.00    +0.000 A 
ATOM     15  C   UNL     1       4.502   3.206  17.416  0.00  0.00    +0.000 A 
ATOM     16  C   UNL     1       3.163   2.805  17.405  0.00  0.00    +0.000 A 
BRANCH  11  18
ATOM     17  C   UNL     1       0.477   2.360  18.944  0.00  0.00    +0.000 C 
ATOM     18  O   UNL     1       0.845   3.345  17.983  0.00  0.00    +0.000 OA
ENDBRANCH  11  18
ENDBRANCH   1  14
BRANCH   8  19
ATOM     19  C   UNL     1       6.204   6.431  16.002  0.00  0.00    +0.000 C 
ATOM     20  O   UNL     1       5.163   7.024  15.766  0.00  0.00    +0.000 OA
BRANCH  19  21
ATOM     21  O   UNL     1       7.016   5.893  15.059  0.00  0.00    +0.000 OA
BRANCH  21  22
ATOM     22  C   UNL     1       6.422   5.257  13.907  0.00  0.00    +0.000 C 
ATOM     23  C   UNL     1       5.556   4.063  14.323  0.00  0.00    +0.000 C 
ATOM     24  C   UNL     1       5.065   3.272  13.110  0.00  0.00    +0.000 C 
ATOM     25  C   UNL     1       6.234   2.786  12.244  0.00  0.00    +0.000 C 
ATOM     26  C   UNL     1       5.723   2.026  11.019  0.00  0.00    +0.000 C 
ATOM     27  C   UNL     1       7.119   3.967  11.824  0.00  0.00    +0.000 C 
ATOM     28  C   UNL     1       7.586   4.779  13.029  0.00  0.00    +0.000 C 
ENDBRANCH  21  22
ENDBRANCH  19  21
ENDBRANCH   8  19
TORSDOF 5
ENDMDL
MODEL 5
REMARK VINA RESULT:      -7.6      1.904      6.612
REMARK  Name = 
REMARK  8 active torsions:
REMARK  status: ('A' for Active; 'I' for Inactive)
REMARK    1  A    between atoms: C_1  and  O_2
REMARK    2  A    between atoms: O_2  and  C_3
REMARK    3  A    between atoms: C_6  and  C_7
REMARK    4  A    between atoms: C_12  and  C_13
REMARK    5  A    between atoms: C_14  and  C_15
REMARK    6  A    between atoms: C_15  and  O_17
REMARK    7  A    between atoms: O_17  and  C_18
REMARK    8  A    between atoms: C_21  and  C_22
REMARK                            x       y       z     vdW  Elec       q    Type
REMARK                         _______ _______ _______ _____ _____    ______ ____
ROOT
ATOM      1  C   UNL     1       2.574   4.700  18.376  0.00  0.00    +0.000 C 
ATOM      2  N   UNL     1       1.329   3.965  18.511  0.00  0.00    +0.000 N 
ATOM      3  C   UNL     1       1.236   2.669  18.876  0.00  0.00    +0.000 C 
ATOM      4  O   UNL     1       0.189   2.036  18.773  0.00  0.00    +0.000 OA
ATOM      5  N   UNL     1       2.360   2.116  19.401  0.00  0.00    +0.000 N 
ATOM      6  C   UNL     1       3.569   2.753  19.573  0.00  0.00    +0.000 C 
ATOM      7  C   UNL     1       4.630   1.904  20.221  0.00  0.00    +0.000 C 
ATOM      8  C   UNL     1       3.713   4.016  19.106  0.00  0.00    +0.000 C 
ATOM      9  H   UNL     1       0.484   4.359  18.114  0.00  0.00    +0.000 HD
ATOM     10  H   UNL     1       2.246   1.151  19.691  0.00  0.00    +0.000 HD
ENDROOT
BRANCH   1  14
ATOM     11  C   UNL     1       1.707   8.841  19.364  0.00  0.00    +0.000 A 
ATOM     12  C   UNL     1       1.615   7.853  20.347  0.00  0.00    +0.000 A 
ATOM     13  C   UNL     1       1.913   6.519  20.048  0.00  0.00    +0.000 A 
ATOM     14  C   UNL     1       2.291   6.150  18.749  0.00  0.00    +0.000 A 
ATOM     15  C   UNL     1       2.347   7.147  17.761  0.00  0.00    +0.000 A 
ATOM     16  C   UNL     1       2.059   8.481  18.065  0.00  0.00    +0.000 A 
BRANCH  11  18
ATOM     17  C   UNL     1       0.003  10.423  19.768  0.00  0.00    +0.000 C 
ATOM     18  O   UNL     1       1.393  10.110  19.768  0.00  0.00    +0.000 OA
ENDBRANCH  11  18
ENDBRANCH   1  14
BRANCH   8  19
ATOM     19  C   UNL     1       5.013   4.758  19.097  0.00  0.00    +0.000 C 
ATOM     20  O   UNL     1       5.229   5.747  19.781  0.00  0.00    +0.000 OA
BRANCH  19  21
ATOM     21  O   UNL     1       5.896   4.216  18.224  0.00  0.00    +0.000 OA
BRANCH  21  22
ATOM     22  C   UNL     1       5.901   4.681  16.857  0.00  0.00    +0.000 C 
ATOM     23  C   UNL     1       5.097   3.740  15.953  0.00  0.00    +0.000 C 
ATOM     24  C   UNL     1       5.239   4.116  14.478  0.00  0.00    +0.000 C 
ATOM     25  C   UNL     1       6.708   4.126  14.038  0.00  0.00    +0.000 C 
ATOM     26  C   UNL     1       6.833   4.536  12.570  0.00  0.00    +0.000 C 
ATOM     27  C   UNL     1       7.532   5.055  14.937  0.00  0.00    +0.000 C 
ATOM     28  C   UNL     1       7.369   4.705  16.413  0.00  0.00    +0.000 C 
ENDBRANCH  21  22
ENDBRANCH  19  21
ENDBRANCH   8  19
TORSDOF 5
ENDMDL
MODEL 6
REMARK VINA RESULT:      -7.5      2.228      5.520
REMARK  Name = 
REMARK  8 active torsions:
REMARK  status: ('A' for Active; 'I' for Inactive)
REMARK    1  A    between atoms: C_1  and  O_2
REMARK    2  A    between atoms: O_2  and  C_3
REMARK    3  A    between atoms: C_6  and  C_7
REMARK    4  A    between atoms: C_12  and  C_13
REMARK    5  A    between atoms: C_14  and  C_15
REMARK    6  A    between atoms: C_15  and  O_17
REMARK    7  A    between atoms: O_17  and  C_18
REMARK    8  A    between atoms: C_21  and  C_22
REMARK                            x       y       z     vdW  Elec       q    Type
REMARK                         _______ _______ _______ _____ _____    ______ ____
ROOT
ATOM      1  C   UNL     1       2.083   4.112  19.433  0.00  0.00    +0.000 C 
ATOM      2  N   UNL     1       1.492   3.926  20.746  0.00  0.00    +0.000 N 
ATOM      3  C   UNL     1       1.812   2.932  21.601  0.00  0.00    +0.000 C 
ATOM      4  O   UNL     1       1.144   2.692  22.602  0.00  0.00    +0.000 OA
ATOM      5  N   UNL     1       2.942   2.236  21.309  0.00  0.00    +0.000 N 
ATOM      6  C   UNL     1       3.763   2.449  20.223  0.00  0.00    +0.000 C 
ATOM      7  C   UNL     1       4.973   1.553  20.178  0.00  0.00    +0.000 C 
ATOM      8  C   UNL     1       3.394   3.363  19.295  0.00  0.00    +0.000 C 
ATOM      9  H   UNL     1       0.642   4.429  20.974  0.00  0.00    +0.000 HD
ATOM     10  H   UNL     1       3.168   1.518  21.987  0.00  0.00    +0.000 HD
ENDROOT
BRANCH   1  14
ATOM     11  C   UNL     1       2.103   8.371  18.574  0.00  0.00    +0.000 A 
ATOM     12  C   UNL     1       2.039   7.924  19.895  0.00  0.00    +0.000 A 
ATOM     13  C   UNL     1       2.055   6.556  20.188  0.00  0.00    +0.000 A 
ATOM     14  C   UNL     1       2.115   5.609  19.154  0.00  0.00    +0.000 A 
ATOM     15  C   UNL     1       2.144   6.071  17.828  0.00  0.00    +0.000 A 
ATOM     16  C   UNL     1       2.139   7.439  17.539  0.00  0.00    +0.000 A 
BRANCH  11  18
ATOM     17  C   UNL     1       0.806  10.343  18.567  0.00  0.00    +0.000 C 
ATOM     18  O   UNL     1       2.081   9.728  18.407  0.00  0.00    +0.000 OA
ENDBRANCH  11  18
ENDBRANCH   1  14
BRANCH   8  19
ATOM     19  C   UNL     1       4.118   3.578  18.003  0.00  0.00    +0.000 C 
ATOM     20  O   UNL     1       3.586   3.479  16.908  0.00  0.00    +0.000 OA
BRANCH  19  21
ATOM     21  O   UNL     1       5.428   3.863  18.202  0.00  0.00    +0.000 OA
BRANCH  21  22
ATOM     22  C   UNL     1       5.819   5.236  18.412  0.00  0.00    +0.000 C 
ATOM     23  C   UNL     1       5.568   6.079  17.157  0.00  0.00    +0.000 C 
ATOM     24  C   UNL     1       6.139   7.490  17.300  0.00  0.00    +0.000 C 
ATOM     25  C   UNL     1       7.640   7.462  17.611  0.00  0.00    +0.000 C 
ATOM     26  C   UNL     1       8.187   8.879  17.784  0.00  0.00    +0.000 C 
ATOM     27  C   UNL     1       7.914   6.614  18.861  0.00  0.00    +0.000 C 
ATOM     28  C   UNL     1       7.318   5.215  18.736  0.00  0.00    +0.000 C 
ENDBRANCH  21  22
ENDBRANCH  19  21
ENDBRANCH   8  19
TORSDOF 5
ENDMDL
MODEL 7
REMARK VINA RESULT:      -7.5      1.951      6.538
REMARK  Name = 
REMARK  8 active torsions:
REMARK  status: ('A' for Active; 'I' for Inactive)
REMARK    1  A    between atoms: C_1  and  O_2
REMARK    2  A    between atoms: O_2  and  C_3
REMARK    3  A    between atoms: C_6  and  C_7
REMARK    4  A    between atoms: C_12  and  C_13
REMARK    5  A    between atoms: C_14  and  C_15
REMARK    6  A    between atoms: C_15  and  O_17
REMARK    7  A    between atoms: O_17  and  C_18
REMARK    8  A    between atoms: C_21  and  C_22
REMARK                            x       y       z     vdW  Elec       q    Type
REMARK                         _______ _______ _______ _____ _____    ______ ____
ROOT
ATOM      1  C   UNL     1       2.537   4.691  18.375  0.00  0.00    +0.000 C 
ATOM      2  N   UNL     1       1.307   3.927  18.495  0.00  0.00    +0.000 N 
ATOM      3  C   UNL     1       1.240   2.627  18.853  0.00  0.00    +0.000 C 
ATOM      4  O   UNL     1       0.209   1.972  18.737  0.00  0.00    +0.000 OA
ATOM      5  N   UNL     1       2.371   2.098  19.387  0.00  0.00    +0.000 N 
ATOM      6  C   UNL     1       3.563   2.762  19.574  0.00  0.00    +0.000 C 
ATOM      7  C   UNL     1       4.637   1.934  20.230  0.00  0.00    +0.000 C 
ATOM      8  C   UNL     1       3.684   4.030  19.114  0.00  0.00    +0.000 C 
ATOM      9  H   UNL     1       0.458   4.303  18.090  0.00  0.00    +0.000 HD
ATOM     10  H   UNL     1       2.276   1.130  19.673  0.00  0.00    +0.000 HD
ENDROOT
BRANCH   1  14
ATOM     11  C   UNL     1       1.683   8.793  19.523  0.00  0.00    +0.000 A 
ATOM     12  C   UNL     1       2.072   8.499  18.215  0.00  0.00    +0.000 A 
ATOM     13  C   UNL     1       2.328   7.180  17.825  0.00  0.00    +0.000 A 
ATOM     14  C   UNL     1       2.217   6.132  18.751  0.00  0.00    +0.000 A 
ATOM     15  C   UNL     1       1.859   6.444  20.072  0.00  0.00    +0.000 A 
ATOM     16  C   UNL     1       1.592   7.762  20.457  0.00  0.00    +0.000 A 
BRANCH  11  18
ATOM     17  C   UNL     1       1.379  10.964  18.651  0.00  0.00    +0.000 C 
ATOM     18  O   UNL     1       1.458  10.115  19.792  0.00  0.00    +0.000 OA
ENDBRANCH  11  18
ENDBRANCH   1  14
BRANCH   8  19
ATOM     19  C   UNL     1       4.966   4.801  19.121  0.00  0.00    +0.000 C 
ATOM     20  O   UNL     1       5.147   5.800  19.800  0.00  0.00    +0.000 OA
BRANCH  19  21
ATOM     21  O   UNL     1       5.876   4.272  18.269  0.00  0.00    +0.000 OA
BRANCH  21  22
ATOM     22  C   UNL     1       5.879   4.707  16.892  0.00  0.00    +0.000 C 
ATOM     23  C   UNL     1       5.069   3.749  16.010  0.00  0.00    +0.000 C 
ATOM     24  C   UNL     1       5.208   4.092  14.528  0.00  0.00    +0.000 C 
ATOM     25  C   UNL     1       6.675   4.087  14.083  0.00  0.00    +0.000 C 
ATOM     26  C   UNL     1       6.797   4.465  12.606  0.00  0.00    +0.000 C 
ATOM     27  C   UNL     1       7.506   5.033  14.959  0.00  0.00    +0.000 C 
ATOM     28  C   UNL     1       7.346   4.715  16.443  0.00  0.00    +0.000 C 
ENDBRANCH  21  22
ENDBRANCH  19  21
ENDBRANCH   8  19
TORSDOF 5
ENDMDL
MODEL 8
REMARK VINA RESULT:      -7.4      1.875      6.598
REMARK  Name = 
REMARK  8 active torsions:
REMARK  status: ('A' for Active; 'I' for Inactive)
REMARK    1  A    between atoms: C_1  and  O_2
REMARK    2  A    between atoms: O_2  and  C_3
REMARK    3  A    between atoms: C_6  and  C_7
REMARK    4  A    between atoms: C_12  and  C_13
REMARK    5  A    between atoms: C_14  and  C_15
REMARK    6  A    between atoms: C_15  and  O_17
REMARK    7  A    between atoms: O_17  and  C_18
REMARK    8  A    between atoms: C_21  and  C_22
REMARK                            x       y       z     vdW  Elec       q    Type
REMARK                         _______ _______ _______ _____ _____    ______ ____
ROOT
ATOM      1  C   UNL     1       2.572   4.824  18.314  0.00  0.00    +0.000 C 
ATOM      2  N   UNL     1       1.345   4.055  18.420  0.00  0.00    +0.000 N 
ATOM      3  C   UNL     1       1.284   2.735  18.695  0.00  0.00    +0.000 C 
ATOM      4  O   UNL     1       0.248   2.090  18.567  0.00  0.00    +0.000 OA
ATOM      5  N   UNL     1       2.428   2.170  19.160  0.00  0.00    +0.000 N 
ATOM      6  C   UNL     1       3.628   2.820  19.354  0.00  0.00    +0.000 C 
ATOM      7  C   UNL     1       4.718   1.950  19.923  0.00  0.00    +0.000 C 
ATOM      8  C   UNL     1       3.738   4.115  18.974  0.00  0.00    +0.000 C 
ATOM      9  H   UNL     1       0.485   4.458  18.066  0.00  0.00    +0.000 HD
ATOM     10  H   UNL     1       2.339   1.186  19.384  0.00  0.00    +0.000 HD
ENDROOT
BRANCH   1  14
ATOM     11  C   UNL     1       1.641   8.866  19.604  0.00  0.00    +0.000 A 
ATOM     12  C   UNL     1       1.617   7.816  20.523  0.00  0.00    +0.000 A 
ATOM     13  C   UNL     1       1.937   6.512  20.127  0.00  0.00    +0.000 A 
ATOM     14  C   UNL     1       2.268   6.237  18.792  0.00  0.00    +0.000 A 
ATOM     15  C   UNL     1       2.255   7.297  17.870  0.00  0.00    +0.000 A 
ATOM     16  C   UNL     1       1.946   8.600  18.271  0.00  0.00    +0.000 A 
BRANCH  11  18
ATOM     17  C   UNL     1       1.124  11.119  19.128  0.00  0.00    +0.000 C 
ATOM     18  O   UNL     1       1.312  10.097  20.103  0.00  0.00    +0.000 OA
ENDBRANCH  11  18
ENDBRANCH   1  14
BRANCH   8  19
ATOM     19  C   UNL     1       5.023   4.882  18.994  0.00  0.00    +0.000 C 
ATOM     20  O   UNL     1       5.754   4.947  19.970  0.00  0.00    +0.000 OA
BRANCH  19  21
ATOM     21  O   UNL     1       5.252   5.511  17.815  0.00  0.00    +0.000 OA
BRANCH  21  22
ATOM     22  C   UNL     1       5.879   4.775  16.743  0.00  0.00    +0.000 C 
ATOM     23  C   UNL     1       6.978   5.609  16.073  0.00  0.00    +0.000 C 
ATOM     24  C   UNL     1       7.530   4.919  14.827  0.00  0.00    +0.000 C 
ATOM     25  C   UNL     1       6.420   4.616  13.812  0.00  0.00    +0.000 C 
ATOM     26  C   UNL     1       6.985   3.897  12.587  0.00  0.00    +0.000 C 
ATOM     27  C   UNL     1       5.305   3.790  14.465  0.00  0.00    +0.000 C 
ATOM     28  C   UNL     1       4.772   4.459  15.729  0.00  0.00    +0.000 C 
ENDBRANCH  21  22
ENDBRANCH  19  21
ENDBRANCH   8  19
TORSDOF 5
ENDMDL
MODEL 9
REMARK VINA RESULT:      -7.4      1.926      2.551
REMARK  Name = 
REMARK  8 active torsions:
REMARK  status: ('A' for Active; 'I' for Inactive)
REMARK    1  A    between atoms: C_1  and  O_2
REMARK    2  A    between atoms: O_2  and  C_3
REMARK    3  A    between atoms: C_6  and  C_7
REMARK    4  A    between atoms: C_12  and  C_13
REMARK    5  A    between atoms: C_14  and  C_15
REMARK    6  A    between atoms: C_15  and  O_17
REMARK    7  A    between atoms: O_17  and  C_18
REMARK    8  A    between atoms: C_21  and  C_22
REMARK                            x       y       z     vdW  Elec       q    Type
REMARK                         _______ _______ _______ _____ _____    ______ ____
ROOT
ATOM      1  C   UNL     1       4.361   3.836  19.400  0.00  0.00    +0.000 C 
ATOM      2  N   UNL     1       4.685   2.574  18.759  0.00  0.00    +0.000 N 
ATOM      3  C   UNL     1       3.810   1.568  18.552  0.00  0.00    +0.000 C 
ATOM      4  O   UNL     1       4.173   0.450  18.201  0.00  0.00    +0.000 OA
ATOM      5  N   UNL     1       2.498   1.878  18.716  0.00  0.00    +0.000 N 
ATOM      6  C   UNL     1       1.998   3.107  19.085  0.00  0.00    +0.000 C 
ATOM      7  C   UNL     1       0.495   3.172  19.147  0.00  0.00    +0.000 C 
ATOM      8  C   UNL     1       2.867   4.094  19.410  0.00  0.00    +0.000 C 
ATOM      9  H   UNL     1       5.660   2.323  18.641  0.00  0.00    +0.000 HD
ATOM     10  H   UNL     1       1.867   1.108  18.523  0.00  0.00    +0.000 HD
ENDROOT
BRANCH   1  14
ATOM     11  C   UNL     1       6.940   6.834  17.601  0.00  0.00    +0.000 A 
ATOM     12  C   UNL     1       5.716   6.519  17.010  0.00  0.00    +0.000 A 
ATOM     13  C   UNL     1       4.864   5.572  17.590  0.00  0.00    +0.000 A 
ATOM     14  C   UNL     1       5.239   4.908  18.768  0.00  0.00    +0.000 A 
ATOM     15  C   UNL     1       6.488   5.209  19.334  0.00  0.00    +0.000 A 
ATOM     16  C   UNL     1       7.332   6.163  18.758  0.00  0.00    +0.000 A 
BRANCH  11  18
ATOM     17  C   UNL     1       8.008   8.935  17.707  0.00  0.00    +0.000 C 
ATOM     18  O   UNL     1       7.690   7.773  16.948  0.00  0.00    +0.000 OA
ENDBRANCH  11  18
ENDBRANCH   1  14
BRANCH   8  19
ATOM     19  C   UNL     1       2.452   5.419  19.967  0.00  0.00    +0.000 C 
ATOM     20  O   UNL     1       2.424   5.668  21.163  0.00  0.00    +0.000 OA
BRANCH  19  21
ATOM     21  O   UNL     1       2.090   6.286  18.990  0.00  0.00    +0.000 OA
BRANCH  21  22
ATOM     22  C   UNL     1       2.210   7.703  19.235  0.00  0.00    +0.000 C 
ATOM     23  C   UNL     1       1.107   8.195  20.178  0.00  0.00    +0.000 C 
ATOM     24  C   UNL     1       1.111   9.718  20.306  0.00  0.00    +0.000 C 
ATOM     25  C   UNL     1       0.964  10.399  18.940  0.00  0.00    +0.000 C 
ATOM     26  C   UNL     1       1.003  11.921  19.084  0.00  0.00    +0.000 C 
ATOM     27  C   UNL     1       2.055   9.913  17.977  0.00  0.00    +0.000 C 
ATOM     28  C   UNL     1       2.076   8.391  17.870  0.00  0.00    +0.000 C 
ENDBRANCH  21  22
ENDBRANCH  19  21
ENDBRANCH   8  19
TORSDOF 5
ENDMDL
