MODEL 1
REMARK VINA RESULT:      -7.7      0.000      0.000
REMARK  Name = 
REMARK  9 active torsions:
REMARK  status: ('A' for Active; 'I' for Inactive)
REMARK    1  A    between atoms: C_1  and  O_2
REMARK    2  A    between atoms: O_2  and  C_3
REMARK    3  A    between atoms: C_6  and  C_7
REMARK    4  A    between atoms: C_9  and  C_10
REMARK    5  A    between atoms: C_10  and  N_11
REMARK    6  A    between atoms: N_11  and  C_12
REMARK    7  A    between atoms: C_12  and  C_13
REMARK    8  A    between atoms: C_12  and  C_14
REMARK    9  A    between atoms: C_17  and  C_18
REMARK                            x       y       z     vdW  Elec       q    Type
REMARK                         _______ _______ _______ _____ _____    ______ ____
ROOT
ATOM      1  C   UNL     1       8.319   8.853  18.225  0.00  0.00    +0.000 A 
ATOM      2  N   UNL     1       7.491   8.471  17.270  0.00  0.00    +0.000 NA
ATOM      3  C   UNL     1       7.305   7.119  17.498  0.00  0.00    +0.000 A 
ATOM      4  C   UNL     1       8.045   6.746  18.597  0.00  0.00    +0.000 A 
ATOM      5  O   UNL     1       8.698   7.839  19.068  0.00  0.00    +0.000 OA
ENDROOT
BRANCH   1   9
ATOM      6  C   UNL     1       9.840  12.753  19.135  0.00  0.00    +0.000 A 
ATOM      7  C   UNL     1       9.091  12.535  17.977  0.00  0.00    +0.000 A 
ATOM      8  C   UNL     1       8.596  11.260  17.677  0.00  0.00    +0.000 A 
ATOM      9  C   UNL     1       8.857  10.176  18.527  0.00  0.00    +0.000 A 
ATOM     10  C   UNL     1       9.639  10.402  19.670  0.00  0.00    +0.000 A 
ATOM     11  C   UNL     1      10.129  11.678  19.973  0.00  0.00    +0.000 A 
BRANCH   6  13
ATOM     12  C   UNL     1      10.467  14.804  18.150  0.00  0.00    +0.000 C 
ATOM     13  O   UNL     1      10.264  14.038  19.333  0.00  0.00    +0.000 OA
ENDBRANCH   6  13
ENDBRANCH   1   9
BRANCH   3  14
ATOM     14  C   UNL     1       6.398   6.251  16.685  0.00  0.00    +0.000 C 
BRANCH  14  15
ATOM     15  N   UNL     1       6.629   4.839  16.978  0.00  0.00    +0.000 NA
ATOM     16  H   UNL     1       6.780   4.732  17.978  0.00  0.00    +0.000 HD
BRANCH  15  17
ATOM     17  C   UNL     1       5.564   3.933  16.530  0.00  0.00    +0.000 C 
ATOM     18  C   UNL     1       5.176   4.182  15.064  0.00  0.00    +0.000 C 
BRANCH  17  19
ATOM     19  C   UNL     1       4.379   3.873  17.486  0.00  0.00    +0.000 A 
ATOM     20  C   UNL     1       3.074   3.797  16.972  0.00  0.00    +0.000 A 
ATOM     21  C   UNL     1       1.968   3.768  17.827  0.00  0.00    +0.000 A 
ATOM     22  C   UNL     1       2.141   3.807  19.214  0.00  0.00    +0.000 A 
ATOM     23  C   UNL     1       0.968   3.799  20.148  0.00  0.00    +0.000 C 
ATOM     24  C   UNL     1       3.435   3.858  19.732  0.00  0.00    +0.000 A 
ATOM     25  C   UNL     1       4.541   3.889  18.880  0.00  0.00    +0.000 A 
ENDBRANCH  17  19
ENDBRANCH  15  17
ENDBRANCH  14  15
ENDBRANCH   3  14
TORSDOF 6
ENDMDL
MODEL 2
REMARK VINA RESULT:      -7.7      1.134      1.552
REMARK  Name = 
REMARK  9 active torsions:
REMARK  status: ('A' for Active; 'I' for Inactive)
REMARK    1  A    between atoms: C_1  and  O_2
REMARK    2  A    between atoms: O_2  and  C_3
REMARK    3  A    between atoms: C_6  and  C_7
REMARK    4  A    between atoms: C_9  and  C_10
REMARK    5  A    between atoms: C_10  and  N_11
REMARK    6  A    between atoms: N_11  and  C_12
REMARK    7  A    between atoms: C_12  and  C_13
REMARK    8  A    between atoms: C_12  and  C_14
REMARK    9  A    between atoms: C_17  and  C_18
REMARK                            x       y       z     vdW  Elec       q    Type
REMARK                         _______ _______ _______ _____ _____    ______ ____
ROOT
ATOM      1  C   UNL     1       8.146   8.687  18.084  0.00  0.00    +0.000 A 
ATOM      2  N   UNL     1       7.271   8.355  17.152  0.00  0.00    +0.000 NA
ATOM      3  C   UNL     1       7.073   6.997  17.336  0.00  0.00    +0.000 A 
ATOM      4  C   UNL     1       7.854   6.570  18.386  0.00  0.00    +0.000 A 
ATOM      5  O   UNL     1       8.545   7.634  18.869  0.00  0.00    +0.000 OA
ENDROOT
BRANCH   1   9
ATOM      6  C   UNL     1       9.768  12.525  19.075  0.00  0.00    +0.000 A 
ATOM      7  C   UNL     1       8.994  12.357  17.925  0.00  0.00    +0.000 A 
ATOM      8  C   UNL     1       8.466  11.102  17.598  0.00  0.00    +0.000 A 
ATOM      9  C   UNL     1       8.719   9.989  18.413  0.00  0.00    +0.000 A 
ATOM     10  C   UNL     1       9.526  10.165  19.547  0.00  0.00    +0.000 A 
ATOM     11  C   UNL     1      10.048  11.421  19.877  0.00  0.00    +0.000 A 
BRANCH   6  13
ATOM     12  C   UNL     1      10.488  14.567  18.133  0.00  0.00    +0.000 C 
ATOM     13  O   UNL     1      10.223  13.795  19.301  0.00  0.00    +0.000 OA
ENDBRANCH   6  13
ENDBRANCH   1   9
BRANCH   3  14
ATOM     14  C   UNL     1       6.118   6.176  16.530  0.00  0.00    +0.000 C 
BRANCH  14  15
ATOM     15  N   UNL     1       5.366   5.264  17.387  0.00  0.00    +0.000 NA
ATOM     16  H   UNL     1       5.801   5.242  18.306  0.00  0.00    +0.000 HD
BRANCH  15  17
ATOM     17  C   UNL     1       3.936   5.574  17.517  0.00  0.00    +0.000 C 
ATOM     18  C   UNL     1       3.681   7.088  17.585  0.00  0.00    +0.000 C 
BRANCH  17  19
ATOM     19  C   UNL     1       3.241   4.775  18.612  0.00  0.00    +0.000 A 
ATOM     20  C   UNL     1       2.390   5.431  19.517  0.00  0.00    +0.000 A 
ATOM     21  C   UNL     1       1.761   4.726  20.548  0.00  0.00    +0.000 A 
ATOM     22  C   UNL     1       1.961   3.349  20.693  0.00  0.00    +0.000 A 
ATOM     23  C   UNL     1       1.314   2.578  21.804  0.00  0.00    +0.000 C 
ATOM     24  C   UNL     1       2.785   2.687  19.783  0.00  0.00    +0.000 A 
ATOM     25  C   UNL     1       3.416   3.389  18.753  0.00  0.00    +0.000 A 
ENDBRANCH  17  19
ENDBRANCH  15  17
ENDBRANCH  14  15
ENDBRANCH   3  14
TORSDOF 6
ENDMDL
MODEL 3
REMARK VINA RESULT:      -7.7      0.809      1.370
REMARK  Name = 
REMARK  9 active torsions:
REMARK  status: ('A' for Active; 'I' for Inactive)
REMARK    1  A    between atoms: C_1  and  O_2
REMARK    2  A    between atoms: O_2  and  C_3
REMARK    3  A    between atoms: C_6  and  C_7
REMARK    4  A    between atoms: C_9  and  C_10
REMARK    5  A    between atoms: C_10  and  N_11
REMARK    6  A    between atoms: N_11  and  C_12
REMARK    7  A    between atoms: C_12  and  C_13
REMARK    8  A    between atoms: C_12  and  C_14
REMARK    9  A    between atoms: C_17  and  C_18
REMARK                            x       y       z     vdW  Elec       q    Type
REMARK                         _______ _______ _______ _____ _____    ______ ____
ROOT
ATOM      1  C   UNL     1       8.338   8.821  18.249  0.00  0.00    +0.000 A 
ATOM      2  N   UNL     1       7.479   8.474  17.307  0.00  0.00    +0.000 NA
ATOM      3  C   UNL     1       7.275   7.121  17.511  0.00  0.00    +0.000 A 
ATOM      4  C   UNL     1       8.035   6.711  18.583  0.00  0.00    +0.000 A 
ATOM      5  O   UNL     1       8.720   7.782  19.060  0.00  0.00    +0.000 OA
ENDROOT
BRANCH   1   9
ATOM      6  C   UNL     1      10.069  12.632  19.159  0.00  0.00    +0.000 A 
ATOM      7  C   UNL     1      10.112  11.592  20.090  0.00  0.00    +0.000 A 
ATOM      8  C   UNL     1       9.543  10.347  19.795  0.00  0.00    +0.000 A 
ATOM      9  C   UNL     1       8.908  10.127  18.565  0.00  0.00    +0.000 A 
ATOM     10  C   UNL     1       8.843  11.191  17.652  0.00  0.00    +0.000 A 
ATOM     11  C   UNL     1       9.416  12.433  17.944  0.00  0.00    +0.000 A 
BRANCH   6  13
ATOM     12  C   UNL     1      10.035  14.991  19.086  0.00  0.00    +0.000 C 
ATOM     13  O   UNL     1      10.664  13.800  19.549  0.00  0.00    +0.000 OA
ENDBRANCH   6  13
ENDBRANCH   1   9
BRANCH   3  14
ATOM     14  C   UNL     1       6.333   6.287  16.703  0.00  0.00    +0.000 C 
BRANCH  14  15
ATOM     15  N   UNL     1       6.401   4.885  17.108  0.00  0.00    +0.000 NA
ATOM     16  H   UNL     1       6.209   4.821  18.105  0.00  0.00    +0.000 HD
BRANCH  15  17
ATOM     17  C   UNL     1       5.510   3.983  16.366  0.00  0.00    +0.000 C 
ATOM     18  C   UNL     1       5.325   4.431  14.908  0.00  0.00    +0.000 C 
BRANCH  17  19
ATOM     19  C   UNL     1       4.207   3.686  17.096  0.00  0.00    +0.000 A 
ATOM     20  C   UNL     1       3.930   2.376  17.520  0.00  0.00    +0.000 A 
ATOM     21  C   UNL     1       2.728   2.070  18.168  0.00  0.00    +0.000 A 
ATOM     22  C   UNL     1       1.781   3.069  18.415  0.00  0.00    +0.000 A 
ATOM     23  C   UNL     1       0.478   2.760  19.089  0.00  0.00    +0.000 C 
ATOM     24  C   UNL     1       2.060   4.377  18.020  0.00  0.00    +0.000 A 
ATOM     25  C   UNL     1       3.258   4.684  17.370  0.00  0.00    +0.000 A 
ENDBRANCH  17  19
ENDBRANCH  15  17
ENDBRANCH  14  15
ENDBRANCH   3  14
TORSDOF 6
ENDMDL
MODEL 4
REMARK VINA RESULT:      -7.7      0.347      1.011
REMARK  Name = 
REMARK  9 active torsions:
REMARK  status: ('A' for Active; 'I' for Inactive)
REMARK    1  A    between atoms: C_1  and  O_2
REMARK    2  A    between atoms: O_2  and  C_3
REMARK    3  A    between atoms: C_6  and  C_7
REMARK    4  A    between atoms: C_9  and  C_10
REMARK    5  A    between atoms: C_10  and  N_11
REMARK    6  A    between atoms: N_11  and  C_12
REMARK    7  A    between atoms: C_12  and  C_13
REMARK    8  A    between atoms: C_12  and  C_14
REMARK    9  A    between atoms: C_17  and  C_18
REMARK                            x       y       z     vdW  Elec       q    Type
REMARK                         _______ _______ _______ _____ _____    ______ ____
ROOT
ATOM      1  C   UNL     1       8.349   8.722  18.197  0.00  0.00    +0.000 A 
ATOM      2  N   UNL     1       7.680   8.285  17.145  0.00  0.00    +0.000 NA
ATOM      3  C   UNL     1       7.486   6.938  17.399  0.00  0.00    +0.000 A 
ATOM      4  C   UNL     1       8.059   6.625  18.611  0.00  0.00    +0.000 A 
ATOM      5  O   UNL     1       8.615   7.751  19.128  0.00  0.00    +0.000 OA
ENDROOT
BRANCH   1   9
ATOM      6  C   UNL     1       9.651  12.686  19.169  0.00  0.00    +0.000 A 
ATOM      7  C   UNL     1       8.956  12.437  17.984  0.00  0.00    +0.000 A 
ATOM      8  C   UNL     1       8.533  11.142  17.663  0.00  0.00    +0.000 A 
ATOM      9  C   UNL     1       8.813  10.068  18.520  0.00  0.00    +0.000 A 
ATOM     10  C   UNL     1       9.541  10.327  19.691  0.00  0.00    +0.000 A 
ATOM     11  C   UNL     1       9.959  11.623  20.014  0.00  0.00    +0.000 A 
BRANCH   6  13
ATOM     12  C   UNL     1       9.498  14.926  18.439  0.00  0.00    +0.000 C 
ATOM     13  O   UNL     1      10.006  13.989  19.384  0.00  0.00    +0.000 OA
ENDBRANCH   6  13
ENDBRANCH   1   9
BRANCH   3  14
ATOM     14  C   UNL     1       6.726   6.020  16.496  0.00  0.00    +0.000 C 
BRANCH  14  15
ATOM     15  N   UNL     1       6.561   4.706  17.112  0.00  0.00    +0.000 NA
ATOM     16  H   UNL     1       6.490   4.822  18.120  0.00  0.00    +0.000 HD
BRANCH  15  17
ATOM     17  C   UNL     1       5.418   3.929  16.614  0.00  0.00    +0.000 C 
ATOM     18  C   UNL     1       5.079   4.276  15.156  0.00  0.00    +0.000 C 
BRANCH  17  19
ATOM     19  C   UNL     1       4.219   3.949  17.553  0.00  0.00    +0.000 A 
ATOM     20  C   UNL     1       4.367   4.441  18.860  0.00  0.00    +0.000 A 
ATOM     21  C   UNL     1       3.289   4.445  19.751  0.00  0.00    +0.000 A 
ATOM     22  C   UNL     1       2.037   3.966  19.353  0.00  0.00    +0.000 A 
ATOM     23  C   UNL     1       0.873   3.941  20.298  0.00  0.00    +0.000 C 
ATOM     24  C   UNL     1       1.876   3.498  18.049  0.00  0.00    +0.000 A 
ATOM     25  C   UNL     1       2.952   3.491  17.158  0.00  0.00    +0.000 A 
ENDBRANCH  17  19
ENDBRANCH  15  17
ENDBRANCH  14  15
ENDBRANCH   3  14
TORSDOF 6
ENDMDL
MODEL 5
REMARK VINA RESULT:      -7.6      2.765      2.937
REMARK  Name = 
REMARK  9 active torsions:
REMARK  status: ('A' for Active; 'I' for Inactive)
REMARK    1  A    between atoms: C_1  and  O_2
REMARK    2  A    between atoms: O_2  and  C_3
REMARK    3  A    between atoms: C_6  and  C_7
REMARK    4  A    between atoms: C_9  and  C_10
REMARK    5  A    between atoms: C_10  and  N_11
REMARK    6  A    between atoms: N_11  and  C_12
REMARK    7  A    between atoms: C_12  and  C_13
REMARK    8  A    between atoms: C_12  and  C_14
REMARK    9  A    between atoms: C_17  and  C_18
REMARK                            x       y       z     vdW  Elec       q    Type
REMARK                         _______ _______ _______ _____ _____    ______ ____
ROOT
ATOM      1  C   UNL     1       8.054   8.602  18.058  0.00  0.00    +0.000 A 
ATOM      2  N   UNL     1       7.138   8.272  17.166  0.00  0.00    +0.000 NA
ATOM      3  C   UNL     1       6.949   6.914  17.354  0.00  0.00    +0.000 A 
ATOM      4  C   UNL     1       7.777   6.485  18.367  0.00  0.00    +0.000 A 
ATOM      5  O   UNL     1       8.488   7.548  18.822  0.00  0.00    +0.000 OA
ENDROOT
BRANCH   1   9
ATOM      6  C   UNL     1       9.718  12.439  18.985  0.00  0.00    +0.000 A 
ATOM      7  C   UNL     1       8.899  12.271  17.867  0.00  0.00    +0.000 A 
ATOM      8  C   UNL     1       8.357  11.017  17.561  0.00  0.00    +0.000 A 
ATOM      9  C   UNL     1       8.641   9.903  18.364  0.00  0.00    +0.000 A 
ATOM     10  C   UNL     1       9.492  10.079  19.466  0.00  0.00    +0.000 A 
ATOM     11  C   UNL     1      10.029  11.334  19.775  0.00  0.00    +0.000 A 
BRANCH   6  13
ATOM     12  C   UNL     1       9.371  14.751  18.664  0.00  0.00    +0.000 C 
ATOM     13  O   UNL     1      10.183  13.708  19.194  0.00  0.00    +0.000 OA
ENDBRANCH   6  13
ENDBRANCH   1   9
BRANCH   3  14
ATOM     14  C   UNL     1       5.959   6.095  16.590  0.00  0.00    +0.000 C 
BRANCH  14  15
ATOM     15  N   UNL     1       4.615   6.654  16.715  0.00  0.00    +0.000 NA
ATOM     16  H   UNL     1       4.103   6.473  15.855  0.00  0.00    +0.000 HD
BRANCH  15  17
ATOM     17  C   UNL     1       3.847   6.167  17.868  0.00  0.00    +0.000 C 
ATOM     18  C   UNL     1       3.198   4.802  17.591  0.00  0.00    +0.000 C 
BRANCH  17  19
ATOM     19  C   UNL     1       2.891   7.206  18.440  0.00  0.00    +0.000 A 
ATOM     20  C   UNL     1       2.488   8.292  17.646  0.00  0.00    +0.000 A 
ATOM     21  C   UNL     1       1.632   9.274  18.155  0.00  0.00    +0.000 A 
ATOM     22  C   UNL     1       1.154   9.189  19.466  0.00  0.00    +0.000 A 
ATOM     23  C   UNL     1       0.253  10.241  20.039  0.00  0.00    +0.000 C 
ATOM     24  C   UNL     1       1.530   8.100  20.253  0.00  0.00    +0.000 A 
ATOM     25  C   UNL     1       2.386   7.119  19.747  0.00  0.00    +0.000 A 
ENDBRANCH  17  19
ENDBRANCH  15  17
ENDBRANCH  14  15
ENDBRANCH   3  14
TORSDOF 6
ENDMDL
MODEL 6
REMARK VINA RESULT:      -7.5      2.147      2.500
REMARK  Name = 
REMARK  9 active torsions:
REMARK  status: ('A' for Active; 'I' for Inactive)
REMARK    1  A    between atoms: C_1  and  O_2
REMARK    2  A    between atoms: O_2  and  C_3
REMARK    3  A    between atoms: C_6  and  C_7
REMARK    4  A    between atoms: C_9  and  C_10
REMARK    5  A    between atoms: C_10  and  N_11
REMARK    6  A    between atoms: N_11  and  C_12
REMARK    7  A    between atoms: C_12  and  C_13
REMARK    8  A    between atoms: C_12  and  C_14
REMARK    9  A    between atoms: C_17  and  C_18
REMARK                            x       y       z     vdW  Elec       q    Type
REMARK                         _______ _______ _______ _____ _____    ______ ____
ROOT
ATOM      1  C   UNL     1       8.085   8.440  18.001  0.00  0.00    +0.000 A 
ATOM      2  N   UNL     1       7.313   8.051  17.002  0.00  0.00    +0.000 NA
ATOM      3  C   UNL     1       7.131   6.697  17.217  0.00  0.00    +0.000 A 
ATOM      4  C   UNL     1       7.816   6.329  18.353  0.00  0.00    +0.000 A 
ATOM      5  O   UNL     1       8.431   7.428  18.860  0.00  0.00    +0.000 OA
ENDROOT
BRANCH   1   9
ATOM      6  C   UNL     1       9.629  12.321  18.951  0.00  0.00    +0.000 A 
ATOM      7  C   UNL     1       9.887  11.231  19.784  0.00  0.00    +0.000 A 
ATOM      8  C   UNL     1       9.380   9.963  19.477  0.00  0.00    +0.000 A 
ATOM      9  C   UNL     1       8.592   9.768  18.334  0.00  0.00    +0.000 A 
ATOM     10  C   UNL     1       8.312  10.879  17.523  0.00  0.00    +0.000 A 
ATOM     11  C   UNL     1       8.824  12.146  17.828  0.00  0.00    +0.000 A 
BRANCH   6  13
ATOM     12  C   UNL     1      11.286  13.958  18.562  0.00  0.00    +0.000 C 
ATOM     13  O   UNL     1      10.182  13.509  19.343  0.00  0.00    +0.000 OA
ENDBRANCH   6  13
ENDBRANCH   1   9
BRANCH   3  14
ATOM     14  C   UNL     1       6.278   5.821  16.355  0.00  0.00    +0.000 C 
BRANCH  14  15
ATOM     15  N   UNL     1       4.862   6.115  16.557  0.00  0.00    +0.000 NA
ATOM     16  H   UNL     1       4.365   5.948  15.685  0.00  0.00    +0.000 HD
BRANCH  15  17
ATOM     17  C   UNL     1       4.225   5.369  17.649  0.00  0.00    +0.000 C 
ATOM     18  C   UNL     1       3.584   4.063  17.155  0.00  0.00    +0.000 C 
BRANCH  17  19
ATOM     19  C   UNL     1       3.305   6.226  18.510  0.00  0.00    +0.000 A 
ATOM     20  C   UNL     1       2.915   7.498  18.059  0.00  0.00    +0.000 A 
ATOM     21  C   UNL     1       2.093   8.315  18.842  0.00  0.00    +0.000 A 
ATOM     22  C   UNL     1       1.637   7.878  20.089  0.00  0.00    +0.000 A 
ATOM     23  C   UNL     1       0.774   8.746  20.954  0.00  0.00    +0.000 C 
ATOM     24  C   UNL     1       2.001   6.606  20.533  0.00  0.00    +0.000 A 
ATOM     25  C   UNL     1       2.823   5.788  19.754  0.00  0.00    +0.000 A 
ENDBRANCH  17  19
ENDBRANCH  15  17
ENDBRANCH  14  15
ENDBRANCH   3  14
TORSDOF 6
ENDMDL
MODEL 7
REMARK VINA RESULT:      -7.4      4.093      6.712
REMARK  Name = 
REMARK  9 active torsions:
REMARK  status: ('A' for Active; 'I' for Inactive)
REMARK    1  A    between atoms: C_1  and  O_2
REMARK    2  A    between atoms: O_2  and  C_3
REMARK    3  A    between atoms: C_6  and  C_7
REMARK    4  A    between atoms: C_9  and  C_10
REMARK    5  A    between atoms: C_10  and  N_11
REMARK    6  A    between atoms: N_11  and  C_12
REMARK    7  A    between atoms: C_12  and  C_13
REMARK    8  A    between atoms: C_12  and  C_14
REMARK    9  A    between atoms: C_17  and  C_18
REMARK                            x       y       z     vdW  Elec       q    Type
REMARK                         _______ _______ _______ _____ _____    ______ ____
ROOT
ATOM      1  C   UNL     1       2.577   6.439  18.886  0.00  0.00    +0.000 A 
ATOM      2  N   UNL     1       3.575   5.872  19.541  0.00  0.00    +0.000 NA
ATOM      3  C   UNL     1       3.625   4.583  19.040  0.00  0.00    +0.000 A 
ATOM      4  C   UNL     1       2.638   4.433  18.092  0.00  0.00    +0.000 A 
ATOM      5  O   UNL     1       1.961   5.605  17.987  0.00  0.00    +0.000 OA
ENDROOT
BRANCH   1   9
ATOM      6  C   UNL     1       1.016  10.424  19.060  0.00  0.00    +0.000 A 
ATOM      7  C   UNL     1       1.667   9.965  17.912  0.00  0.00    +0.000 A 
ATOM      8  C   UNL     1       2.181   8.664  17.856  0.00  0.00    +0.000 A 
ATOM      9  C   UNL     1       2.064   7.803  18.956  0.00  0.00    +0.000 A 
ATOM     10  C   UNL     1       1.437   8.288  20.114  0.00  0.00    +0.000 A 
ATOM     11  C   UNL     1       0.918   9.586  20.168  0.00  0.00    +0.000 A 
BRANCH   6  13
ATOM     12  C   UNL     1       1.539  12.726  19.051  0.00  0.00    +0.000 C 
ATOM     13  O   UNL     1       0.546  11.707  19.000  0.00  0.00    +0.000 OA
ENDBRANCH   6  13
ENDBRANCH   1   9
BRANCH   3  14
ATOM     14  C   UNL     1       4.639   3.565  19.455  0.00  0.00    +0.000 C 
BRANCH  14  15
ATOM     15  N   UNL     1       5.803   3.602  18.574  0.00  0.00    +0.000 NA
ATOM     16  H   UNL     1       5.986   2.661  18.232  0.00  0.00    +0.000 HD
BRANCH  15  17
ATOM     17  C   UNL     1       5.697   4.535  17.446  0.00  0.00    +0.000 C 
ATOM     18  C   UNL     1       5.964   3.842  16.100  0.00  0.00    +0.000 C 
BRANCH  17  19
ATOM     19  C   UNL     1       6.485   5.823  17.650  0.00  0.00    +0.000 A 
ATOM     20  C   UNL     1       7.588   5.833  18.519  0.00  0.00    +0.000 A 
ATOM     21  C   UNL     1       8.312   7.008  18.745  0.00  0.00    +0.000 A 
ATOM     22  C   UNL     1       7.955   8.197  18.101  0.00  0.00    +0.000 A 
ATOM     23  C   UNL     1       8.704   9.473  18.344  0.00  0.00    +0.000 C 
ATOM     24  C   UNL     1       6.876   8.189  17.217  0.00  0.00    +0.000 A 
ATOM     25  C   UNL     1       6.150   7.017  16.991  0.00  0.00    +0.000 A 
ENDBRANCH  17  19
ENDBRANCH  15  17
ENDBRANCH  14  15
ENDBRANCH   3  14
TORSDOF 6
ENDMDL
MODEL 8
REMARK VINA RESULT:      -7.4      2.214      2.547
REMARK  Name = 
REMARK  9 active torsions:
REMARK  status: ('A' for Active; 'I' for Inactive)
REMARK    1  A    between atoms: C_1  and  O_2
REMARK    2  A    between atoms: O_2  and  C_3
REMARK    3  A    between atoms: C_6  and  C_7
REMARK    4  A    between atoms: C_9  and  C_10
REMARK    5  A    between atoms: C_10  and  N_11
REMARK    6  A    between atoms: N_11  and  C_12
REMARK    7  A    between atoms: C_12  and  C_13
REMARK    8  A    between atoms: C_12  and  C_14
REMARK    9  A    between atoms: C_17  and  C_18
REMARK                            x       y       z     vdW  Elec       q    Type
REMARK                         _______ _______ _______ _____ _____    ______ ____
ROOT
ATOM      1  C   UNL     1       8.488   8.764  18.440  0.00  0.00    +0.000 A 
ATOM      2  N   UNL     1       8.516   7.563  18.989  0.00  0.00    +0.000 NA
ATOM      3  C   UNL     1       7.745   6.783  18.144  0.00  0.00    +0.000 A 
ATOM      4  C   UNL     1       7.282   7.567  17.111  0.00  0.00    +0.000 A 
ATOM      5  O   UNL     1       7.745   8.831  17.289  0.00  0.00    +0.000 OA
ENDROOT
BRANCH   1   9
ATOM      6  C   UNL     1      10.358  12.425  19.647  0.00  0.00    +0.000 A 
ATOM      7  C   UNL     1      10.264  12.087  18.295  0.00  0.00    +0.000 A 
ATOM      8  C   UNL     1       9.657  10.889  17.900  0.00  0.00    +0.000 A 
ATOM      9  C   UNL     1       9.144  10.001  18.856  0.00  0.00    +0.000 A 
ATOM     10  C   UNL     1       9.274  10.337  20.212  0.00  0.00    +0.000 A 
ATOM     11  C   UNL     1       9.876  11.537  20.606  0.00  0.00    +0.000 A 
BRANCH   6  13
ATOM     12  C   UNL     1      11.913  14.059  18.951  0.00  0.00    +0.000 C 
ATOM     13  O   UNL     1      10.961  13.622  19.917  0.00  0.00    +0.000 OA
ENDBRANCH   6  13
ENDBRANCH   1   9
BRANCH   3  14
ATOM     14  C   UNL     1       7.520   5.317  18.335  0.00  0.00    +0.000 C 
BRANCH  14  15
ATOM     15  N   UNL     1       6.364   5.077  19.196  0.00  0.00    +0.000 NA
ATOM     16  H   UNL     1       6.237   5.880  19.807  0.00  0.00    +0.000 HD
BRANCH  15  17
ATOM     17  C   UNL     1       5.113   4.784  18.486  0.00  0.00    +0.000 C 
ATOM     18  C   UNL     1       5.371   4.212  17.082  0.00  0.00    +0.000 C 
BRANCH  17  19
ATOM     19  C   UNL     1       4.117   5.936  18.515  0.00  0.00    +0.000 A 
ATOM     20  C   UNL     1       3.236   6.066  19.601  0.00  0.00    +0.000 A 
ATOM     21  C   UNL     1       2.294   7.099  19.639  0.00  0.00    +0.000 A 
ATOM     22  C   UNL     1       2.216   8.029  18.598  0.00  0.00    +0.000 A 
ATOM     23  C   UNL     1       1.200   9.132  18.609  0.00  0.00    +0.000 C 
ATOM     24  C   UNL     1       3.105   7.921  17.528  0.00  0.00    +0.000 A 
ATOM     25  C   UNL     1       4.046   6.889  17.487  0.00  0.00    +0.000 A 
ENDBRANCH  17  19
ENDBRANCH  15  17
ENDBRANCH  14  15
ENDBRANCH   3  14
TORSDOF 6
ENDMDL
MODEL 9
REMARK VINA RESULT:      -7.4      2.205      2.449
REMARK  Name = 
REMARK  9 active torsions:
REMARK  status: ('A' for Active; 'I' for Inactive)
REMARK    1  A    between atoms: C_1  and  O_2
REMARK    2  A    between atoms: O_2  and  C_3
REMARK    3  A    between atoms: C_6  and  C_7
REMARK    4  A    between atoms: C_9  and  C_10
REMARK    5  A    between atoms: C_10  and  N_11
REMARK    6  A    between atoms: N_11  and  C_12
REMARK    7  A    between atoms: C_12  and  C_13
REMARK    8  A    between atoms: C_12  and  C_14
REMARK    9  A    between atoms: C_17  and  C_18
REMARK                            x       y       z     vdW  Elec       q    Type
REMARK                         _______ _______ _______ _____ _____    ______ ____
ROOT
ATOM      1  C   UNL     1       8.479   8.777  18.433  0.00  0.00    +0.000 A 
ATOM      2  N   UNL     1       8.511   7.583  18.998  0.00  0.00    +0.000 NA
ATOM      3  C   UNL     1       7.751   6.787  18.160  0.00  0.00    +0.000 A 
ATOM      4  C   UNL     1       7.288   7.554  17.114  0.00  0.00    +0.000 A 
ATOM      5  O   UNL     1       7.742   8.823  17.277  0.00  0.00    +0.000 OA
ENDROOT
BRANCH   1   9
ATOM      6  C   UNL     1      10.318  12.465  19.604  0.00  0.00    +0.000 A 
ATOM      7  C   UNL     1      10.172  12.141  18.253  0.00  0.00    +0.000 A 
ATOM      8  C   UNL     1       9.575  10.934  17.869  0.00  0.00    +0.000 A 
ATOM      9  C   UNL     1       9.125  10.023  18.835  0.00  0.00    +0.000 A 
ATOM     10  C   UNL     1       9.307  10.346  20.188  0.00  0.00    +0.000 A 
ATOM     11  C   UNL     1       9.899  11.555  20.572  0.00  0.00    +0.000 A 
BRANCH   6  13
ATOM     12  C   UNL     1      10.019  14.710  20.268  0.00  0.00    +0.000 C 
ATOM     13  O   UNL     1      10.906  13.672  19.863  0.00  0.00    +0.000 OA
ENDBRANCH   6  13
ENDBRANCH   1   9
BRANCH   3  14
ATOM     14  C   UNL     1       7.533   5.323  18.369  0.00  0.00    +0.000 C 
BRANCH  14  15
ATOM     15  N   UNL     1       6.395   5.087  19.253  0.00  0.00    +0.000 NA
ATOM     16  H   UNL     1       6.257   5.909  19.837  0.00  0.00    +0.000 HD
BRANCH  15  17
ATOM     17  C   UNL     1       5.142   4.740  18.570  0.00  0.00    +0.000 C 
ATOM     18  C   UNL     1       5.394   4.147  17.175  0.00  0.00    +0.000 C 
BRANCH  17  19
ATOM     19  C   UNL     1       4.111   5.862  18.592  0.00  0.00    +0.000 A 
ATOM     20  C   UNL     1       4.052   6.773  17.526  0.00  0.00    +0.000 A 
ATOM     21  C   UNL     1       3.133   7.828  17.534  0.00  0.00    +0.000 A 
ATOM     22  C   UNL     1       2.247   7.990  18.604  0.00  0.00    +0.000 A 
ATOM     23  C   UNL     1       1.268   9.125  18.643  0.00  0.00    +0.000 C 
ATOM     24  C   UNL     1       2.283   7.073  19.655  0.00  0.00    +0.000 A 
ATOM     25  C   UNL     1       3.201   6.021  19.650  0.00  0.00    +0.000 A 
ENDBRANCH  17  19
ENDBRANCH  15  17
ENDBRANCH  14  15
ENDBRANCH   3  14
TORSDOF 6
ENDMDL
