MODEL 1
REMARK VINA RESULT:      -8.3      0.000      0.000
REMARK  Name = 
REMARK  4 active torsions:
REMARK  status: ('A' for Active; 'I' for Inactive)
REMARK    1  A    between atoms: C_2  and  C_3
REMARK    2  A    between atoms: N_5  and  C_6
REMARK    3  A    between atoms: C_6  and  C_7
REMARK    4  A    between atoms: C_14  and  C_15
REMARK                            x       y       z     vdW  Elec       q    Type
REMARK                         _______ _______ _______ _____ _____    ______ ____
ROOT
ATOM      1  C   UNL     1       0.638  11.604  20.009  0.00  0.00    +0.000 A 
ATOM      2  C   UNL     1       1.661  12.531  20.046  0.00  0.00    +0.000 A 
ATOM      3  N   UNL     1       1.314  13.524  19.184  0.00  0.00    +0.000 N 
ATOM      4  N   UNL     1       0.197  13.249  18.483  0.00  0.00    +0.000 NA
ATOM      5  C   UNL     1      -0.261  12.093  19.003  0.00  0.00    +0.000 A 
ENDROOT
BRANCH   1   7
ATOM      6  O   UNL     1       0.152  10.389  21.937  0.00  0.00    +0.000 OA
ATOM      7  C   UNL     1       0.552  10.370  20.775  0.00  0.00    +0.000 C 
ATOM      8  N   UNL     1       0.991   9.192  20.177  0.00  0.00    +0.000 N 
ATOM      9  C   UNL     1       1.410   9.034  18.766  0.00  0.00    +0.000 C 
ATOM     10  C   UNL     1       2.590   8.062  18.585  0.00  0.00    +0.000 C 
ATOM     11  N   UNL     1       2.283   6.835  19.309  0.00  0.00    +0.000 N 
ATOM     12  C   UNL     1       2.492   5.618  18.720  0.00  0.00    +0.000 A 
ATOM     13  C   UNL     1       1.750   4.503  19.107  0.00  0.00    +0.000 A 
ATOM     14  C   UNL     1       1.931   3.283  18.470  0.00  0.00    +0.000 A 
ATOM     15  C   UNL     1       2.864   3.187  17.453  0.00  0.00    +0.000 A 
ATOM     16  C   UNL     1       3.560   4.330  17.111  0.00  0.00    +0.000 A 
ATOM     17  N   UNL     1       3.382   5.530  17.707  0.00  0.00    +0.000 NA
ATOM     18  C   UNL     1       2.053   7.008  20.743  0.00  0.00    +0.000 C 
ATOM     19  C   UNL     1       0.845   7.939  20.935  0.00  0.00    +0.000 C 
ENDBRANCH   1   7
BRANCH   5  20
ATOM     20  C   UNL     1      -1.527  11.504  18.535  0.00  0.00    +0.000 A 
ATOM     21  C   UNL     1      -2.755  12.033  18.956  0.00  0.00    +0.000 A 
ATOM     22  C   UNL     1      -3.962  11.510  18.478  0.00  0.00    +0.000 A 
ATOM     23  C   UNL     1      -3.956  10.450  17.573  0.00  0.00    +0.000 A 
ATOM     24  C   UNL     1      -2.747   9.896  17.167  0.00  0.00    +0.000 A 
ATOM     25  C   UNL     1      -1.543  10.409  17.657  0.00  0.00    +0.000 A 
ENDBRANCH   5  20
BRANCH   3  26
ATOM     26  C   UNL     1       2.082  14.738  18.926  0.00  0.00    +0.000 C 
BRANCH  26  27
ATOM     27  C   UNL     1       1.209  15.944  18.671  0.00  0.00    +0.000 A 
ATOM     28  C   UNL     1       1.629  16.966  17.805  0.00  0.00    +0.000 A 
ATOM     29  C   UNL     1       0.786  18.043  17.512  0.00  0.00    +0.000 A 
ATOM     30  C   UNL     1      -0.485  18.110  18.079  0.00  0.00    +0.000 A 
ATOM     31  C   UNL     1      -0.910  17.111  18.949  0.00  0.00    +0.000 A 
ATOM     32  C   UNL     1      -0.071  16.034  19.242  0.00  0.00    +0.000 A 
ENDBRANCH  26  27
ENDBRANCH   3  26
TORSDOF 4
ENDMDL
MODEL 2
REMARK VINA RESULT:      -8.3      0.629      1.016
REMARK  Name = 
REMARK  4 active torsions:
REMARK  status: ('A' for Active; 'I' for Inactive)
REMARK    1  A    between atoms: C_2  and  C_3
REMARK    2  A    between atoms: N_5  and  C_6
REMARK    3  A    between atoms: C_6  and  C_7
REMARK    4  A    between atoms: C_14  and  C_15
REMARK                            x       y       z     vdW  Elec       q    Type
REMARK                         _______ _______ _______ _____ _____    ______ ____
ROOT
ATOM      1  C   UNL     1       0.763  11.575  19.804  0.00  0.00    +0.000 A 
ATOM      2  C   UNL     1       1.823  12.458  19.739  0.00  0.00    +0.000 A 
ATOM      3  N   UNL     1       1.456  13.439  18.871  0.00  0.00    +0.000 N 
ATOM      4  N   UNL     1       0.281  13.191  18.260  0.00  0.00    +0.000 NA
ATOM      5  C   UNL     1      -0.185  12.071  18.848  0.00  0.00    +0.000 A 
ENDROOT
BRANCH   1   7
ATOM      6  O   UNL     1       0.318  10.435  21.787  0.00  0.00    +0.000 OA
ATOM      7  C   UNL     1       0.681  10.370  20.615  0.00  0.00    +0.000 C 
ATOM      8  N   UNL     1       1.083   9.165  20.044  0.00  0.00    +0.000 N 
ATOM      9  C   UNL     1       1.455   8.952  18.628  0.00  0.00    +0.000 C 
ATOM     10  C   UNL     1       2.614   7.955  18.444  0.00  0.00    +0.000 C 
ATOM     11  N   UNL     1       2.310   6.759  19.219  0.00  0.00    +0.000 N 
ATOM     12  C   UNL     1       2.482   5.519  18.666  0.00  0.00    +0.000 A 
ATOM     13  C   UNL     1       1.736   4.430  19.115  0.00  0.00    +0.000 A 
ATOM     14  C   UNL     1       1.877   3.186  18.514  0.00  0.00    +0.000 A 
ATOM     15  C   UNL     1       2.776   3.040  17.473  0.00  0.00    +0.000 A 
ATOM     16  C   UNL     1       3.479   4.159  17.071  0.00  0.00    +0.000 A 
ATOM     17  N   UNL     1       3.338   5.381  17.630  0.00  0.00    +0.000 NA
ATOM     18  C   UNL     1       2.128   6.984  20.652  0.00  0.00    +0.000 C 
ATOM     19  C   UNL     1       0.942   7.941  20.850  0.00  0.00    +0.000 C 
ENDBRANCH   1   7
BRANCH   5  20
ATOM     20  C   UNL     1      -1.504  11.524  18.490  0.00  0.00    +0.000 A 
ATOM     21  C   UNL     1      -2.676  12.103  18.996  0.00  0.00    +0.000 A 
ATOM     22  C   UNL     1      -3.934  11.618  18.623  0.00  0.00    +0.000 A 
ATOM     23  C   UNL     1      -4.037  10.548  17.737  0.00  0.00    +0.000 A 
ATOM     24  C   UNL     1      -2.885   9.944  17.246  0.00  0.00    +0.000 A 
ATOM     25  C   UNL     1      -1.628  10.418  17.633  0.00  0.00    +0.000 A 
ENDBRANCH   5  20
BRANCH   3  26
ATOM     26  C   UNL     1       2.251  14.610  18.520  0.00  0.00    +0.000 C 
BRANCH  26  27
ATOM     27  C   UNL     1       1.604  15.910  18.939  0.00  0.00    +0.000 A 
ATOM     28  C   UNL     1       1.080  16.068  20.232  0.00  0.00    +0.000 A 
ATOM     29  C   UNL     1       0.552  17.297  20.641  0.00  0.00    +0.000 A 
ATOM     30  C   UNL     1       0.542  18.380  19.765  0.00  0.00    +0.000 A 
ATOM     31  C   UNL     1       1.047  18.234  18.476  0.00  0.00    +0.000 A 
ATOM     32  C   UNL     1       1.576  17.009  18.066  0.00  0.00    +0.000 A 
ENDBRANCH  26  27
ENDBRANCH   3  26
TORSDOF 4
ENDMDL
MODEL 3
REMARK VINA RESULT:      -8.3      0.190      1.218
REMARK  Name = 
REMARK  4 active torsions:
REMARK  status: ('A' for Active; 'I' for Inactive)
REMARK    1  A    between atoms: C_2  and  C_3
REMARK    2  A    between atoms: N_5  and  C_6
REMARK    3  A    between atoms: C_6  and  C_7
REMARK    4  A    between atoms: C_14  and  C_15
REMARK                            x       y       z     vdW  Elec       q    Type
REMARK                         _______ _______ _______ _____ _____    ______ ____
ROOT
ATOM      1  C   UNL     1       0.667  11.564  20.033  0.00  0.00    +0.000 A 
ATOM      2  C   UNL     1       1.714  12.462  20.110  0.00  0.00    +0.000 A 
ATOM      3  N   UNL     1       1.415  13.478  19.257  0.00  0.00    +0.000 N 
ATOM      4  N   UNL     1       0.308  13.245  18.525  0.00  0.00    +0.000 NA
ATOM      5  C   UNL     1      -0.194  12.093  19.014  0.00  0.00    +0.000 A 
ENDROOT
BRANCH   1   7
ATOM      6  O   UNL     1       0.081  10.329  21.921  0.00  0.00    +0.000 OA
ATOM      7  C   UNL     1       0.529  10.321  20.776  0.00  0.00    +0.000 C 
ATOM      8  N   UNL     1       0.974   9.144  20.178  0.00  0.00    +0.000 N 
ATOM      9  C   UNL     1       1.449   9.000  18.784  0.00  0.00    +0.000 C 
ATOM     10  C   UNL     1       2.620   8.011  18.638  0.00  0.00    +0.000 C 
ATOM     11  N   UNL     1       2.263   6.779  19.330  0.00  0.00    +0.000 N 
ATOM     12  C   UNL     1       2.477   5.568  18.731  0.00  0.00    +0.000 A 
ATOM     13  C   UNL     1       1.702   4.459  19.070  0.00  0.00    +0.000 A 
ATOM     14  C   UNL     1       1.889   3.245  18.422  0.00  0.00    +0.000 A 
ATOM     15  C   UNL     1       2.863   3.149  17.444  0.00  0.00    +0.000 A 
ATOM     16  C   UNL     1       3.591   4.285  17.149  0.00  0.00    +0.000 A 
ATOM     17  N   UNL     1       3.407   5.479  17.755  0.00  0.00    +0.000 NA
ATOM     18  C   UNL     1       1.976   6.935  20.755  0.00  0.00    +0.000 C 
ATOM     19  C   UNL     1       0.776   7.883  20.911  0.00  0.00    +0.000 C 
ENDBRANCH   1   7
BRANCH   5  20
ATOM     20  C   UNL     1      -1.463  11.547  18.507  0.00  0.00    +0.000 A 
ATOM     21  C   UNL     1      -1.466  10.453  17.630  0.00  0.00    +0.000 A 
ATOM     22  C   UNL     1      -2.670   9.898  17.181  0.00  0.00    +0.000 A 
ATOM     23  C   UNL     1      -3.886  10.431  17.602  0.00  0.00    +0.000 A 
ATOM     24  C   UNL     1      -3.901  11.533  18.450  0.00  0.00    +0.000 A 
ATOM     25  C   UNL     1      -2.699  12.096  18.886  0.00  0.00    +0.000 A 
ENDBRANCH   5  20
BRANCH   3  26
ATOM     26  C   UNL     1       2.221  14.674  19.038  0.00  0.00    +0.000 C 
BRANCH  26  27
ATOM     27  C   UNL     1       1.406  15.856  18.569  0.00  0.00    +0.000 A 
ATOM     28  C   UNL     1       0.084  16.039  19.007  0.00  0.00    +0.000 A 
ATOM     29  C   UNL     1      -0.640  17.175  18.632  0.00  0.00    +0.000 A 
ATOM     30  C   UNL     1      -0.054  18.140  17.816  0.00  0.00    +0.000 A 
ATOM     31  C   UNL     1       1.251  17.966  17.363  0.00  0.00    +0.000 A 
ATOM     32  C   UNL     1       1.977  16.834  17.738  0.00  0.00    +0.000 A 
ENDBRANCH  26  27
ENDBRANCH   3  26
TORSDOF 4
ENDMDL
MODEL 4
REMARK VINA RESULT:      -8.2      4.565     10.960
REMARK  Name = 
REMARK  4 active torsions:
REMARK  status: ('A' for Active; 'I' for Inactive)
REMARK    1  A    between atoms: C_2  and  C_3
REMARK    2  A    between atoms: N_5  and  C_6
REMARK    3  A    between atoms: C_6  and  C_7
REMARK    4  A    between atoms: C_14  and  C_15
REMARK                            x       y       z     vdW  Elec       q    Type
REMARK                         _______ _______ _______ _____ _____    ______ ____
ROOT
ATOM      1  C   UNL     1       5.660   4.590  15.852  0.00  0.00    +0.000 A 
ATOM      2  C   UNL     1       5.572   4.294  14.506  0.00  0.00    +0.000 A 
ATOM      3  N   UNL     1       6.683   4.817  13.922  0.00  0.00    +0.000 N 
ATOM      4  N   UNL     1       7.429   5.553  14.770  0.00  0.00    +0.000 NA
ATOM      5  C   UNL     1       6.843   5.392  15.973  0.00  0.00    +0.000 A 
ENDROOT
BRANCH   1   7
ATOM      6  O   UNL     1       4.472   3.039  17.123  0.00  0.00    +0.000 OA
ATOM      7  C   UNL     1       4.707   4.222  16.889  0.00  0.00    +0.000 C 
ATOM      8  N   UNL     1       4.034   5.243  17.554  0.00  0.00    +0.000 N 
ATOM      9  C   UNL     1       4.294   6.693  17.418  0.00  0.00    +0.000 C 
ATOM     10  C   UNL     1       3.015   7.550  17.471  0.00  0.00    +0.000 C 
ATOM     11  N   UNL     1       2.243   7.139  18.637  0.00  0.00    +0.000 N 
ATOM     12  C   UNL     1       1.707   8.080  19.473  0.00  0.00    +0.000 A 
ATOM     13  C   UNL     1       1.455   7.782  20.812  0.00  0.00    +0.000 A 
ATOM     14  C   UNL     1       0.959   8.757  21.668  0.00  0.00    +0.000 A 
ATOM     15  C   UNL     1       0.710  10.023  21.171  0.00  0.00    +0.000 A 
ATOM     16  C   UNL     1       0.988  10.257  19.839  0.00  0.00    +0.000 A 
ATOM     17  N   UNL     1       1.489   9.326  18.998  0.00  0.00    +0.000 NA
ATOM     18  C   UNL     1       1.846   5.732  18.647  0.00  0.00    +0.000 C 
ATOM     19  C   UNL     1       3.116   4.867  18.642  0.00  0.00    +0.000 C 
ENDBRANCH   1   7
BRANCH   5  20
ATOM     20  C   UNL     1       7.426   5.996  17.183  0.00  0.00    +0.000 A 
ATOM     21  C   UNL     1       7.735   7.363  17.218  0.00  0.00    +0.000 A 
ATOM     22  C   UNL     1       8.245   7.953  18.379  0.00  0.00    +0.000 A 
ATOM     23  C   UNL     1       8.452   7.184  19.522  0.00  0.00    +0.000 A 
ATOM     24  C   UNL     1       8.176   5.821  19.497  0.00  0.00    +0.000 A 
ATOM     25  C   UNL     1       7.682   5.229  18.331  0.00  0.00    +0.000 A 
ENDBRANCH   5  20
BRANCH   3  26
ATOM     26  C   UNL     1       7.035   4.715  12.510  0.00  0.00    +0.000 C 
BRANCH  26  27
ATOM     27  C   UNL     1       6.579   3.419  11.881  0.00  0.00    +0.000 A 
ATOM     28  C   UNL     1       7.505   2.424  11.531  0.00  0.00    +0.000 A 
ATOM     29  C   UNL     1       7.073   1.196  11.021  0.00  0.00    +0.000 A 
ATOM     30  C   UNL     1       5.712   0.949  10.854  0.00  0.00    +0.000 A 
ATOM     31  C   UNL     1       4.782   1.931  11.185  0.00  0.00    +0.000 A 
ATOM     32  C   UNL     1       5.212   3.157  11.696  0.00  0.00    +0.000 A 
ENDBRANCH  26  27
ENDBRANCH   3  26
TORSDOF 4
ENDMDL
MODEL 5
REMARK VINA RESULT:      -8.2      0.783      1.238
REMARK  Name = 
REMARK  4 active torsions:
REMARK  status: ('A' for Active; 'I' for Inactive)
REMARK    1  A    between atoms: C_2  and  C_3
REMARK    2  A    between atoms: N_5  and  C_6
REMARK    3  A    between atoms: C_6  and  C_7
REMARK    4  A    between atoms: C_14  and  C_15
REMARK                            x       y       z     vdW  Elec       q    Type
REMARK                         _______ _______ _______ _____ _____    ______ ____
ROOT
ATOM      1  C   UNL     1      -0.019  12.021  19.859  0.00  0.00    +0.000 A 
ATOM      2  C   UNL     1       0.874  13.071  19.954  0.00  0.00    +0.000 A 
ATOM      3  N   UNL     1       0.458  14.013  19.066  0.00  0.00    +0.000 N 
ATOM      4  N   UNL     1      -0.569  13.598  18.298  0.00  0.00    +0.000 NA
ATOM      5  C   UNL     1      -0.907  12.392  18.796  0.00  0.00    +0.000 A 
ENDROOT
BRANCH   1   7
ATOM      6  O   UNL     1      -0.457  10.753  21.765  0.00  0.00    +0.000 OA
ATOM      7  C   UNL     1       0.005  10.785  20.627  0.00  0.00    +0.000 C 
ATOM      8  N   UNL     1       0.618   9.671  20.060  0.00  0.00    +0.000 N 
ATOM      9  C   UNL     1       1.130   9.567  18.675  0.00  0.00    +0.000 C 
ATOM     10  C   UNL     1       2.429   8.748  18.565  0.00  0.00    +0.000 C 
ATOM     11  N   UNL     1       2.236   7.491  19.278  0.00  0.00    +0.000 N 
ATOM     12  C   UNL     1       2.625   6.310  18.708  0.00  0.00    +0.000 A 
ATOM     13  C   UNL     1       2.005   5.112  19.061  0.00  0.00    +0.000 A 
ATOM     14  C   UNL     1       2.370   3.923  18.441  0.00  0.00    +0.000 A 
ATOM     15  C   UNL     1       3.362   3.944  17.478  0.00  0.00    +0.000 A 
ATOM     16  C   UNL     1       3.930   5.164  17.167  0.00  0.00    +0.000 A 
ATOM     17  N   UNL     1       3.573   6.332  17.746  0.00  0.00    +0.000 NA
ATOM     18  C   UNL     1       1.908   7.633  20.695  0.00  0.00    +0.000 C 
ATOM     19  C   UNL     1       0.586   8.408  20.816  0.00  0.00    +0.000 C 
ENDBRANCH   1   7
BRANCH   5  20
ATOM     20  C   UNL     1      -2.055  11.647  18.254  0.00  0.00    +0.000 A 
ATOM     21  C   UNL     1      -1.865  10.654  17.282  0.00  0.00    +0.000 A 
ATOM     22  C   UNL     1      -2.945   9.909  16.797  0.00  0.00    +0.000 A 
ATOM     23  C   UNL     1      -4.231  10.147  17.277  0.00  0.00    +0.000 A 
ATOM     24  C   UNL     1      -4.442  11.147  18.220  0.00  0.00    +0.000 A 
ATOM     25  C   UNL     1      -3.365  11.901  18.693  0.00  0.00    +0.000 A 
ENDBRANCH   5  20
BRANCH   3  26
ATOM     26  C   UNL     1       1.079  15.315  18.848  0.00  0.00    +0.000 C 
BRANCH  26  27
ATOM     27  C   UNL     1       0.073  16.437  18.737  0.00  0.00    +0.000 A 
ATOM     28  C   UNL     1       0.122  17.344  17.667  0.00  0.00    +0.000 A 
ATOM     29  C   UNL     1      -0.856  18.333  17.525  0.00  0.00    +0.000 A 
ATOM     30  C   UNL     1      -1.894  18.427  18.450  0.00  0.00    +0.000 A 
ATOM     31  C   UNL     1      -1.950  17.542  19.523  0.00  0.00    +0.000 A 
ATOM     32  C   UNL     1      -0.975  16.552  19.665  0.00  0.00    +0.000 A 
ENDBRANCH  26  27
ENDBRANCH   3  26
TORSDOF 4
ENDMDL
MODEL 6
REMARK VINA RESULT:      -8.2      1.230      2.145
REMARK  Name = 
REMARK  4 active torsions:
REMARK  status: ('A' for Active; 'I' for Inactive)
REMARK    1  A    between atoms: C_2  and  C_3
REMARK    2  A    between atoms: N_5  and  C_6
REMARK    3  A    between atoms: C_6  and  C_7
REMARK    4  A    between atoms: C_14  and  C_15
REMARK                            x       y       z     vdW  Elec       q    Type
REMARK                         _______ _______ _______ _____ _____    ______ ____
ROOT
ATOM      1  C   UNL     1       0.087  11.929  19.877  0.00  0.00    +0.000 A 
ATOM      2  C   UNL     1       1.015  12.950  19.945  0.00  0.00    +0.000 A 
ATOM      3  N   UNL     1       0.598  13.909  19.075  0.00  0.00    +0.000 N 
ATOM      4  N   UNL     1      -0.467  13.530  18.341  0.00  0.00    +0.000 NA
ATOM      5  C   UNL     1      -0.826  12.333  18.846  0.00  0.00    +0.000 A 
ENDROOT
BRANCH   1   7
ATOM      6  O   UNL     1      -0.358  10.658  21.779  0.00  0.00    +0.000 OA
ATOM      7  C   UNL     1       0.098  10.689  20.638  0.00  0.00    +0.000 C 
ATOM      8  N   UNL     1       0.690   9.568  20.062  0.00  0.00    +0.000 N 
ATOM      9  C   UNL     1       1.192   9.464  18.674  0.00  0.00    +0.000 C 
ATOM     10  C   UNL     1       2.478   8.627  18.551  0.00  0.00    +0.000 C 
ATOM     11  N   UNL     1       2.271   7.370  19.259  0.00  0.00    +0.000 N 
ATOM     12  C   UNL     1       2.639   6.186  18.681  0.00  0.00    +0.000 A 
ATOM     13  C   UNL     1       2.005   4.995  19.032  0.00  0.00    +0.000 A 
ATOM     14  C   UNL     1       2.347   3.804  18.404  0.00  0.00    +0.000 A 
ATOM     15  C   UNL     1       3.333   3.815  17.434  0.00  0.00    +0.000 A 
ATOM     16  C   UNL     1       3.917   5.029  17.126  0.00  0.00    +0.000 A 
ATOM     17  N   UNL     1       3.581   6.199  17.713  0.00  0.00    +0.000 NA
ATOM     18  C   UNL     1       1.955   7.509  20.679  0.00  0.00    +0.000 C 
ATOM     19  C   UNL     1       0.645   8.303  20.813  0.00  0.00    +0.000 C 
ENDBRANCH   1   7
BRANCH   5  20
ATOM     20  C   UNL     1      -2.014  11.627  18.340  0.00  0.00    +0.000 A 
ATOM     21  C   UNL     1      -3.293  11.958  18.813  0.00  0.00    +0.000 A 
ATOM     22  C   UNL     1      -4.431  11.325  18.303  0.00  0.00    +0.000 A 
ATOM     23  C   UNL     1      -4.307  10.352  17.312  0.00  0.00    +0.000 A 
ATOM     24  C   UNL     1      -3.045   9.993  16.852  0.00  0.00    +0.000 A 
ATOM     25  C   UNL     1      -1.907  10.614  17.374  0.00  0.00    +0.000 A 
ENDBRANCH   5  20
BRANCH   3  26
ATOM     26  C   UNL     1       1.252  15.192  18.842  0.00  0.00    +0.000 C 
BRANCH  26  27
ATOM     27  C   UNL     1       2.755  15.120  18.969  0.00  0.00    +0.000 A 
ATOM     28  C   UNL     1       3.548  14.668  17.902  0.00  0.00    +0.000 A 
ATOM     29  C   UNL     1       4.943  14.677  17.997  0.00  0.00    +0.000 A 
ATOM     30  C   UNL     1       5.562  15.135  19.158  0.00  0.00    +0.000 A 
ATOM     31  C   UNL     1       4.789  15.573  20.229  0.00  0.00    +0.000 A 
ATOM     32  C   UNL     1       3.396  15.568  20.136  0.00  0.00    +0.000 A 
ENDBRANCH  26  27
ENDBRANCH   3  26
TORSDOF 4
ENDMDL
MODEL 7
REMARK VINA RESULT:      -7.9      1.420      2.310
REMARK  Name = 
REMARK  4 active torsions:
REMARK  status: ('A' for Active; 'I' for Inactive)
REMARK    1  A    between atoms: C_2  and  C_3
REMARK    2  A    between atoms: N_5  and  C_6
REMARK    3  A    between atoms: C_6  and  C_7
REMARK    4  A    between atoms: C_14  and  C_15
REMARK                            x       y       z     vdW  Elec       q    Type
REMARK                         _______ _______ _______ _____ _____    ______ ____
ROOT
ATOM      1  C   UNL     1       0.673  11.617  19.774  0.00  0.00    +0.000 A 
ATOM      2  C   UNL     1       1.718  12.518  19.726  0.00  0.00    +0.000 A 
ATOM      3  N   UNL     1       1.344  13.497  18.860  0.00  0.00    +0.000 N 
ATOM      4  N   UNL     1       0.182  13.232  18.232  0.00  0.00    +0.000 NA
ATOM      5  C   UNL     1      -0.272  12.101  18.809  0.00  0.00    +0.000 A 
ENDROOT
BRANCH   1   7
ATOM      6  O   UNL     1       0.219  10.457  21.744  0.00  0.00    +0.000 OA
ATOM      7  C   UNL     1       0.603  10.406  20.577  0.00  0.00    +0.000 C 
ATOM      8  N   UNL     1       1.040   9.212  20.008  0.00  0.00    +0.000 N 
ATOM      9  C   UNL     1       1.441   9.015  18.597  0.00  0.00    +0.000 C 
ATOM     10  C   UNL     1       2.624   8.044  18.429  0.00  0.00    +0.000 C 
ATOM     11  N   UNL     1       2.332   6.837  19.193  0.00  0.00    +0.000 N 
ATOM     12  C   UNL     1       2.540   5.604  18.637  0.00  0.00    +0.000 A 
ATOM     13  C   UNL     1       1.809   4.498  19.067  0.00  0.00    +0.000 A 
ATOM     14  C   UNL     1       1.987   3.260  18.463  0.00  0.00    +0.000 A 
ATOM     15  C   UNL     1       2.907   3.139  17.437  0.00  0.00    +0.000 A 
ATOM     16  C   UNL     1       3.593   4.274  17.052  0.00  0.00    +0.000 A 
ATOM     17  N   UNL     1       3.417   5.490  17.615  0.00  0.00    +0.000 NA
ATOM     18  C   UNL     1       2.121   7.051  20.623  0.00  0.00    +0.000 C 
ATOM     19  C   UNL     1       0.911   7.982  20.805  0.00  0.00    +0.000 C 
ENDBRANCH   1   7
BRANCH   5  20
ATOM     20  C   UNL     1      -1.576  11.532  18.432  0.00  0.00    +0.000 A 
ATOM     21  C   UNL     1      -2.764  12.086  18.928  0.00  0.00    +0.000 A 
ATOM     22  C   UNL     1      -4.009  11.581  18.537  0.00  0.00    +0.000 A 
ATOM     23  C   UNL     1      -4.082  10.515  17.642  0.00  0.00    +0.000 A 
ATOM     24  C   UNL     1      -2.913   9.936  17.161  0.00  0.00    +0.000 A 
ATOM     25  C   UNL     1      -1.670  10.431  17.565  0.00  0.00    +0.000 A 
ENDBRANCH   5  20
BRANCH   3  26
ATOM     26  C   UNL     1       2.123  14.685  18.524  0.00  0.00    +0.000 C 
BRANCH  26  27
ATOM     27  C   UNL     1       3.149  15.033  19.577  0.00  0.00    +0.000 A 
ATOM     28  C   UNL     1       2.754  15.434  20.863  0.00  0.00    +0.000 A 
ATOM     29  C   UNL     1       3.707  15.681  21.856  0.00  0.00    +0.000 A 
ATOM     30  C   UNL     1       5.063  15.531  21.577  0.00  0.00    +0.000 A 
ATOM     31  C   UNL     1       5.471  15.146  20.303  0.00  0.00    +0.000 A 
ATOM     32  C   UNL     1       4.521  14.897  19.310  0.00  0.00    +0.000 A 
ENDBRANCH  26  27
ENDBRANCH   3  26
TORSDOF 4
ENDMDL
MODEL 8
REMARK VINA RESULT:      -7.9      1.188      1.820
REMARK  Name = 
REMARK  4 active torsions:
REMARK  status: ('A' for Active; 'I' for Inactive)
REMARK    1  A    between atoms: C_2  and  C_3
REMARK    2  A    between atoms: N_5  and  C_6
REMARK    3  A    between atoms: C_6  and  C_7
REMARK    4  A    between atoms: C_14  and  C_15
REMARK                            x       y       z     vdW  Elec       q    Type
REMARK                         _______ _______ _______ _____ _____    ______ ____
ROOT
ATOM      1  C   UNL     1       0.020  11.489  20.613  0.00  0.00    +0.000 A 
ATOM      2  C   UNL     1       0.908  12.480  20.983  0.00  0.00    +0.000 A 
ATOM      3  N   UNL     1       0.580  13.583  20.258  0.00  0.00    +0.000 N 
ATOM      4  N   UNL     1      -0.377  13.346  19.340  0.00  0.00    +0.000 NA
ATOM      5  C   UNL     1      -0.767  12.076  19.567  0.00  0.00    +0.000 A 
ENDROOT
BRANCH   1   7
ATOM      6  O   UNL     1      -0.600   9.894  22.195  0.00  0.00    +0.000 OA
ATOM      7  C   UNL     1      -0.033  10.130  21.130  0.00  0.00    +0.000 C 
ATOM      8  N   UNL     1       0.624   9.129  20.419  0.00  0.00    +0.000 N 
ATOM      9  C   UNL     1       1.262   9.278  19.092  0.00  0.00    +0.000 C 
ATOM     10  C   UNL     1       2.561   8.465  18.945  0.00  0.00    +0.000 C 
ATOM     11  N   UNL     1       2.296   7.102  19.386  0.00  0.00    +0.000 N 
ATOM     12  C   UNL     1       2.731   6.041  18.639  0.00  0.00    +0.000 A 
ATOM     13  C   UNL     1       2.075   4.812  18.699  0.00  0.00    +0.000 A 
ATOM     14  C   UNL     1       2.489   3.754  17.900  0.00  0.00    +0.000 A 
ATOM     15  C   UNL     1       3.567   3.935  17.052  0.00  0.00    +0.000 A 
ATOM     16  C   UNL     1       4.168   5.178  17.032  0.00  0.00    +0.000 A 
ATOM     17  N   UNL     1       3.764   6.223  17.788  0.00  0.00    +0.000 NA
ATOM     18  C   UNL     1       1.839   6.980  20.769  0.00  0.00    +0.000 C 
ATOM     19  C   UNL     1       0.516   7.748  20.916  0.00  0.00    +0.000 C 
ENDBRANCH   1   7
BRANCH   5  20
ATOM     20  C   UNL     1      -1.868  11.475  18.796  0.00  0.00    +0.000 A 
ATOM     21  C   UNL     1      -3.192  11.886  19.006  0.00  0.00    +0.000 A 
ATOM     22  C   UNL     1      -4.237  11.354  18.244  0.00  0.00    +0.000 A 
ATOM     23  C   UNL     1      -3.973  10.403  17.260  0.00  0.00    +0.000 A 
ATOM     24  C   UNL     1      -2.669   9.964  17.056  0.00  0.00    +0.000 A 
ATOM     25  C   UNL     1      -1.628  10.484  17.829  0.00  0.00    +0.000 A 
ENDBRANCH   5  20
BRANCH   3  26
ATOM     26  C   UNL     1       1.227  14.888  20.347  0.00  0.00    +0.000 C 
BRANCH  26  27
ATOM     27  C   UNL     1       2.249  15.115  19.258  0.00  0.00    +0.000 A 
ATOM     28  C   UNL     1       2.137  16.207  18.383  0.00  0.00    +0.000 A 
ATOM     29  C   UNL     1       3.126  16.457  17.426  0.00  0.00    +0.000 A 
ATOM     30  C   UNL     1       4.236  15.620  17.333  0.00  0.00    +0.000 A 
ATOM     31  C   UNL     1       4.354  14.526  18.186  0.00  0.00    +0.000 A 
ATOM     32  C   UNL     1       3.369  14.276  19.143  0.00  0.00    +0.000 A 
ENDBRANCH  26  27
ENDBRANCH   3  26
TORSDOF 4
ENDMDL
MODEL 9
REMARK VINA RESULT:      -7.8      1.071      1.591
REMARK  Name = 
REMARK  4 active torsions:
REMARK  status: ('A' for Active; 'I' for Inactive)
REMARK    1  A    between atoms: C_2  and  C_3
REMARK    2  A    between atoms: N_5  and  C_6
REMARK    3  A    between atoms: C_6  and  C_7
REMARK    4  A    between atoms: C_14  and  C_15
REMARK                            x       y       z     vdW  Elec       q    Type
REMARK                         _______ _______ _______ _____ _____    ______ ____
ROOT
ATOM      1  C   UNL     1       0.789  11.749  19.618  0.00  0.00    +0.000 A 
ATOM      2  C   UNL     1       1.915  12.534  19.455  0.00  0.00    +0.000 A 
ATOM      3  N   UNL     1       1.564  13.540  18.610  0.00  0.00    +0.000 N 
ATOM      4  N   UNL     1       0.325  13.396  18.102  0.00  0.00    +0.000 NA
ATOM      5  C   UNL     1      -0.188  12.325  18.740  0.00  0.00    +0.000 A 
ENDROOT
BRANCH   1   7
ATOM      6  O   UNL     1       0.276  10.648  21.608  0.00  0.00    +0.000 OA
ATOM      7  C   UNL     1       0.670  10.559  20.447  0.00  0.00    +0.000 C 
ATOM      8  N   UNL     1       1.070   9.339  19.907  0.00  0.00    +0.000 N 
ATOM      9  C   UNL     1       1.477   9.098  18.505  0.00  0.00    +0.000 C 
ATOM     10  C   UNL     1       2.627   8.083  18.370  0.00  0.00    +0.000 C 
ATOM     11  N   UNL     1       2.287   6.904  19.156  0.00  0.00    +0.000 N 
ATOM     12  C   UNL     1       2.456   5.653  18.628  0.00  0.00    +0.000 A 
ATOM     13  C   UNL     1       1.683   4.582  19.074  0.00  0.00    +0.000 A 
ATOM     14  C   UNL     1       1.824   3.325  18.499  0.00  0.00    +0.000 A 
ATOM     15  C   UNL     1       2.749   3.151  17.485  0.00  0.00    +0.000 A 
ATOM     16  C   UNL     1       3.478   4.253  17.083  0.00  0.00    +0.000 A 
ATOM     17  N   UNL     1       3.338   5.486  17.618  0.00  0.00    +0.000 NA
ATOM     18  C   UNL     1       2.069   7.156  20.579  0.00  0.00    +0.000 C 
ATOM     19  C   UNL     1       0.891   8.131  20.729  0.00  0.00    +0.000 C 
ENDBRANCH   1   7
BRANCH   5  20
ATOM     20  C   UNL     1      -1.575  11.896  18.499  0.00  0.00    +0.000 A 
ATOM     21  C   UNL     1      -1.871  10.989  17.471  0.00  0.00    +0.000 A 
ATOM     22  C   UNL     1      -3.180  10.540  17.266  0.00  0.00    +0.000 A 
ATOM     23  C   UNL     1      -4.212  10.991  18.087  0.00  0.00    +0.000 A 
ATOM     24  C   UNL     1      -3.940  11.911  19.094  0.00  0.00    +0.000 A 
ATOM     25  C   UNL     1      -2.635  12.372  19.287  0.00  0.00    +0.000 A 
ENDBRANCH   5  20
BRANCH   3  26
ATOM     26  C   UNL     1       2.428  14.635  18.181  0.00  0.00    +0.000 C 
BRANCH  26  27
ATOM     27  C   UNL     1       2.322  15.853  19.069  0.00  0.00    +0.000 A 
ATOM     28  C   UNL     1       1.295  16.791  18.883  0.00  0.00    +0.000 A 
ATOM     29  C   UNL     1       1.154  17.875  19.754  0.00  0.00    +0.000 A 
ATOM     30  C   UNL     1       2.037  18.035  20.820  0.00  0.00    +0.000 A 
ATOM     31  C   UNL     1       3.069  17.120  21.009  0.00  0.00    +0.000 A 
ATOM     32  C   UNL     1       3.210  16.035  20.141  0.00  0.00    +0.000 A 
ENDBRANCH  26  27
ENDBRANCH   3  26
TORSDOF 4
ENDMDL
