MODEL 1
REMARK VINA RESULT:      -6.4      0.000      0.000
REMARK  Name = 
REMARK  8 active torsions:
REMARK  status: ('A' for Active; 'I' for Inactive)
REMARK    1  A    between atoms: C_1  and  C_2
REMARK    2  A    between atoms: C_2  and  N_3
REMARK    3  A    between atoms: N_3  and  C_4
REMARK    4  A    between atoms: N_3  and  C_6
REMARK    5  A    between atoms: C_4  and  C_5
REMARK    6  A    between atoms: C_6  and  C_7
REMARK    7  A    between atoms: C_8  and  C_9
REMARK    8  A    between atoms: C_9  and  N_10
REMARK                            x       y       z     vdW  Elec       q    Type
REMARK                         _______ _______ _______ _____ _____    ______ ____
ROOT
ATOM      1  N   UNL     1       3.442   5.587  18.530  0.00  0.00    +0.000 N 
ATOM      2  C   UNL     1       4.215   5.475  17.348  0.00  0.00    +0.000 A 
ATOM      3  C   UNL     1       4.828   6.561  16.709  0.00  0.00    +0.000 A 
ATOM      4  N   UNL     1       5.631   6.504  15.611  0.00  0.00    +0.000 NA
ATOM      5  C   UNL     1       5.844   5.289  15.080  0.00  0.00    +0.000 A 
ATOM      6  C   UNL     1       5.265   4.145  15.581  0.00  0.00    +0.000 A 
ATOM      7  C   UNL     1       4.435   4.242  16.708  0.00  0.00    +0.000 A 
ATOM      8  S   UNL     1       3.709   2.712  17.250  0.00  0.00    +0.000 S 
ATOM      9  C   UNL     1       2.682   3.245  18.592  0.00  0.00    +0.000 A 
ATOM     10  C   UNL     1       1.863   2.263  19.170  0.00  0.00    +0.000 A 
ATOM     11  C   UNL     1       1.062   2.575  20.255  0.00  0.00    +0.000 A 
ATOM     12  C   UNL     1       1.108   3.867  20.725  0.00  0.00    +0.000 A 
ATOM     13  N   UNL     1       1.873   4.842  20.179  0.00  0.00    +0.000 NA
ATOM     14  C   UNL     1       2.667   4.550  19.113  0.00  0.00    +0.000 A 
ENDROOT
BRANCH   1  15
ATOM     15  C   UNL     1       3.483   6.846  19.320  0.00  0.00    +0.000 C 
BRANCH  15  17
ATOM     16  C   UNL     1       1.586   8.685  18.323  0.00  0.00    +0.000 C 
ATOM     17  C   UNL     1       2.462   7.836  18.784  0.00  0.00    +0.000 C 
BRANCH  16  18
ATOM     18  C   UNL     1       0.565   9.675  17.786  0.00  0.00    +0.000 C 
BRANCH  18  19
ATOM     19  N   UNL     1      -0.320  10.189  18.846  0.00  0.00    +0.000 NA
BRANCH  19  21
ATOM     20  C   UNL     1       0.566  10.937  21.086  0.00  0.00    +0.000 C 
ATOM     21  C   UNL     1       0.389  11.236  19.600  0.00  0.00    +0.000 C 
ENDBRANCH  19  21
BRANCH  19  22
ATOM     22  C   UNL     1      -1.650  10.599  18.363  0.00  0.00    +0.000 C 
ATOM     23  C   UNL     1      -2.162   9.917  17.099  0.00  0.00    +0.000 C 
ENDBRANCH  19  22
ENDBRANCH  18  19
ENDBRANCH  16  18
ENDBRANCH  15  17
ENDBRANCH   1  15
TORSDOF 6
ENDMDL
MODEL 2
REMARK VINA RESULT:      -6.3      0.421      1.492
REMARK  Name = 
REMARK  8 active torsions:
REMARK  status: ('A' for Active; 'I' for Inactive)
REMARK    1  A    between atoms: C_1  and  C_2
REMARK    2  A    between atoms: C_2  and  N_3
REMARK    3  A    between atoms: N_3  and  C_4
REMARK    4  A    between atoms: N_3  and  C_6
REMARK    5  A    between atoms: C_4  and  C_5
REMARK    6  A    between atoms: C_6  and  C_7
REMARK    7  A    between atoms: C_8  and  C_9
REMARK    8  A    between atoms: C_9  and  N_10
REMARK                            x       y       z     vdW  Elec       q    Type
REMARK                         _______ _______ _______ _____ _____    ______ ____
ROOT
ATOM      1  N   UNL     1       3.467   5.526  18.545  0.00  0.00    +0.000 N 
ATOM      2  C   UNL     1       4.228   5.404  17.356  0.00  0.00    +0.000 A 
ATOM      3  C   UNL     1       4.831   6.485  16.698  0.00  0.00    +0.000 A 
ATOM      4  N   UNL     1       5.622   6.419  15.593  0.00  0.00    +0.000 NA
ATOM      5  C   UNL     1       5.834   5.199  15.073  0.00  0.00    +0.000 A 
ATOM      6  C   UNL     1       5.264   4.058  15.593  0.00  0.00    +0.000 A 
ATOM      7  C   UNL     1       4.446   4.165  16.728  0.00  0.00    +0.000 A 
ATOM      8  S   UNL     1       3.731   2.638  17.294  0.00  0.00    +0.000 S 
ATOM      9  C   UNL     1       2.716   3.183  18.641  0.00  0.00    +0.000 A 
ATOM     10  C   UNL     1       1.908   2.204  19.238  0.00  0.00    +0.000 A 
ATOM     11  C   UNL     1       1.116   2.525  20.328  0.00  0.00    +0.000 A 
ATOM     12  C   UNL     1       1.163   3.823  20.783  0.00  0.00    +0.000 A 
ATOM     13  N   UNL     1       1.919   4.794  20.218  0.00  0.00    +0.000 NA
ATOM     14  C   UNL     1       2.702   4.493  19.148  0.00  0.00    +0.000 A 
ENDROOT
BRANCH   1  15
ATOM     15  C   UNL     1       3.512   6.794  19.321  0.00  0.00    +0.000 C 
BRANCH  15  17
ATOM     16  C   UNL     1       1.624   8.629  18.303  0.00  0.00    +0.000 C 
ATOM     17  C   UNL     1       2.495   7.781  18.773  0.00  0.00    +0.000 C 
BRANCH  16  18
ATOM     18  C   UNL     1       0.606   9.618  17.756  0.00  0.00    +0.000 C 
BRANCH  18  19
ATOM     19  N   UNL     1       0.226  10.633  18.754  0.00  0.00    +0.000 NA
BRANCH  19  21
ATOM     20  C   UNL     1      -1.974  10.116  17.633  0.00  0.00    +0.000 C 
ATOM     21  C   UNL     1      -1.151  11.078  18.486  0.00  0.00    +0.000 C 
ENDBRANCH  19  21
BRANCH  19  22
ATOM     22  C   UNL     1       0.456  10.213  20.147  0.00  0.00    +0.000 C 
ATOM     23  C   UNL     1      -0.525  10.731  21.192  0.00  0.00    +0.000 C 
ENDBRANCH  19  22
ENDBRANCH  18  19
ENDBRANCH  16  18
ENDBRANCH  15  17
ENDBRANCH   1  15
TORSDOF 6
ENDMDL
MODEL 3
REMARK VINA RESULT:      -6.2      1.764      2.154
REMARK  Name = 
REMARK  8 active torsions:
REMARK  status: ('A' for Active; 'I' for Inactive)
REMARK    1  A    between atoms: C_1  and  C_2
REMARK    2  A    between atoms: C_2  and  N_3
REMARK    3  A    between atoms: N_3  and  C_4
REMARK    4  A    between atoms: N_3  and  C_6
REMARK    5  A    between atoms: C_4  and  C_5
REMARK    6  A    between atoms: C_6  and  C_7
REMARK    7  A    between atoms: C_8  and  C_9
REMARK    8  A    between atoms: C_9  and  N_10
REMARK                            x       y       z     vdW  Elec       q    Type
REMARK                         _______ _______ _______ _____ _____    ______ ____
ROOT
ATOM      1  N   UNL     1       3.477   5.709  17.912  0.00  0.00    +0.000 N 
ATOM      2  C   UNL     1       4.870   5.967  17.883  0.00  0.00    +0.000 A 
ATOM      3  C   UNL     1       5.445   7.090  17.271  0.00  0.00    +0.000 A 
ATOM      4  N   UNL     1       6.766   7.421  17.267  0.00  0.00    +0.000 NA
ATOM      5  C   UNL     1       7.601   6.581  17.900  0.00  0.00    +0.000 A 
ATOM      6  C   UNL     1       7.174   5.418  18.501  0.00  0.00    +0.000 A 
ATOM      7  C   UNL     1       5.807   5.104  18.478  0.00  0.00    +0.000 A 
ATOM      8  S   UNL     1       5.369   3.563  19.250  0.00  0.00    +0.000 S 
ATOM      9  C   UNL     1       3.627   3.475  18.937  0.00  0.00    +0.000 A 
ATOM     10  C   UNL     1       2.990   2.288  19.329  0.00  0.00    +0.000 A 
ATOM     11  C   UNL     1       1.621   2.147  19.168  0.00  0.00    +0.000 A 
ATOM     12  C   UNL     1       0.937   3.206  18.617  0.00  0.00    +0.000 A 
ATOM     13  N   UNL     1       1.524   4.356  18.213  0.00  0.00    +0.000 NA
ATOM     14  C   UNL     1       2.867   4.510  18.366  0.00  0.00    +0.000 A 
ENDROOT
BRANCH   1  15
ATOM     15  C   UNL     1       2.521   6.783  17.533  0.00  0.00    +0.000 C 
BRANCH  15  17
ATOM     16  C   UNL     1       1.701   8.212  19.825  0.00  0.00    +0.000 C 
ATOM     17  C   UNL     1       2.079   7.553  18.766  0.00  0.00    +0.000 C 
BRANCH  16  18
ATOM     18  C   UNL     1       1.259   8.981  21.060  0.00  0.00    +0.000 C 
BRANCH  18  19
ATOM     19  N   UNL     1      -0.036   9.656  20.860  0.00  0.00    +0.000 NA
BRANCH  19  21
ATOM     20  C   UNL     1      -0.116   9.564  23.380  0.00  0.00    +0.000 C 
ATOM     21  C   UNL     1      -0.415  10.346  22.104  0.00  0.00    +0.000 C 
ENDBRANCH  19  21
BRANCH  19  22
ATOM     22  C   UNL     1      -0.080  10.514  19.664  0.00  0.00    +0.000 C 
ATOM     23  C   UNL     1      -1.256  10.310  18.715  0.00  0.00    +0.000 C 
ENDBRANCH  19  22
ENDBRANCH  18  19
ENDBRANCH  16  18
ENDBRANCH  15  17
ENDBRANCH   1  15
TORSDOF 6
ENDMDL
MODEL 4
REMARK VINA RESULT:      -6.2      0.859      1.326
REMARK  Name = 
REMARK  8 active torsions:
REMARK  status: ('A' for Active; 'I' for Inactive)
REMARK    1  A    between atoms: C_1  and  C_2
REMARK    2  A    between atoms: C_2  and  N_3
REMARK    3  A    between atoms: N_3  and  C_4
REMARK    4  A    between atoms: N_3  and  C_6
REMARK    5  A    between atoms: C_4  and  C_5
REMARK    6  A    between atoms: C_6  and  C_7
REMARK    7  A    between atoms: C_8  and  C_9
REMARK    8  A    between atoms: C_9  and  N_10
REMARK                            x       y       z     vdW  Elec       q    Type
REMARK                         _______ _______ _______ _____ _____    ______ ____
ROOT
ATOM      1  N   UNL     1       3.398   5.574  18.442  0.00  0.00    +0.000 N 
ATOM      2  C   UNL     1       4.223   5.474  17.294  0.00  0.00    +0.000 A 
ATOM      3  C   UNL     1       4.928   6.552  16.742  0.00  0.00    +0.000 A 
ATOM      4  N   UNL     1       5.782   6.501  15.682  0.00  0.00    +0.000 NA
ATOM      5  C   UNL     1       5.953   5.303  15.100  0.00  0.00    +0.000 A 
ATOM      6  C   UNL     1       5.285   4.172  15.513  0.00  0.00    +0.000 A 
ATOM      7  C   UNL     1       4.405   4.263  16.603  0.00  0.00    +0.000 A 
ATOM      8  S   UNL     1       3.567   2.754  17.029  0.00  0.00    +0.000 S 
ATOM      9  C   UNL     1       2.504   3.281  18.346  0.00  0.00    +0.000 A 
ATOM     10  C   UNL     1       1.603   2.322  18.832  0.00  0.00    +0.000 A 
ATOM     11  C   UNL     1       0.766   2.628  19.892  0.00  0.00    +0.000 A 
ATOM     12  C   UNL     1       0.862   3.891  20.430  0.00  0.00    +0.000 A 
ATOM     13  N   UNL     1       1.707   4.844  19.972  0.00  0.00    +0.000 NA
ATOM     14  C   UNL     1       2.537   4.558  18.933  0.00  0.00    +0.000 A 
ENDROOT
BRANCH   1  15
ATOM     15  C   UNL     1       3.470   6.789  19.296  0.00  0.00    +0.000 C 
BRANCH  15  17
ATOM     16  C   UNL     1       1.649   8.739  18.375  0.00  0.00    +0.000 C 
ATOM     17  C   UNL     1       2.490   7.839  18.800  0.00  0.00    +0.000 C 
BRANCH  16  18
ATOM     18  C   UNL     1       0.667   9.789  17.878  0.00  0.00    +0.000 C 
BRANCH  18  19
ATOM     19  N   UNL     1       0.205  10.673  18.962  0.00  0.00    +0.000 NA
BRANCH  19  21
ATOM     20  C   UNL     1       0.201  10.217  21.443  0.00  0.00    +0.000 C 
ATOM     21  C   UNL     1      -0.329   9.850  20.059  0.00  0.00    +0.000 C 
ENDBRANCH  19  21
BRANCH  19  22
ATOM     22  C   UNL     1       1.210  11.661  19.392  0.00  0.00    +0.000 C 
ATOM     23  C   UNL     1       2.112  12.240  18.308  0.00  0.00    +0.000 C 
ENDBRANCH  19  22
ENDBRANCH  18  19
ENDBRANCH  16  18
ENDBRANCH  15  17
ENDBRANCH   1  15
TORSDOF 6
ENDMDL
MODEL 5
REMARK VINA RESULT:      -6.1      1.819      2.482
REMARK  Name = 
REMARK  8 active torsions:
REMARK  status: ('A' for Active; 'I' for Inactive)
REMARK    1  A    between atoms: C_1  and  C_2
REMARK    2  A    between atoms: C_2  and  N_3
REMARK    3  A    between atoms: N_3  and  C_4
REMARK    4  A    between atoms: N_3  and  C_6
REMARK    5  A    between atoms: C_4  and  C_5
REMARK    6  A    between atoms: C_6  and  C_7
REMARK    7  A    between atoms: C_8  and  C_9
REMARK    8  A    between atoms: C_9  and  N_10
REMARK                            x       y       z     vdW  Elec       q    Type
REMARK                         _______ _______ _______ _____ _____    ______ ____
ROOT
ATOM      1  N   UNL     1       3.223   5.846  18.428  0.00  0.00    +0.000 N 
ATOM      2  C   UNL     1       4.556   5.921  17.952  0.00  0.00    +0.000 A 
ATOM      3  C   UNL     1       5.012   6.896  17.054  0.00  0.00    +0.000 A 
ATOM      4  N   UNL     1       6.291   7.054  16.614  0.00  0.00    +0.000 NA
ATOM      5  C   UNL     1       7.201   6.181  17.074  0.00  0.00    +0.000 A 
ATOM      6  C   UNL     1       6.878   5.147  17.925  0.00  0.00    +0.000 A 
ATOM      7  C   UNL     1       5.548   5.009  18.351  0.00  0.00    +0.000 A 
ATOM      8  S   UNL     1       5.234   3.620  19.416  0.00  0.00    +0.000 S 
ATOM      9  C   UNL     1       3.480   3.724  19.650  0.00  0.00    +0.000 A 
ATOM     10  C   UNL     1       2.891   2.672  20.367  0.00  0.00    +0.000 A 
ATOM     11  C   UNL     1       1.533   2.690  20.640  0.00  0.00    +0.000 A 
ATOM     12  C   UNL     1       0.811   3.768  20.183  0.00  0.00    +0.000 A 
ATOM     13  N   UNL     1       1.346   4.789  19.473  0.00  0.00    +0.000 NA
ATOM     14  C   UNL     1       2.678   4.785  19.198  0.00  0.00    +0.000 A 
ENDROOT
BRANCH   1  15
ATOM     15  C   UNL     1       2.299   6.991  18.211  0.00  0.00    +0.000 C 
BRANCH  15  17
ATOM     16  C   UNL     1       1.676   8.224  20.673  0.00  0.00    +0.000 C 
ATOM     17  C   UNL     1       1.964   7.655  19.537  0.00  0.00    +0.000 C 
BRANCH  16  18
ATOM     18  C   UNL     1       1.340   8.888  21.999  0.00  0.00    +0.000 C 
BRANCH  18  19
ATOM     19  N   UNL     1       0.353   9.971  21.843  0.00  0.00    +0.000 NA
BRANCH  19  21
ATOM     20  C   UNL     1      -0.214  11.074  19.647  0.00  0.00    +0.000 C 
ATOM     21  C   UNL     1      -0.307   9.835  20.534  0.00  0.00    +0.000 C 
ENDBRANCH  19  21
BRANCH  19  22
ATOM     22  C   UNL     1      -0.584  10.088  22.974  0.00  0.00    +0.000 C 
ATOM     23  C   UNL     1      -1.408  11.369  23.053  0.00  0.00    +0.000 C 
ENDBRANCH  19  22
ENDBRANCH  18  19
ENDBRANCH  16  18
ENDBRANCH  15  17
ENDBRANCH   1  15
TORSDOF 6
ENDMDL
MODEL 6
REMARK VINA RESULT:      -6.1      1.992      2.415
REMARK  Name = 
REMARK  8 active torsions:
REMARK  status: ('A' for Active; 'I' for Inactive)
REMARK    1  A    between atoms: C_1  and  C_2
REMARK    2  A    between atoms: C_2  and  N_3
REMARK    3  A    between atoms: N_3  and  C_4
REMARK    4  A    between atoms: N_3  and  C_6
REMARK    5  A    between atoms: C_4  and  C_5
REMARK    6  A    between atoms: C_6  and  C_7
REMARK    7  A    between atoms: C_8  and  C_9
REMARK    8  A    between atoms: C_9  and  N_10
REMARK                            x       y       z     vdW  Elec       q    Type
REMARK                         _______ _______ _______ _____ _____    ______ ____
ROOT
ATOM      1  N   UNL     1       3.302   5.814  18.415  0.00  0.00    +0.000 N 
ATOM      2  C   UNL     1       4.651   5.898  17.990  0.00  0.00    +0.000 A 
ATOM      3  C   UNL     1       5.129   6.861  17.091  0.00  0.00    +0.000 A 
ATOM      4  N   UNL     1       6.422   7.028  16.698  0.00  0.00    +0.000 NA
ATOM      5  C   UNL     1       7.325   6.176  17.210  0.00  0.00    +0.000 A 
ATOM      6  C   UNL     1       6.982   5.154  18.067  0.00  0.00    +0.000 A 
ATOM      7  C   UNL     1       5.638   5.006  18.444  0.00  0.00    +0.000 A 
ATOM      8  S   UNL     1       5.300   3.633  19.522  0.00  0.00    +0.000 S 
ATOM      9  C   UNL     1       3.537   3.718  19.685  0.00  0.00    +0.000 A 
ATOM     10  C   UNL     1       2.933   2.671  20.399  0.00  0.00    +0.000 A 
ATOM     11  C   UNL     1       1.566   2.677  20.619  0.00  0.00    +0.000 A 
ATOM     12  C   UNL     1       0.849   3.737  20.113  0.00  0.00    +0.000 A 
ATOM     13  N   UNL     1       1.398   4.751  19.406  0.00  0.00    +0.000 NA
ATOM     14  C   UNL     1       2.740   4.760  19.183  0.00  0.00    +0.000 A 
ENDROOT
BRANCH   1  15
ATOM     15  C   UNL     1       2.372   6.942  18.141  0.00  0.00    +0.000 C 
BRANCH  15  17
ATOM     16  C   UNL     1       1.652   8.223  20.551  0.00  0.00    +0.000 C 
ATOM     17  C   UNL     1       1.985   7.631  19.439  0.00  0.00    +0.000 C 
BRANCH  16  18
ATOM     18  C   UNL     1       1.265   8.913  21.850  0.00  0.00    +0.000 C 
BRANCH  18  19
ATOM     19  N   UNL     1      -0.069   9.534  21.771  0.00  0.00    +0.000 NA
BRANCH  19  21
ATOM     20  C   UNL     1      -1.449  11.109  23.178  0.00  0.00    +0.000 C 
ATOM     21  C   UNL     1      -0.505   9.910  23.127  0.00  0.00    +0.000 C 
ENDBRANCH  19  21
BRANCH  19  22
ATOM     22  C   UNL     1      -0.159  10.629  20.790  0.00  0.00    +0.000 C 
ATOM     23  C   UNL     1       1.007  11.610  20.748  0.00  0.00    +0.000 C 
ENDBRANCH  19  22
ENDBRANCH  18  19
ENDBRANCH  16  18
ENDBRANCH  15  17
ENDBRANCH   1  15
TORSDOF 6
ENDMDL
MODEL 7
REMARK VINA RESULT:      -6.1      1.012      4.178
REMARK  Name = 
REMARK  8 active torsions:
REMARK  status: ('A' for Active; 'I' for Inactive)
REMARK    1  A    between atoms: C_1  and  C_2
REMARK    2  A    between atoms: C_2  and  N_3
REMARK    3  A    between atoms: N_3  and  C_4
REMARK    4  A    between atoms: N_3  and  C_6
REMARK    5  A    between atoms: C_4  and  C_5
REMARK    6  A    between atoms: C_6  and  C_7
REMARK    7  A    between atoms: C_8  and  C_9
REMARK    8  A    between atoms: C_9  and  N_10
REMARK                            x       y       z     vdW  Elec       q    Type
REMARK                         _______ _______ _______ _____ _____    ______ ____
ROOT
ATOM      1  N   UNL     1       4.017   5.965  17.871  0.00  0.00    +0.000 N 
ATOM      2  C   UNL     1       3.092   5.391  18.779  0.00  0.00    +0.000 A 
ATOM      3  C   UNL     1       2.545   6.074  19.874  0.00  0.00    +0.000 A 
ATOM      4  N   UNL     1       1.608   5.595  20.739  0.00  0.00    +0.000 NA
ATOM      5  C   UNL     1       1.178   4.340  20.531  0.00  0.00    +0.000 A 
ATOM      6  C   UNL     1       1.668   3.544  19.520  0.00  0.00    +0.000 A 
ATOM      7  C   UNL     1       2.640   4.066  18.653  0.00  0.00    +0.000 A 
ATOM      8  S   UNL     1       3.230   2.942  17.409  0.00  0.00    +0.000 S 
ATOM      9  C   UNL     1       4.478   3.907  16.601  0.00  0.00    +0.000 A 
ATOM     10  C   UNL     1       5.233   3.243  15.622  0.00  0.00    +0.000 A 
ATOM     11  C   UNL     1       6.198   3.929  14.904  0.00  0.00    +0.000 A 
ATOM     12  C   UNL     1       6.374   5.263  15.195  0.00  0.00    +0.000 A 
ATOM     13  N   UNL     1       5.676   5.926  16.145  0.00  0.00    +0.000 NA
ATOM     14  C   UNL     1       4.723   5.267  16.857  0.00  0.00    +0.000 A 
ENDROOT
BRANCH   1  15
ATOM     15  C   UNL     1       4.235   7.436  17.875  0.00  0.00    +0.000 C 
BRANCH  15  17
ATOM     16  C   UNL     1       1.758   8.790  17.854  0.00  0.00    +0.000 C 
ATOM     17  C   UNL     1       2.901   8.165  17.863  0.00  0.00    +0.000 C 
BRANCH  16  18
ATOM     18  C   UNL     1       0.423   9.519  17.843  0.00  0.00    +0.000 C 
BRANCH  18  19
ATOM     19  N   UNL     1       0.181  10.252  19.099  0.00  0.00    +0.000 NA
BRANCH  19  21
ATOM     20  C   UNL     1      -2.064  10.348  17.952  0.00  0.00    +0.000 C 
ATOM     21  C   UNL     1      -1.265  10.491  19.244  0.00  0.00    +0.000 C 
ENDBRANCH  19  21
BRANCH  19  22
ATOM     22  C   UNL     1       0.805   9.630  20.279  0.00  0.00    +0.000 C 
ATOM     23  C   UNL     1      -0.135   8.994  21.298  0.00  0.00    +0.000 C 
ENDBRANCH  19  22
ENDBRANCH  18  19
ENDBRANCH  16  18
ENDBRANCH  15  17
ENDBRANCH   1  15
TORSDOF 6
ENDMDL
MODEL 8
REMARK VINA RESULT:      -6.0      1.835      2.590
REMARK  Name = 
REMARK  8 active torsions:
REMARK  status: ('A' for Active; 'I' for Inactive)
REMARK    1  A    between atoms: C_1  and  C_2
REMARK    2  A    between atoms: C_2  and  N_3
REMARK    3  A    between atoms: N_3  and  C_4
REMARK    4  A    between atoms: N_3  and  C_6
REMARK    5  A    between atoms: C_4  and  C_5
REMARK    6  A    between atoms: C_6  and  C_7
REMARK    7  A    between atoms: C_8  and  C_9
REMARK    8  A    between atoms: C_9  and  N_10
REMARK                            x       y       z     vdW  Elec       q    Type
REMARK                         _______ _______ _______ _____ _____    ______ ____
ROOT
ATOM      1  N   UNL     1       3.628   5.905  17.859  0.00  0.00    +0.000 N 
ATOM      2  C   UNL     1       5.025   6.143  17.849  0.00  0.00    +0.000 A 
ATOM      3  C   UNL     1       5.621   7.276  17.277  0.00  0.00    +0.000 A 
ATOM      4  N   UNL     1       6.946   7.587  17.293  0.00  0.00    +0.000 NA
ATOM      5  C   UNL     1       7.765   6.716  17.905  0.00  0.00    +0.000 A 
ATOM      6  C   UNL     1       7.316   5.542  18.467  0.00  0.00    +0.000 A 
ATOM      7  C   UNL     1       5.944   5.248  18.424  0.00  0.00    +0.000 A 
ATOM      8  S   UNL     1       5.478   3.691  19.145  0.00  0.00    +0.000 S 
ATOM      9  C   UNL     1       3.737   3.639  18.816  0.00  0.00    +0.000 A 
ATOM     10  C   UNL     1       3.080   2.450  19.166  0.00  0.00    +0.000 A 
ATOM     11  C   UNL     1       1.711   2.333  18.991  0.00  0.00    +0.000 A 
ATOM     12  C   UNL     1       1.046   3.419  18.468  0.00  0.00    +0.000 A 
ATOM     13  N   UNL     1       1.654   4.572  18.104  0.00  0.00    +0.000 NA
ATOM     14  C   UNL     1       2.997   4.702  18.272  0.00  0.00    +0.000 A 
ENDROOT
BRANCH   1  15
ATOM     15  C   UNL     1       2.691   7.004  17.506  0.00  0.00    +0.000 C 
BRANCH  15  17
ATOM     16  C   UNL     1       1.696   8.227  19.849  0.00  0.00    +0.000 C 
ATOM     17  C   UNL     1       2.155   7.663  18.767  0.00  0.00    +0.000 C 
BRANCH  16  18
ATOM     18  C   UNL     1       1.161   8.886  21.110  0.00  0.00    +0.000 C 
BRANCH  18  19
ATOM     19  N   UNL     1       0.493  10.168  20.826  0.00  0.00    +0.000 NA
BRANCH  19  21
ATOM     20  C   UNL     1      -0.433  11.060  18.656  0.00  0.00    +0.000 C 
ATOM     21  C   UNL     1      -0.471   9.976  19.730  0.00  0.00    +0.000 C 
ENDBRANCH  19  21
BRANCH  19  22
ATOM     22  C   UNL     1      -0.080  10.817  22.018  0.00  0.00    +0.000 C 
ATOM     23  C   UNL     1      -0.534   9.899  23.148  0.00  0.00    +0.000 C 
ENDBRANCH  19  22
ENDBRANCH  18  19
ENDBRANCH  16  18
ENDBRANCH  15  17
ENDBRANCH   1  15
TORSDOF 6
ENDMDL
MODEL 9
REMARK VINA RESULT:      -5.9      0.703      1.004
REMARK  Name = 
REMARK  8 active torsions:
REMARK  status: ('A' for Active; 'I' for Inactive)
REMARK    1  A    between atoms: C_1  and  C_2
REMARK    2  A    between atoms: C_2  and  N_3
REMARK    3  A    between atoms: N_3  and  C_4
REMARK    4  A    between atoms: N_3  and  C_6
REMARK    5  A    between atoms: C_4  and  C_5
REMARK    6  A    between atoms: C_6  and  C_7
REMARK    7  A    between atoms: C_8  and  C_9
REMARK    8  A    between atoms: C_9  and  N_10
REMARK                            x       y       z     vdW  Elec       q    Type
REMARK                         _______ _______ _______ _____ _____    ______ ____
ROOT
ATOM      1  N   UNL     1       3.625   5.673  18.268  0.00  0.00    +0.000 N 
ATOM      2  C   UNL     1       4.383   5.398  17.102  0.00  0.00    +0.000 A 
ATOM      3  C   UNL     1       5.031   6.380  16.341  0.00  0.00    +0.000 A 
ATOM      4  N   UNL     1       5.821   6.168  15.252  0.00  0.00    +0.000 NA
ATOM      5  C   UNL     1       5.983   4.893  14.862  0.00  0.00    +0.000 A 
ATOM      6  C   UNL     1       5.365   3.837  15.493  0.00  0.00    +0.000 A 
ATOM      7  C   UNL     1       4.550   4.093  16.606  0.00  0.00    +0.000 A 
ATOM      8  S   UNL     1       3.771   2.664  17.321  0.00  0.00    +0.000 S 
ATOM      9  C   UNL     1       2.777   3.385  18.598  0.00  0.00    +0.000 A 
ATOM     10  C   UNL     1       1.927   2.507  19.288  0.00  0.00    +0.000 A 
ATOM     11  C   UNL     1       1.148   2.971  20.334  0.00  0.00    +0.000 A 
ATOM     12  C   UNL     1       1.248   4.305  20.654  0.00  0.00    +0.000 A 
ATOM     13  N   UNL     1       2.044   5.181  19.998  0.00  0.00    +0.000 NA
ATOM     14  C   UNL     1       2.817   4.740  18.968  0.00  0.00    +0.000 A 
ENDROOT
BRANCH   1  15
ATOM     15  C   UNL     1       3.722   7.011  18.909  0.00  0.00    +0.000 C 
BRANCH  15  17
ATOM     16  C   UNL     1       1.565   8.641  18.094  0.00  0.00    +0.000 C 
ATOM     17  C   UNL     1       2.561   7.889  18.471  0.00  0.00    +0.000 C 
BRANCH  16  18
ATOM     18  C   UNL     1       0.404   9.519  17.655  0.00  0.00    +0.000 C 
BRANCH  18  19
ATOM     19  N   UNL     1      -0.090  10.374  18.748  0.00  0.00    +0.000 NA
BRANCH  19  21
ATOM     20  C   UNL     1       1.756  12.090  18.637  0.00  0.00    +0.000 C 
ATOM     21  C   UNL     1       1.059  10.989  19.433  0.00  0.00    +0.000 C 
ENDBRANCH  19  21
BRANCH  19  22
ATOM     22  C   UNL     1      -1.121  11.339  18.329  0.00  0.00    +0.000 C 
ATOM     23  C   UNL     1      -1.773  12.168  19.429  0.00  0.00    +0.000 C 
ENDBRANCH  19  22
ENDBRANCH  18  19
ENDBRANCH  16  18
ENDBRANCH  15  17
ENDBRANCH   1  15
TORSDOF 6
ENDMDL
