MODEL 1
REMARK VINA RESULT:      -6.7      0.000      0.000
REMARK  Name = 
REMARK  3 active torsions:
REMARK  status: ('A' for Active; 'I' for Inactive)
REMARK    1  A    between atoms: C_1  and  O_2
REMARK    2  A    between atoms: O_2  and  C_3
REMARK    3  A    between atoms: C_7  and  C_9
REMARK                            x       y       z     vdW  Elec       q    Type
REMARK                         _______ _______ _______ _____ _____    ______ ____
ROOT
ATOM      1  C   UNL     1       2.326   2.683  17.738  0.00  0.00    +0.000 C 
ATOM      2  C   UNL     1       3.473   3.398  17.023  0.00  0.00    +0.000 C 
ATOM      3  C   UNL     1       4.080   4.490  17.906  0.00  0.00    +0.000 C 
ATOM      4  N   UNL     1       3.058   5.446  18.336  0.00  0.00    +0.000 N 
ATOM      5  C   UNL     1       3.324   6.818  18.174  0.00  0.00    +0.000 C 
ATOM      6  O   UNL     1       4.344   7.240  17.631  0.00  0.00    +0.000 OA
ATOM      7  C   UNL     1       1.906   4.834  19.002  0.00  0.00    +0.000 C 
ATOM      8  C   UNL     1       1.288   3.709  18.184  0.00  0.00    +0.000 C 
ENDROOT
BRANCH   5   9
ATOM      9  C   UNL     1       2.323   7.838  18.607  0.00  0.00    +0.000 A 
ATOM     10  C   UNL     1       1.745   8.751  17.724  0.00  0.00    +0.000 A 
ATOM     11  C   UNL     1       0.953   9.801  18.201  0.00  0.00    +0.000 A 
ATOM     12  C   UNL     1       0.630   9.868  19.568  0.00  0.00    +0.000 A 
ATOM     13  N   UNL     1      -0.143  10.847  20.167  0.00  0.00    +0.000 NA
ATOM     14  C   UNL     1      -0.288  10.568  21.442  0.00  0.00    +0.000 A 
ATOM     15  S   UNL     1       0.488   9.150  22.006  0.00  0.00    +0.000 S 
ATOM     16  C   UNL     1       1.107   8.868  20.421  0.00  0.00    +0.000 A 
ATOM     17  C   UNL     1       1.957   7.846  19.964  0.00  0.00    +0.000 A 
ENDBRANCH   5   9
BRANCH   1  19
ATOM     18  C   UNL     1       3.953   1.080  18.465  0.00  0.00    +0.000 C 
ATOM     19  O   UNL     1       2.884   1.943  18.828  0.00  0.00    +0.000 OA
ENDBRANCH   1  19
TORSDOF 2
ENDMDL
MODEL 2
REMARK VINA RESULT:      -6.6      3.756      6.953
REMARK  Name = 
REMARK  3 active torsions:
REMARK  status: ('A' for Active; 'I' for Inactive)
REMARK    1  A    between atoms: C_1  and  O_2
REMARK    2  A    between atoms: O_2  and  C_3
REMARK    3  A    between atoms: C_7  and  C_9
REMARK                            x       y       z     vdW  Elec       q    Type
REMARK                         _______ _______ _______ _____ _____    ______ ____
ROOT
ATOM      1  C   UNL     1       1.272   6.490  20.082  0.00  0.00    +0.000 C 
ATOM      2  C   UNL     1       1.315   4.993  20.391  0.00  0.00    +0.000 C 
ATOM      3  C   UNL     1       2.740   4.532  20.700  0.00  0.00    +0.000 C 
ATOM      4  N   UNL     1       3.650   4.865  19.602  0.00  0.00    +0.000 N 
ATOM      5  C   UNL     1       4.493   3.851  19.110  0.00  0.00    +0.000 C 
ATOM      6  O   UNL     1       4.451   2.692  19.520  0.00  0.00    +0.000 OA
ATOM      7  C   UNL     1       3.642   6.279  19.222  0.00  0.00    +0.000 C 
ATOM      8  C   UNL     1       2.239   6.801  18.944  0.00  0.00    +0.000 C 
ENDROOT
BRANCH   5   9
ATOM      9  C   UNL     1       5.449   4.137  18.000  0.00  0.00    +0.000 A 
ATOM     10  C   UNL     1       6.718   4.677  18.217  0.00  0.00    +0.000 A 
ATOM     11  C   UNL     1       7.507   5.096  17.141  0.00  0.00    +0.000 A 
ATOM     12  C   UNL     1       7.078   4.858  15.823  0.00  0.00    +0.000 A 
ATOM     13  N   UNL     1       7.762   5.216  14.675  0.00  0.00    +0.000 NA
ATOM     14  C   UNL     1       7.101   4.790  13.624  0.00  0.00    +0.000 A 
ATOM     15  S   UNL     1       5.635   3.959  13.928  0.00  0.00    +0.000 S 
ATOM     16  C   UNL     1       5.865   4.194  15.622  0.00  0.00    +0.000 A 
ATOM     17  C   UNL     1       5.033   3.827  16.694  0.00  0.00    +0.000 A 
ENDBRANCH   5   9
BRANCH   1  19
ATOM     18  C   UNL     1       1.019   8.495  21.370  0.00  0.00    +0.000 C 
ATOM     19  O   UNL     1       1.582   7.193  21.288  0.00  0.00    +0.000 OA
ENDBRANCH   1  19
TORSDOF 2
ENDMDL
MODEL 3
REMARK VINA RESULT:      -6.6      2.079      3.014
REMARK  Name = 
REMARK  3 active torsions:
REMARK  status: ('A' for Active; 'I' for Inactive)
REMARK    1  A    between atoms: C_1  and  O_2
REMARK    2  A    between atoms: O_2  and  C_3
REMARK    3  A    between atoms: C_7  and  C_9
REMARK                            x       y       z     vdW  Elec       q    Type
REMARK                         _______ _______ _______ _____ _____    ______ ____
ROOT
ATOM      1  C   UNL     1       6.768   5.343  17.050  0.00  0.00    +0.000 C 
ATOM      2  C   UNL     1       6.394   4.652  18.361  0.00  0.00    +0.000 C 
ATOM      3  C   UNL     1       4.883   4.432  18.459  0.00  0.00    +0.000 C 
ATOM      4  N   UNL     1       4.158   5.695  18.310  0.00  0.00    +0.000 N 
ATOM      5  C   UNL     1       3.170   6.008  19.263  0.00  0.00    +0.000 C 
ATOM      6  O   UNL     1       2.939   5.299  20.241  0.00  0.00    +0.000 OA
ATOM      7  C   UNL     1       4.487   6.436  17.091  0.00  0.00    +0.000 C 
ATOM      8  C   UNL     1       5.985   6.647  16.922  0.00  0.00    +0.000 C 
ENDROOT
BRANCH   5   9
ATOM      9  C   UNL     1       2.391   7.276  19.153  0.00  0.00    +0.000 A 
ATOM     10  C   UNL     1       2.226   7.959  17.947  0.00  0.00    +0.000 A 
ATOM     11  C   UNL     1       1.645   9.231  17.921  0.00  0.00    +0.000 A 
ATOM     12  C   UNL     1       1.106   9.778  19.100  0.00  0.00    +0.000 A 
ATOM     13  N   UNL     1       0.504  11.019  19.212  0.00  0.00    +0.000 NA
ATOM     14  C   UNL     1       0.066  11.182  20.438  0.00  0.00    +0.000 A 
ATOM     15  S   UNL     1       0.352   9.893  21.529  0.00  0.00    +0.000 S 
ATOM     16  C   UNL     1       1.159   9.024  20.276  0.00  0.00    +0.000 A 
ATOM     17  C   UNL     1       1.798   7.773  20.327  0.00  0.00    +0.000 A 
ENDBRANCH   5   9
BRANCH   1  19
ATOM     18  C   UNL     1       7.022   4.832  14.722  0.00  0.00    +0.000 C 
ATOM     19  O   UNL     1       6.506   4.427  15.983  0.00  0.00    +0.000 OA
ENDBRANCH   1  19
TORSDOF 2
ENDMDL
MODEL 4
REMARK VINA RESULT:      -6.5      3.034      6.950
REMARK  Name = 
REMARK  3 active torsions:
REMARK  status: ('A' for Active; 'I' for Inactive)
REMARK    1  A    between atoms: C_1  and  O_2
REMARK    2  A    between atoms: O_2  and  C_3
REMARK    3  A    between atoms: C_7  and  C_9
REMARK                            x       y       z     vdW  Elec       q    Type
REMARK                         _______ _______ _______ _____ _____    ______ ____
ROOT
ATOM      1  C   UNL     1       0.401  10.227  19.143  0.00  0.00    +0.000 C 
ATOM      2  C   UNL     1       0.059   9.231  20.252  0.00  0.00    +0.000 C 
ATOM      3  C   UNL     1       1.306   8.487  20.731  0.00  0.00    +0.000 C 
ATOM      4  N   UNL     1       1.979   7.816  19.617  0.00  0.00    +0.000 N 
ATOM      5  C   UNL     1       2.326   6.461  19.772  0.00  0.00    +0.000 C 
ATOM      6  O   UNL     1       2.034   5.808  20.772  0.00  0.00    +0.000 OA
ATOM      7  C   UNL     1       2.311   8.698  18.496  0.00  0.00    +0.000 C 
ATOM      8  C   UNL     1       1.111   9.497  18.006  0.00  0.00    +0.000 C 
ENDROOT
BRANCH   5   9
ATOM      9  C   UNL     1       3.025   5.730  18.674  0.00  0.00    +0.000 A 
ATOM     10  C   UNL     1       2.422   4.700  17.950  0.00  0.00    +0.000 A 
ATOM     11  C   UNL     1       3.169   3.925  17.057  0.00  0.00    +0.000 A 
ATOM     12  C   UNL     1       4.508   4.262  16.788  0.00  0.00    +0.000 A 
ATOM     13  N   UNL     1       5.353   3.584  15.928  0.00  0.00    +0.000 NA
ATOM     14  C   UNL     1       6.509   4.204  15.873  0.00  0.00    +0.000 A 
ATOM     15  S   UNL     1       6.668   5.608  16.841  0.00  0.00    +0.000 S 
ATOM     16  C   UNL     1       5.059   5.380  17.420  0.00  0.00    +0.000 A 
ATOM     17  C   UNL     1       4.338   6.126  18.369  0.00  0.00    +0.000 A 
ENDBRANCH   5   9
BRANCH   1  19
ATOM     18  C   UNL     1       0.503  12.082  20.657  0.00  0.00    +0.000 C 
ATOM     19  O   UNL     1       1.195  11.268  19.720  0.00  0.00    +0.000 OA
ENDBRANCH   1  19
TORSDOF 2
ENDMDL
MODEL 5
REMARK VINA RESULT:      -6.4      1.676      2.443
REMARK  Name = 
REMARK  3 active torsions:
REMARK  status: ('A' for Active; 'I' for Inactive)
REMARK    1  A    between atoms: C_1  and  O_2
REMARK    2  A    between atoms: O_2  and  C_3
REMARK    3  A    between atoms: C_7  and  C_9
REMARK                            x       y       z     vdW  Elec       q    Type
REMARK                         _______ _______ _______ _____ _____    ______ ____
ROOT
ATOM      1  C   UNL     1       1.738   3.559  19.239  0.00  0.00    +0.000 C 
ATOM      2  C   UNL     1       2.093   4.425  18.029  0.00  0.00    +0.000 C 
ATOM      3  C   UNL     1       2.914   5.647  18.445  0.00  0.00    +0.000 C 
ATOM      4  N   UNL     1       2.210   6.432  19.461  0.00  0.00    +0.000 N 
ATOM      5  C   UNL     1       2.093   7.820  19.261  0.00  0.00    +0.000 C 
ATOM      6  O   UNL     1       2.499   8.385  18.246  0.00  0.00    +0.000 OA
ATOM      7  C   UNL     1       1.805   5.664  20.640  0.00  0.00    +0.000 C 
ATOM      8  C   UNL     1       1.019   4.411  20.280  0.00  0.00    +0.000 C 
ENDROOT
BRANCH   5   9
ATOM      9  C   UNL     1       1.396   8.672  20.270  0.00  0.00    +0.000 A 
ATOM     10  C   UNL     1       1.538   8.482  21.645  0.00  0.00    +0.000 A 
ATOM     11  C   UNL     1       0.731   9.181  22.548  0.00  0.00    +0.000 A 
ATOM     12  C   UNL     1      -0.145  10.177  22.079  0.00  0.00    +0.000 A 
ATOM     13  N   UNL     1      -0.991  10.941  22.862  0.00  0.00    +0.000 NA
ATOM     14  C   UNL     1      -1.620  11.810  22.105  0.00  0.00    +0.000 A 
ATOM     15  S   UNL     1      -1.261  11.764  20.431  0.00  0.00    +0.000 S 
ATOM     16  C   UNL     1      -0.178  10.450  20.709  0.00  0.00    +0.000 A 
ATOM     17  C   UNL     1       0.580   9.709  19.786  0.00  0.00    +0.000 A 
ENDBRANCH   5   9
BRANCH   1  19
ATOM     18  C   UNL     1       3.502   1.973  18.894  0.00  0.00    +0.000 C 
ATOM     19  O   UNL     1       2.950   2.980  19.731  0.00  0.00    +0.000 OA
ENDBRANCH   1  19
TORSDOF 2
ENDMDL
MODEL 6
REMARK VINA RESULT:      -6.4      4.495      6.088
REMARK  Name = 
REMARK  3 active torsions:
REMARK  status: ('A' for Active; 'I' for Inactive)
REMARK    1  A    between atoms: C_1  and  O_2
REMARK    2  A    between atoms: O_2  and  C_3
REMARK    3  A    between atoms: C_7  and  C_9
REMARK                            x       y       z     vdW  Elec       q    Type
REMARK                         _______ _______ _______ _____ _____    ______ ____
ROOT
ATOM      1  C   UNL     1       6.450   3.844  11.799  0.00  0.00    +0.000 C 
ATOM      2  C   UNL     1       7.382   4.974  12.237  0.00  0.00    +0.000 C 
ATOM      3  C   UNL     1       7.834   4.789  13.687  0.00  0.00    +0.000 C 
ATOM      4  N   UNL     1       6.683   4.684  14.586  0.00  0.00    +0.000 N 
ATOM      5  C   UNL     1       6.668   5.490  15.739  0.00  0.00    +0.000 C 
ATOM      6  O   UNL     1       7.545   6.316  15.987  0.00  0.00    +0.000 OA
ATOM      7  C   UNL     1       5.723   3.643  14.214  0.00  0.00    +0.000 C 
ATOM      8  C   UNL     1       5.271   3.755  12.764  0.00  0.00    +0.000 C 
ENDROOT
BRANCH   5   9
ATOM      9  C   UNL     1       5.527   5.415  16.698  0.00  0.00    +0.000 A 
ATOM     10  C   UNL     1       4.573   6.427  16.818  0.00  0.00    +0.000 A 
ATOM     11  C   UNL     1       3.629   6.399  17.849  0.00  0.00    +0.000 A 
ATOM     12  C   UNL     1       3.555   5.281  18.700  0.00  0.00    +0.000 A 
ATOM     13  N   UNL     1       2.670   5.125  19.753  0.00  0.00    +0.000 NA
ATOM     14  C   UNL     1       2.840   3.942  20.293  0.00  0.00    +0.000 A 
ATOM     15  S   UNL     1       4.059   2.955  19.604  0.00  0.00    +0.000 S 
ATOM     16  C   UNL     1       4.430   4.213  18.484  0.00  0.00    +0.000 A 
ATOM     17  C   UNL     1       5.426   4.259  17.492  0.00  0.00    +0.000 A 
ENDBRANCH   5   9
BRANCH   1  19
ATOM     18  C   UNL     1       6.545   1.538  11.153  0.00  0.00    +0.000 C 
ATOM     19  O   UNL     1       7.220   2.640  11.745  0.00  0.00    +0.000 OA
ENDBRANCH   1  19
TORSDOF 2
ENDMDL
MODEL 7
REMARK VINA RESULT:      -6.4      2.810      6.695
REMARK  Name = 
REMARK  3 active torsions:
REMARK  status: ('A' for Active; 'I' for Inactive)
REMARK    1  A    between atoms: C_1  and  O_2
REMARK    2  A    between atoms: O_2  and  C_3
REMARK    3  A    between atoms: C_7  and  C_9
REMARK                            x       y       z     vdW  Elec       q    Type
REMARK                         _______ _______ _______ _____ _____    ______ ____
ROOT
ATOM      1  C   UNL     1       0.745  10.188  21.959  0.00  0.00    +0.000 C 
ATOM      2  C   UNL     1       0.982  10.999  20.685  0.00  0.00    +0.000 C 
ATOM      3  C   UNL     1       0.600  10.196  19.439  0.00  0.00    +0.000 C 
ATOM      4  N   UNL     1       1.325   8.925  19.391  0.00  0.00    +0.000 N 
ATOM      5  C   UNL     1       1.980   8.582  18.194  0.00  0.00    +0.000 C 
ATOM      6  O   UNL     1       2.020   9.329  17.217  0.00  0.00    +0.000 OA
ATOM      7  C   UNL     1       1.176   8.102  20.593  0.00  0.00    +0.000 C 
ATOM      8  C   UNL     1       1.503   8.867  21.869  0.00  0.00    +0.000 C 
ENDROOT
BRANCH   5   9
ATOM      9  C   UNL     1       2.724   7.292  18.084  0.00  0.00    +0.000 A 
ATOM     10  C   UNL     1       4.099   7.231  17.854  0.00  0.00    +0.000 A 
ATOM     11  C   UNL     1       4.722   6.010  17.578  0.00  0.00    +0.000 A 
ATOM     12  C   UNL     1       3.985   4.814  17.656  0.00  0.00    +0.000 A 
ATOM     13  N   UNL     1       4.478   3.545  17.411  0.00  0.00    +0.000 NA
ATOM     14  C   UNL     1       3.533   2.661  17.631  0.00  0.00    +0.000 A 
ATOM     15  S   UNL     1       2.012   3.275  18.122  0.00  0.00    +0.000 S 
ATOM     16  C   UNL     1       2.637   4.880  18.019  0.00  0.00    +0.000 A 
ATOM     17  C   UNL     1       1.985   6.106  18.234  0.00  0.00    +0.000 A 
ENDBRANCH   5   9
BRANCH   1  19
ATOM     18  C   UNL     1      -1.247  10.789  23.149  0.00  0.00    +0.000 C 
ATOM     19  O   UNL     1      -0.667  10.012  22.110  0.00  0.00    +0.000 OA
ENDBRANCH   1  19
TORSDOF 2
ENDMDL
MODEL 8
REMARK VINA RESULT:      -6.3      2.314      3.553
REMARK  Name = 
REMARK  3 active torsions:
REMARK  status: ('A' for Active; 'I' for Inactive)
REMARK    1  A    between atoms: C_1  and  O_2
REMARK    2  A    between atoms: O_2  and  C_3
REMARK    3  A    between atoms: C_7  and  C_9
REMARK                            x       y       z     vdW  Elec       q    Type
REMARK                         _______ _______ _______ _____ _____    ______ ____
ROOT
ATOM      1  C   UNL     1       6.676   5.545  16.386  0.00  0.00    +0.000 C 
ATOM      2  C   UNL     1       5.860   4.310  16.765  0.00  0.00    +0.000 C 
ATOM      3  C   UNL     1       4.360   4.565  16.601  0.00  0.00    +0.000 C 
ATOM      4  N   UNL     1       3.937   5.730  17.380  0.00  0.00    +0.000 N 
ATOM      5  C   UNL     1       2.811   5.595  18.214  0.00  0.00    +0.000 C 
ATOM      6  O   UNL     1       2.213   4.531  18.360  0.00  0.00    +0.000 OA
ATOM      7  C   UNL     1       4.696   6.950  17.098  0.00  0.00    +0.000 C 
ATOM      8  C   UNL     1       6.200   6.740  17.207  0.00  0.00    +0.000 C 
ENDROOT
BRANCH   5   9
ATOM      9  C   UNL     1       2.327   6.753  19.022  0.00  0.00    +0.000 A 
ATOM     10  C   UNL     1       2.028   6.653  20.381  0.00  0.00    +0.000 A 
ATOM     11  C   UNL     1       1.409   7.711  21.055  0.00  0.00    +0.000 A 
ATOM     12  C   UNL     1       1.197   8.934  20.393  0.00  0.00    +0.000 A 
ATOM     13  N   UNL     1       0.601  10.056  20.941  0.00  0.00    +0.000 NA
ATOM     14  C   UNL     1       0.619  11.032  20.064  0.00  0.00    +0.000 A 
ATOM     15  S   UNL     1       1.324  10.679  18.544  0.00  0.00    +0.000 S 
ATOM     16  C   UNL     1       1.625   9.064  19.068  0.00  0.00    +0.000 A 
ATOM     17  C   UNL     1       2.189   7.987  18.362  0.00  0.00    +0.000 A 
ENDBRANCH   5   9
BRANCH   1  19
ATOM     18  C   UNL     1       7.132   4.730  14.179  0.00  0.00    +0.000 C 
ATOM     19  O   UNL     1       6.537   5.744  14.976  0.00  0.00    +0.000 OA
ENDBRANCH   1  19
TORSDOF 2
ENDMDL
MODEL 9
REMARK VINA RESULT:      -6.3      3.326      6.921
REMARK  Name = 
REMARK  3 active torsions:
REMARK  status: ('A' for Active; 'I' for Inactive)
REMARK    1  A    between atoms: C_1  and  O_2
REMARK    2  A    between atoms: O_2  and  C_3
REMARK    3  A    between atoms: C_7  and  C_9
REMARK                            x       y       z     vdW  Elec       q    Type
REMARK                         _______ _______ _______ _____ _____    ______ ____
ROOT
ATOM      1  C   UNL     1       0.653  10.421  21.956  0.00  0.00    +0.000 C 
ATOM      2  C   UNL     1       0.731  11.038  20.560  0.00  0.00    +0.000 C 
ATOM      3  C   UNL     1       0.439   9.997  19.478  0.00  0.00    +0.000 C 
ATOM      4  N   UNL     1       1.344   8.852  19.593  0.00  0.00    +0.000 N 
ATOM      5  C   UNL     1       2.010   8.415  18.433  0.00  0.00    +0.000 C 
ATOM      6  O   UNL     1       1.911   8.989  17.350  0.00  0.00    +0.000 OA
ATOM      7  C   UNL     1       1.353   8.224  20.916  0.00  0.00    +0.000 C 
ATOM      8  C   UNL     1       1.597   9.225  22.036  0.00  0.00    +0.000 C 
ENDROOT
BRANCH   5   9
ATOM      9  C   UNL     1       2.934   7.244  18.489  0.00  0.00    +0.000 A 
ATOM     10  C   UNL     1       2.783   6.206  19.410  0.00  0.00    +0.000 A 
ATOM     11  C   UNL     1       3.770   5.225  19.547  0.00  0.00    +0.000 A 
ATOM     12  C   UNL     1       4.867   5.208  18.667  0.00  0.00    +0.000 A 
ATOM     13  N   UNL     1       5.907   4.296  18.692  0.00  0.00    +0.000 NA
ATOM     14  C   UNL     1       6.725   4.541  17.695  0.00  0.00    +0.000 A 
ATOM     15  S   UNL     1       6.324   5.865  16.685  0.00  0.00    +0.000 S 
ATOM     16  C   UNL     1       4.937   6.177  17.662  0.00  0.00    +0.000 A 
ATOM     17  C   UNL     1       3.985   7.206  17.556  0.00  0.00    +0.000 A 
ENDBRANCH   5   9
BRANCH   1  19
ATOM     18  C   UNL     1      -1.405  10.983  23.047  0.00  0.00    +0.000 C 
ATOM     19  O   UNL     1      -0.712  10.073  22.205  0.00  0.00    +0.000 OA
ENDBRANCH   1  19
TORSDOF 2
ENDMDL
