MODEL 1
REMARK VINA RESULT:      -8.1      0.000      0.000
REMARK  Name = 
REMARK  9 active torsions:
REMARK  status: ('A' for Active; 'I' for Inactive)
REMARK    1  A    between atoms: C_1  and  C_2
REMARK    2  A    between atoms: C_2  and  O_4
REMARK    3  A    between atoms: O_4  and  C_5
REMARK    4  A    between atoms: C_7  and  O_8
REMARK    5  A    between atoms: O_8  and  C_9
REMARK    6  A    between atoms: C_9  and  C_10
REMARK    7  A    between atoms: C_19  and  O_20
REMARK    8  A    between atoms: O_20  and  C_21
REMARK    9  A    between atoms: C_21  and  C_22
REMARK                            x       y       z     vdW  Elec       q    Type
REMARK                         _______ _______ _______ _____ _____    ______ ____
ROOT
ATOM      1  C   UNL     1       1.816   7.060  20.560  0.00  0.00    +0.000 A 
ATOM      2  C   UNL     1       1.237   5.795  20.561  0.00  0.00    +0.000 A 
ATOM      3  C   UNL     1       1.608   4.860  19.588  0.00  0.00    +0.000 A 
ATOM      4  C   UNL     1       2.578   5.186  18.636  0.00  0.00    +0.000 A 
ATOM      5  C   UNL     1       2.959   4.326  17.510  0.00  0.00    +0.000 A 
ATOM      6  O   UNL     1       2.206   3.489  17.031  0.00  0.00    +0.000 OA
ATOM      7  C   UNL     1       4.293   4.574  16.946  0.00  0.00    +0.000 A 
ATOM      8  C   UNL     1       4.952   3.570  16.227  0.00  0.00    +0.000 A 
ATOM      9  C   UNL     1       6.202   3.831  15.673  0.00  0.00    +0.000 A 
ATOM     10  C   UNL     1       6.775   5.094  15.824  0.00  0.00    +0.000 A 
ATOM     11  C   UNL     1       6.111   6.092  16.555  0.00  0.00    +0.000 A 
ATOM     12  C   UNL     1       4.865   5.836  17.133  0.00  0.00    +0.000 A 
ATOM     13  O   UNL     1       4.204   6.825  17.816  0.00  0.00    +0.000 OA
ATOM     14  C   UNL     1       3.215   6.433  18.696  0.00  0.00    +0.000 A 
ATOM     15  C   UNL     1       2.833   7.377  19.654  0.00  0.00    +0.000 A 
ENDROOT
BRANCH   1  16
ATOM     16  O   UNL     1       1.446   8.076  21.463  0.00  0.00    +0.000 OA
BRANCH  16  18
ATOM     17  C   UNL     1      -0.536   9.040  22.307  0.00  0.00    +0.000 C 
ATOM     18  C   UNL     1       0.381   8.914  21.128  0.00  0.00    +0.000 C 
ATOM     19  O   UNL     1       0.204   9.489  20.063  0.00  0.00    +0.000 OA
ENDBRANCH  16  18
ENDBRANCH   1  16
BRANCH   3  20
ATOM     20  O   UNL     1       0.836   3.677  19.604  0.00  0.00    +0.000 OA
BRANCH  20  21
ATOM     21  C   UNL     1       1.316   2.467  20.109  0.00  0.00    +0.000 C 
ATOM     22  C   UNL     1       1.419   2.578  21.608  0.00  0.00    +0.000 C 
ATOM     23  O   UNL     1       1.698   1.505  19.458  0.00  0.00    +0.000 OA
ENDBRANCH  20  21
ENDBRANCH   3  20
BRANCH  11  24
ATOM     24  O   UNL     1       6.771   7.347  16.529  0.00  0.00    +0.000 OA
BRANCH  24  25
ATOM     25  C   UNL     1       7.551   7.888  17.552  0.00  0.00    +0.000 C 
ATOM     26  C   UNL     1       7.946   6.778  18.486  0.00  0.00    +0.000 C 
ATOM     27  O   UNL     1       7.809   9.068  17.738  0.00  0.00    +0.000 OA
ENDBRANCH  24  25
ENDBRANCH  11  24
TORSDOF 6
ENDMDL
MODEL 2
REMARK VINA RESULT:      -7.6      1.908      6.713
REMARK  Name = 
REMARK  9 active torsions:
REMARK  status: ('A' for Active; 'I' for Inactive)
REMARK    1  A    between atoms: C_1  and  C_2
REMARK    2  A    between atoms: C_2  and  O_4
REMARK    3  A    between atoms: O_4  and  C_5
REMARK    4  A    between atoms: C_7  and  O_8
REMARK    5  A    between atoms: O_8  and  C_9
REMARK    6  A    between atoms: C_9  and  C_10
REMARK    7  A    between atoms: C_19  and  O_20
REMARK    8  A    between atoms: O_20  and  C_21
REMARK    9  A    between atoms: C_21  and  C_22
REMARK                            x       y       z     vdW  Elec       q    Type
REMARK                         _______ _______ _______ _____ _____    ______ ____
ROOT
ATOM      1  C   UNL     1       3.191   4.522  20.109  0.00  0.00    +0.000 A 
ATOM      2  C   UNL     1       4.084   4.810  19.082  0.00  0.00    +0.000 A 
ATOM      3  C   UNL     1       3.950   6.002  18.359  0.00  0.00    +0.000 A 
ATOM      4  C   UNL     1       2.941   6.912  18.689  0.00  0.00    +0.000 A 
ATOM      5  C   UNL     1       2.642   8.132  17.930  0.00  0.00    +0.000 A 
ATOM      6  O   UNL     1       2.909   8.256  16.742  0.00  0.00    +0.000 OA
ATOM      7  C   UNL     1       1.941   9.187  18.675  0.00  0.00    +0.000 A 
ATOM      8  C   UNL     1       2.016  10.518  18.252  0.00  0.00    +0.000 A 
ATOM      9  C   UNL     1       1.321  11.500  18.951  0.00  0.00    +0.000 A 
ATOM     10  C   UNL     1       0.543  11.145  20.054  0.00  0.00    +0.000 A 
ATOM     11  C   UNL     1       0.482   9.808  20.477  0.00  0.00    +0.000 A 
ATOM     12  C   UNL     1       1.191   8.816  19.796  0.00  0.00    +0.000 A 
ATOM     13  O   UNL     1       1.099   7.506  20.192  0.00  0.00    +0.000 OA
ATOM     14  C   UNL     1       2.100   6.649  19.779  0.00  0.00    +0.000 A 
ATOM     15  C   UNL     1       2.219   5.451  20.490  0.00  0.00    +0.000 A 
ENDROOT
BRANCH   1  16
ATOM     16  O   UNL     1       3.220   3.315  20.835  0.00  0.00    +0.000 OA
BRANCH  16  18
ATOM     17  C   UNL     1       1.462   2.151  19.775  0.00  0.00    +0.000 C 
ATOM     18  C   UNL     1       2.016   2.650  21.075  0.00  0.00    +0.000 C 
ATOM     19  O   UNL     1       1.481   2.464  22.160  0.00  0.00    +0.000 OA
ENDBRANCH  16  18
ENDBRANCH   1  16
BRANCH   3  20
ATOM     20  O   UNL     1       4.815   6.101  17.248  0.00  0.00    +0.000 OA
BRANCH  20  21
ATOM     21  C   UNL     1       6.203   6.000  17.358  0.00  0.00    +0.000 C 
ATOM     22  C   UNL     1       6.679   4.899  16.447  0.00  0.00    +0.000 C 
ATOM     23  O   UNL     1       6.920   6.615  18.135  0.00  0.00    +0.000 OA
ENDBRANCH  20  21
ENDBRANCH   3  20
BRANCH  11  24
ATOM     24  O   UNL     1      -0.430   9.593  21.542  0.00  0.00    +0.000 OA
BRANCH  24  25
ATOM     25  C   UNL     1      -0.276  10.033  22.858  0.00  0.00    +0.000 C 
ATOM     26  C   UNL     1      -1.322  11.077  23.135  0.00  0.00    +0.000 C 
ATOM     27  O   UNL     1       0.604   9.714  23.645  0.00  0.00    +0.000 OA
ENDBRANCH  24  25
ENDBRANCH  11  24
TORSDOF 6
ENDMDL
MODEL 3
REMARK VINA RESULT:      -7.5      2.904      6.366
REMARK  Name = 
REMARK  9 active torsions:
REMARK  status: ('A' for Active; 'I' for Inactive)
REMARK    1  A    between atoms: C_1  and  C_2
REMARK    2  A    between atoms: C_2  and  O_4
REMARK    3  A    between atoms: O_4  and  C_5
REMARK    4  A    between atoms: C_7  and  O_8
REMARK    5  A    between atoms: O_8  and  C_9
REMARK    6  A    between atoms: C_9  and  C_10
REMARK    7  A    between atoms: C_19  and  O_20
REMARK    8  A    between atoms: O_20  and  C_21
REMARK    9  A    between atoms: C_21  and  C_22
REMARK                            x       y       z     vdW  Elec       q    Type
REMARK                         _______ _______ _______ _____ _____    ______ ____
ROOT
ATOM      1  C   UNL     1      -0.514  10.219  21.872  0.00  0.00    +0.000 A 
ATOM      2  C   UNL     1      -0.581  10.914  20.668  0.00  0.00    +0.000 A 
ATOM      3  C   UNL     1       0.193  10.493  19.580  0.00  0.00    +0.000 A 
ATOM      4  C   UNL     1       1.007   9.362  19.694  0.00  0.00    +0.000 A 
ATOM      5  C   UNL     1       1.938   8.901  18.658  0.00  0.00    +0.000 A 
ATOM      6  O   UNL     1       2.424   9.651  17.822  0.00  0.00    +0.000 OA
ATOM      7  C   UNL     1       2.304   7.479  18.721  0.00  0.00    +0.000 A 
ATOM      8  C   UNL     1       2.773   6.820  17.579  0.00  0.00    +0.000 A 
ATOM      9  C   UNL     1       3.144   5.481  17.664  0.00  0.00    +0.000 A 
ATOM     10  C   UNL     1       3.062   4.817  18.888  0.00  0.00    +0.000 A 
ATOM     11  C   UNL     1       2.581   5.483  20.026  0.00  0.00    +0.000 A 
ATOM     12  C   UNL     1       2.187   6.821  19.950  0.00  0.00    +0.000 A 
ATOM     13  O   UNL     1       1.751   7.478  21.072  0.00  0.00    +0.000 OA
ATOM     14  C   UNL     1       1.002   8.623  20.884  0.00  0.00    +0.000 A 
ATOM     15  C   UNL     1       0.246   9.051  21.979  0.00  0.00    +0.000 A 
ENDROOT
BRANCH   1  16
ATOM     16  O   UNL     1      -1.209  10.621  23.030  0.00  0.00    +0.000 OA
BRANCH  16  18
ATOM     17  C   UNL     1      -2.935  12.209  23.292  0.00  0.00    +0.000 C 
ATOM     18  C   UNL     1      -1.455  11.982  23.224  0.00  0.00    +0.000 C 
ATOM     19  O   UNL     1      -0.623  12.870  23.347  0.00  0.00    +0.000 OA
ENDBRANCH  16  18
ENDBRANCH   1  16
BRANCH   3  20
ATOM     20  O   UNL     1       0.154  11.369  18.473  0.00  0.00    +0.000 OA
BRANCH  20  21
ATOM     21  C   UNL     1       0.731  12.640  18.494  0.00  0.00    +0.000 C 
ATOM     22  C   UNL     1      -0.365  13.668  18.389  0.00  0.00    +0.000 C 
ATOM     23  O   UNL     1       1.927  12.899  18.488  0.00  0.00    +0.000 OA
ENDBRANCH  20  21
ENDBRANCH   3  20
BRANCH  11  24
ATOM     24  O   UNL     1       2.658   4.708  21.210  0.00  0.00    +0.000 OA
BRANCH  24  25
ATOM     25  C   UNL     1       2.186   3.404  21.372  0.00  0.00    +0.000 C 
ATOM     26  C   UNL     1       0.888   3.272  20.624  0.00  0.00    +0.000 C 
ATOM     27  O   UNL     1       2.671   2.525  22.070  0.00  0.00    +0.000 OA
ENDBRANCH  24  25
ENDBRANCH  11  24
TORSDOF 6
ENDMDL
MODEL 4
REMARK VINA RESULT:      -7.5      2.288      4.399
REMARK  Name = 
REMARK  9 active torsions:
REMARK  status: ('A' for Active; 'I' for Inactive)
REMARK    1  A    between atoms: C_1  and  C_2
REMARK    2  A    between atoms: C_2  and  O_4
REMARK    3  A    between atoms: O_4  and  C_5
REMARK    4  A    between atoms: C_7  and  O_8
REMARK    5  A    between atoms: O_8  and  C_9
REMARK    6  A    between atoms: C_9  and  C_10
REMARK    7  A    between atoms: C_19  and  O_20
REMARK    8  A    between atoms: O_20  and  C_21
REMARK    9  A    between atoms: C_21  and  C_22
REMARK                            x       y       z     vdW  Elec       q    Type
REMARK                         _______ _______ _______ _____ _____    ______ ____
ROOT
ATOM      1  C   UNL     1       1.313  10.262  18.663  0.00  0.00    +0.000 A 
ATOM      2  C   UNL     1       0.951   9.909  19.959  0.00  0.00    +0.000 A 
ATOM      3  C   UNL     1       1.230   8.621  20.432  0.00  0.00    +0.000 A 
ATOM      4  C   UNL     1       1.897   7.703  19.615  0.00  0.00    +0.000 A 
ATOM      5  C   UNL     1       2.139   6.300  19.967  0.00  0.00    +0.000 A 
ATOM      6  O   UNL     1       1.435   5.683  20.755  0.00  0.00    +0.000 OA
ATOM      7  C   UNL     1       3.256   5.653  19.264  0.00  0.00    +0.000 A 
ATOM      8  C   UNL     1       3.881   4.529  19.817  0.00  0.00    +0.000 A 
ATOM      9  C   UNL     1       4.917   3.910  19.123  0.00  0.00    +0.000 A 
ATOM     10  C   UNL     1       5.308   4.405  17.878  0.00  0.00    +0.000 A 
ATOM     11  C   UNL     1       4.683   5.539  17.337  0.00  0.00    +0.000 A 
ATOM     12  C   UNL     1       3.655   6.181  18.032  0.00  0.00    +0.000 A 
ATOM     13  O   UNL     1       3.022   7.267  17.483  0.00  0.00    +0.000 OA
ATOM     14  C   UNL     1       2.331   8.098  18.342  0.00  0.00    +0.000 A 
ATOM     15  C   UNL     1       2.037   9.376  17.859  0.00  0.00    +0.000 A 
ENDROOT
BRANCH   1  16
ATOM     16  O   UNL     1       1.007  11.514  18.094  0.00  0.00    +0.000 OA
BRANCH  16  18
ATOM     17  C   UNL     1       2.721  13.126  18.266  0.00  0.00    +0.000 C 
ATOM     18  C   UNL     1       1.388  12.670  18.778  0.00  0.00    +0.000 C 
ATOM     19  O   UNL     1       0.752  13.258  19.642  0.00  0.00    +0.000 OA
ENDBRANCH  16  18
ENDBRANCH   1  16
BRANCH   3  20
ATOM     20  O   UNL     1       0.674   8.340  21.699  0.00  0.00    +0.000 OA
BRANCH  20  21
ATOM     21  C   UNL     1       0.803   9.201  22.790  0.00  0.00    +0.000 C 
ATOM     22  C   UNL     1      -0.553   9.767  23.121  0.00  0.00    +0.000 C 
ATOM     23  O   UNL     1       1.847   9.538  23.334  0.00  0.00    +0.000 OA
ENDBRANCH  20  21
ENDBRANCH   3  20
BRANCH  11  24
ATOM     24  O   UNL     1       5.118   5.853  16.025  0.00  0.00    +0.000 OA
BRANCH  24  25
ATOM     25  C   UNL     1       6.317   5.446  15.436  0.00  0.00    +0.000 C 
ATOM     26  C   UNL     1       6.009   4.387  14.414  0.00  0.00    +0.000 C 
ATOM     27  O   UNL     1       7.446   5.800  15.741  0.00  0.00    +0.000 OA
ENDBRANCH  24  25
ENDBRANCH  11  24
TORSDOF 6
ENDMDL
MODEL 5
REMARK VINA RESULT:      -7.4      1.854      6.346
REMARK  Name = 
REMARK  9 active torsions:
REMARK  status: ('A' for Active; 'I' for Inactive)
REMARK    1  A    between atoms: C_1  and  C_2
REMARK    2  A    between atoms: C_2  and  O_4
REMARK    3  A    between atoms: O_4  and  C_5
REMARK    4  A    between atoms: C_7  and  O_8
REMARK    5  A    between atoms: O_8  and  C_9
REMARK    6  A    between atoms: C_9  and  C_10
REMARK    7  A    between atoms: C_19  and  O_20
REMARK    8  A    between atoms: O_20  and  C_21
REMARK    9  A    between atoms: C_21  and  C_22
REMARK                            x       y       z     vdW  Elec       q    Type
REMARK                         _______ _______ _______ _____ _____    ______ ____
ROOT
ATOM      1  C   UNL     1       6.458   6.812  16.910  0.00  0.00    +0.000 A 
ATOM      2  C   UNL     1       6.494   5.803  15.953  0.00  0.00    +0.000 A 
ATOM      3  C   UNL     1       5.689   4.668  16.109  0.00  0.00    +0.000 A 
ATOM      4  C   UNL     1       4.832   4.563  17.208  0.00  0.00    +0.000 A 
ATOM      5  C   UNL     1       4.032   3.375  17.527  0.00  0.00    +0.000 A 
ATOM      6  O   UNL     1       4.344   2.249  17.165  0.00  0.00    +0.000 OA
ATOM      7  C   UNL     1       2.851   3.613  18.369  0.00  0.00    +0.000 A 
ATOM      8  C   UNL     1       1.782   2.710  18.355  0.00  0.00    +0.000 A 
ATOM      9  C   UNL     1       0.684   2.934  19.181  0.00  0.00    +0.000 A 
ATOM     10  C   UNL     1       0.669   4.044  20.025  0.00  0.00    +0.000 A 
ATOM     11  C   UNL     1       1.742   4.950  20.025  0.00  0.00    +0.000 A 
ATOM     12  C   UNL     1       2.840   4.747  19.187  0.00  0.00    +0.000 A 
ATOM     13  O   UNL     1       3.902   5.615  19.216  0.00  0.00    +0.000 OA
ATOM     14  C   UNL     1       4.743   5.622  18.121  0.00  0.00    +0.000 A 
ATOM     15  C   UNL     1       5.559   6.748  17.979  0.00  0.00    +0.000 A 
ENDROOT
BRANCH   1  16
ATOM     16  O   UNL     1       7.287   7.950  16.857  0.00  0.00    +0.000 OA
BRANCH  16  18
ATOM     17  C   UNL     1       8.406   9.702  17.975  0.00  0.00    +0.000 C 
ATOM     18  C   UNL     1       8.105   8.233  17.952  0.00  0.00    +0.000 C 
ATOM     19  O   UNL     1       8.511   7.442  18.792  0.00  0.00    +0.000 OA
ENDBRANCH  16  18
ENDBRANCH   1  16
BRANCH   3  20
ATOM     20  O   UNL     1       5.934   3.654  15.157  0.00  0.00    +0.000 OA
BRANCH  20  21
ATOM     21  C   UNL     1       6.206   3.925  13.815  0.00  0.00    +0.000 C 
ATOM     22  C   UNL     1       5.009   3.528  12.991  0.00  0.00    +0.000 C 
ATOM     23  O   UNL     1       7.268   4.317  13.351  0.00  0.00    +0.000 OA
ENDBRANCH  20  21
ENDBRANCH   3  20
BRANCH  11  24
ATOM     24  O   UNL     1       1.626   5.963  21.010  0.00  0.00    +0.000 OA
BRANCH  24  25
ATOM     25  C   UNL     1       1.458   7.328  20.770  0.00  0.00    +0.000 C 
ATOM     26  C   UNL     1       0.359   7.836  21.662  0.00  0.00    +0.000 C 
ATOM     27  O   UNL     1       2.024   8.004  19.923  0.00  0.00    +0.000 OA
ENDBRANCH  24  25
ENDBRANCH  11  24
TORSDOF 6
ENDMDL
MODEL 6
REMARK VINA RESULT:      -7.3      2.075      6.355
REMARK  Name = 
REMARK  9 active torsions:
REMARK  status: ('A' for Active; 'I' for Inactive)
REMARK    1  A    between atoms: C_1  and  C_2
REMARK    2  A    between atoms: C_2  and  O_4
REMARK    3  A    between atoms: O_4  and  C_5
REMARK    4  A    between atoms: C_7  and  O_8
REMARK    5  A    between atoms: O_8  and  C_9
REMARK    6  A    between atoms: C_9  and  C_10
REMARK    7  A    between atoms: C_19  and  O_20
REMARK    8  A    between atoms: O_20  and  C_21
REMARK    9  A    between atoms: C_21  and  C_22
REMARK                            x       y       z     vdW  Elec       q    Type
REMARK                         _______ _______ _______ _____ _____    ______ ____
ROOT
ATOM      1  C   UNL     1       4.628   5.768  16.602  0.00  0.00    +0.000 A 
ATOM      2  C   UNL     1       4.332   4.608  17.312  0.00  0.00    +0.000 A 
ATOM      3  C   UNL     1       3.580   4.688  18.490  0.00  0.00    +0.000 A 
ATOM      4  C   UNL     1       3.104   5.924  18.936  0.00  0.00    +0.000 A 
ATOM      5  C   UNL     1       2.406   6.136  20.209  0.00  0.00    +0.000 A 
ATOM      6  O   UNL     1       2.554   5.401  21.176  0.00  0.00    +0.000 OA
ATOM      7  C   UNL     1       1.553   7.331  20.274  0.00  0.00    +0.000 A 
ATOM      8  C   UNL     1       0.505   7.400  21.199  0.00  0.00    +0.000 A 
ATOM      9  C   UNL     1      -0.273   8.552  21.268  0.00  0.00    +0.000 A 
ATOM     10  C   UNL     1       0.011   9.630  20.429  0.00  0.00    +0.000 A 
ATOM     11  C   UNL     1       1.058   9.548  19.498  0.00  0.00    +0.000 A 
ATOM     12  C   UNL     1       1.834   8.391  19.405  0.00  0.00    +0.000 A 
ATOM     13  O   UNL     1       2.879   8.328  18.518  0.00  0.00    +0.000 OA
ATOM     14  C   UNL     1       3.337   7.074  18.169  0.00  0.00    +0.000 A 
ATOM     15  C   UNL     1       4.104   7.001  17.002  0.00  0.00    +0.000 A 
ENDROOT
BRANCH   1  16
ATOM     16  O   UNL     1       5.434   5.777  15.447  0.00  0.00    +0.000 OA
BRANCH  16  18
ATOM     17  C   UNL     1       6.329   4.008  14.166  0.00  0.00    +0.000 C 
ATOM     18  C   UNL     1       6.504   4.882  15.371  0.00  0.00    +0.000 C 
ATOM     19  O   UNL     1       7.458   4.811  16.133  0.00  0.00    +0.000 OA
ENDBRANCH  16  18
ENDBRANCH   1  16
BRANCH   3  20
ATOM     20  O   UNL     1       3.484   3.468  19.195  0.00  0.00    +0.000 OA
BRANCH  20  21
ATOM     21  C   UNL     1       2.817   2.352  18.687  0.00  0.00    +0.000 C 
ATOM     22  C   UNL     1       1.346   2.495  18.983  0.00  0.00    +0.000 C 
ATOM     23  O   UNL     1       3.329   1.362  18.182  0.00  0.00    +0.000 OA
ENDBRANCH  20  21
ENDBRANCH   3  20
BRANCH  11  24
ATOM     24  O   UNL     1       1.287  10.758  18.796  0.00  0.00    +0.000 OA
BRANCH  24  25
ATOM     25  C   UNL     1       1.133  12.048  19.308  0.00  0.00    +0.000 C 
ATOM     26  C   UNL     1       0.006  12.720  18.573  0.00  0.00    +0.000 C 
ATOM     27  O   UNL     1       1.836  12.599  20.143  0.00  0.00    +0.000 OA
ENDBRANCH  24  25
ENDBRANCH  11  24
TORSDOF 6
ENDMDL
MODEL 7
REMARK VINA RESULT:      -7.3      2.339      4.349
REMARK  Name = 
REMARK  9 active torsions:
REMARK  status: ('A' for Active; 'I' for Inactive)
REMARK    1  A    between atoms: C_1  and  C_2
REMARK    2  A    between atoms: C_2  and  O_4
REMARK    3  A    between atoms: O_4  and  C_5
REMARK    4  A    between atoms: C_7  and  O_8
REMARK    5  A    between atoms: O_8  and  C_9
REMARK    6  A    between atoms: C_9  and  C_10
REMARK    7  A    between atoms: C_19  and  O_20
REMARK    8  A    between atoms: O_20  and  C_21
REMARK    9  A    between atoms: C_21  and  C_22
REMARK                            x       y       z     vdW  Elec       q    Type
REMARK                         _______ _______ _______ _____ _____    ______ ____
ROOT
ATOM      1  C   UNL     1       1.499  10.379  18.629  0.00  0.00    +0.000 A 
ATOM      2  C   UNL     1       0.969  10.048  19.873  0.00  0.00    +0.000 A 
ATOM      3  C   UNL     1       1.133   8.751  20.374  0.00  0.00    +0.000 A 
ATOM      4  C   UNL     1       1.851   7.802  19.642  0.00  0.00    +0.000 A 
ATOM      5  C   UNL     1       1.988   6.391  20.019  0.00  0.00    +0.000 A 
ATOM      6  O   UNL     1       1.168   5.809  20.718  0.00  0.00    +0.000 OA
ATOM      7  C   UNL     1       3.151   5.692  19.454  0.00  0.00    +0.000 A 
ATOM      8  C   UNL     1       3.655   4.544  20.076  0.00  0.00    +0.000 A 
ATOM      9  C   UNL     1       4.738   3.877  19.510  0.00  0.00    +0.000 A 
ATOM     10  C   UNL     1       5.296   4.348  18.321  0.00  0.00    +0.000 A 
ATOM     11  C   UNL     1       4.789   5.506  17.710  0.00  0.00    +0.000 A 
ATOM     12  C   UNL     1       3.716   6.196  18.278  0.00  0.00    +0.000 A 
ATOM     13  O   UNL     1       3.202   7.306  17.658  0.00  0.00    +0.000 OA
ATOM     14  C   UNL     1       2.451   8.171  18.430  0.00  0.00    +0.000 A 
ATOM     15  C   UNL     1       2.273   9.458  17.916  0.00  0.00    +0.000 A 
ENDROOT
BRANCH   1  16
ATOM     16  O   UNL     1       1.317  11.641  18.028  0.00  0.00    +0.000 OA
BRANCH  16  18
ATOM     17  C   UNL     1       0.317  13.594  18.897  0.00  0.00    +0.000 C 
ATOM     18  C   UNL     1       1.574  12.785  18.786  0.00  0.00    +0.000 C 
ATOM     19  O   UNL     1       2.634  13.098  19.311  0.00  0.00    +0.000 OA
ENDBRANCH  16  18
ENDBRANCH   1  16
BRANCH   3  20
ATOM     20  O   UNL     1       0.419   8.501  21.566  0.00  0.00    +0.000 OA
BRANCH  20  21
ATOM     21  C   UNL     1       0.576   9.272  22.719  0.00  0.00    +0.000 C 
ATOM     22  C   UNL     1      -0.747   9.907  23.058  0.00  0.00    +0.000 C 
ATOM     23  O   UNL     1       1.624   9.497  23.309  0.00  0.00    +0.000 OA
ENDBRANCH  20  21
ENDBRANCH   3  20
BRANCH  11  24
ATOM     24  O   UNL     1       5.391   5.795  16.459  0.00  0.00    +0.000 OA
BRANCH  24  25
ATOM     25  C   UNL     1       6.756   5.971  16.224  0.00  0.00    +0.000 C 
ATOM     26  C   UNL     1       7.293   6.937  17.242  0.00  0.00    +0.000 C 
ATOM     27  O   UNL     1       7.412   5.507  15.302  0.00  0.00    +0.000 OA
ENDBRANCH  24  25
ENDBRANCH  11  24
TORSDOF 6
ENDMDL
MODEL 8
REMARK VINA RESULT:      -7.2      2.259      5.447
REMARK  Name = 
REMARK  9 active torsions:
REMARK  status: ('A' for Active; 'I' for Inactive)
REMARK    1  A    between atoms: C_1  and  C_2
REMARK    2  A    between atoms: C_2  and  O_4
REMARK    3  A    between atoms: O_4  and  C_5
REMARK    4  A    between atoms: C_7  and  O_8
REMARK    5  A    between atoms: O_8  and  C_9
REMARK    6  A    between atoms: C_9  and  C_10
REMARK    7  A    between atoms: C_19  and  O_20
REMARK    8  A    between atoms: O_20  and  C_21
REMARK    9  A    between atoms: C_21  and  C_22
REMARK                            x       y       z     vdW  Elec       q    Type
REMARK                         _______ _______ _______ _____ _____    ______ ____
ROOT
ATOM      1  C   UNL     1       0.177   8.598  21.155  0.00  0.00    +0.000 A 
ATOM      2  C   UNL     1       0.282   9.431  20.045  0.00  0.00    +0.000 A 
ATOM      3  C   UNL     1       1.211   9.134  19.041  0.00  0.00    +0.000 A 
ATOM      4  C   UNL     1       2.009   7.991  19.139  0.00  0.00    +0.000 A 
ATOM      5  C   UNL     1       3.087   7.647  18.204  0.00  0.00    +0.000 A 
ATOM      6  O   UNL     1       3.684   8.485  17.544  0.00  0.00    +0.000 OA
ATOM      7  C   UNL     1       3.450   6.223  18.152  0.00  0.00    +0.000 A 
ATOM      8  C   UNL     1       4.088   5.700  17.021  0.00  0.00    +0.000 A 
ATOM      9  C   UNL     1       4.453   4.357  17.000  0.00  0.00    +0.000 A 
ATOM     10  C   UNL     1       4.197   3.553  18.112  0.00  0.00    +0.000 A 
ATOM     11  C   UNL     1       3.548   4.085  19.237  0.00  0.00    +0.000 A 
ATOM     12  C   UNL     1       3.158   5.426  19.263  0.00  0.00    +0.000 A 
ATOM     13  O   UNL     1       2.557   5.950  20.379  0.00  0.00    +0.000 OA
ATOM     14  C   UNL     1       1.834   7.115  20.219  0.00  0.00    +0.000 A 
ATOM     15  C   UNL     1       0.922   7.418  21.234  0.00  0.00    +0.000 A 
ENDROOT
BRANCH   1  16
ATOM     16  O   UNL     1      -0.686   8.867  22.237  0.00  0.00    +0.000 OA
BRANCH  16  18
ATOM     17  C   UNL     1      -1.189  11.010  23.086  0.00  0.00    +0.000 C 
ATOM     18  C   UNL     1      -0.293   9.813  23.186  0.00  0.00    +0.000 C 
ATOM     19  O   UNL     1       0.614   9.706  24.000  0.00  0.00    +0.000 OA
ENDBRANCH  16  18
ENDBRANCH   1  16
BRANCH   3  20
ATOM     20  O   UNL     1       1.329  10.136  18.052  0.00  0.00    +0.000 OA
BRANCH  20  21
ATOM     21  C   UNL     1       1.670  11.457  18.350  0.00  0.00    +0.000 C 
ATOM     22  C   UNL     1       0.434  12.179  18.819  0.00  0.00    +0.000 C 
ATOM     23  O   UNL     1       2.756  11.989  18.166  0.00  0.00    +0.000 OA
ENDBRANCH  20  21
ENDBRANCH   3  20
BRANCH  11  24
ATOM     24  O   UNL     1       3.455   3.173  20.320  0.00  0.00    +0.000 OA
BRANCH  24  25
ATOM     25  C   UNL     1       2.292   2.835  21.013  0.00  0.00    +0.000 C 
ATOM     26  C   UNL     1       1.185   2.635  20.015  0.00  0.00    +0.000 C 
ATOM     27  O   UNL     1       2.142   2.791  22.225  0.00  0.00    +0.000 OA
ENDBRANCH  24  25
ENDBRANCH  11  24
TORSDOF 6
ENDMDL
MODEL 9
REMARK VINA RESULT:      -7.0      3.020      6.411
REMARK  Name = 
REMARK  9 active torsions:
REMARK  status: ('A' for Active; 'I' for Inactive)
REMARK    1  A    between atoms: C_1  and  C_2
REMARK    2  A    between atoms: C_2  and  O_4
REMARK    3  A    between atoms: O_4  and  C_5
REMARK    4  A    between atoms: C_7  and  O_8
REMARK    5  A    between atoms: O_8  and  C_9
REMARK    6  A    between atoms: C_9  and  C_10
REMARK    7  A    between atoms: C_19  and  O_20
REMARK    8  A    between atoms: O_20  and  C_21
REMARK    9  A    between atoms: C_21  and  C_22
REMARK                            x       y       z     vdW  Elec       q    Type
REMARK                         _______ _______ _______ _____ _____    ______ ____
ROOT
ATOM      1  C   UNL     1      -0.441  10.357  22.076  0.00  0.00    +0.000 A 
ATOM      2  C   UNL     1      -0.492  11.049  20.870  0.00  0.00    +0.000 A 
ATOM      3  C   UNL     1       0.224  10.573  19.766  0.00  0.00    +0.000 A 
ATOM      4  C   UNL     1       0.964   9.391  19.866  0.00  0.00    +0.000 A 
ATOM      5  C   UNL     1       1.836   8.865  18.810  0.00  0.00    +0.000 A 
ATOM      6  O   UNL     1       2.349   9.577  17.958  0.00  0.00    +0.000 OA
ATOM      7  C   UNL     1       2.107   7.422  18.872  0.00  0.00    +0.000 A 
ATOM      8  C   UNL     1       2.502   6.729  17.722  0.00  0.00    +0.000 A 
ATOM      9  C   UNL     1       2.784   5.368  17.805  0.00  0.00    +0.000 A 
ATOM     10  C   UNL     1       2.690   4.716  19.035  0.00  0.00    +0.000 A 
ATOM     11  C   UNL     1       2.283   5.417  20.180  0.00  0.00    +0.000 A 
ATOM     12  C   UNL     1       1.977   6.778  20.107  0.00  0.00    +0.000 A 
ATOM     13  O   UNL     1       1.615   7.468  21.236  0.00  0.00    +0.000 OA
ATOM     14  C   UNL     1       0.940   8.659  21.060  0.00  0.00    +0.000 A 
ATOM     15  C   UNL     1       0.242   9.141  22.171  0.00  0.00    +0.000 A 
ENDROOT
BRANCH   1  16
ATOM     16  O   UNL     1      -1.079  10.809  23.249  0.00  0.00    +0.000 OA
BRANCH  16  18
ATOM     17  C   UNL     1      -1.132  13.168  23.210  0.00  0.00    +0.000 C 
ATOM     18  C   UNL     1      -1.939  11.906  23.162  0.00  0.00    +0.000 C 
ATOM     19  O   UNL     1      -3.156  11.879  23.041  0.00  0.00    +0.000 OA
ENDBRANCH  16  18
ENDBRANCH   1  16
BRANCH   3  20
ATOM     20  O   UNL     1       0.216  11.446  18.655  0.00  0.00    +0.000 OA
BRANCH  20  21
ATOM     21  C   UNL     1      -0.871  12.266  18.345  0.00  0.00    +0.000 C 
ATOM     22  C   UNL     1      -0.468  13.701  18.561  0.00  0.00    +0.000 C 
ATOM     23  O   UNL     1      -2.000  11.899  18.051  0.00  0.00    +0.000 OA
ENDBRANCH  20  21
ENDBRANCH   3  20
BRANCH  11  24
ATOM     24  O   UNL     1       2.338   4.643  21.367  0.00  0.00    +0.000 OA
BRANCH  24  25
ATOM     25  C   UNL     1       2.476   3.256  21.438  0.00  0.00    +0.000 C 
ATOM     26  C   UNL     1       1.129   2.659  21.737  0.00  0.00    +0.000 C 
ATOM     27  O   UNL     1       3.514   2.613  21.368  0.00  0.00    +0.000 OA
ENDBRANCH  24  25
ENDBRANCH  11  24
TORSDOF 6
ENDMDL
