MODEL 1
REMARK VINA RESULT:      -7.3      0.000      0.000
REMARK  Name = 
REMARK  5 active torsions:
REMARK  status: ('A' for Active; 'I' for Inactive)
REMARK    1  A    between atoms: C_1  and  O_2
REMARK    2  A    between atoms: O_2  and  C_3
REMARK    3  A    between atoms: C_6  and  C_7
REMARK    4  A    between atoms: N_9  and  C_10
REMARK    5  A    between atoms: C_14  and  C_15
REMARK                            x       y       z     vdW  Elec       q    Type
REMARK                         _______ _______ _______ _____ _____    ______ ____
ROOT
ATOM      1  C   UNL     1       2.946   5.699  17.964  0.00  0.00    +0.000 C 
ATOM      2  C   UNL     1       2.456   4.483  18.819  0.00  0.00    +0.000 C 
ATOM      3  N   UNL     1       3.310   3.283  18.903  0.00  0.00    +0.000 NA
ATOM      4  C   UNL     1       3.077   2.318  17.845  0.00  0.00    +0.000 C 
ATOM      5  C   UNL     1       4.737   3.567  19.143  0.00  0.00    +0.000 C 
ATOM      6  C   UNL     1       5.234   4.822  18.488  0.00  0.00    +0.000 A 
ATOM      7  S   UNL     1       6.896   5.195  18.423  0.00  0.00    +0.000 S 
ATOM      8  C   UNL     1       6.600   6.715  17.697  0.00  0.00    +0.000 A 
ATOM      9  C   UNL     1       7.712   7.660  17.419  0.00  0.00    +0.000 C 
ATOM     10  C   UNL     1       5.250   6.902  17.462  0.00  0.00    +0.000 A 
ATOM     11  C   UNL     1       4.445   5.827  17.963  0.00  0.00    +0.000 A 
ENDROOT
BRANCH   1  15
ATOM     12  C   UNL     1       1.230   9.364  19.566  0.00  0.00    +0.000 A 
ATOM     13  C   UNL     1       1.550   8.306  20.412  0.00  0.00    +0.000 A 
ATOM     14  C   UNL     1       2.136   7.149  19.905  0.00  0.00    +0.000 A 
ATOM     15  C   UNL     1       2.400   7.007  18.532  0.00  0.00    +0.000 A 
ATOM     16  C   UNL     1       2.087   8.085  17.689  0.00  0.00    +0.000 A 
ATOM     17  C   UNL     1       1.509   9.256  18.203  0.00  0.00    +0.000 A 
BRANCH  12  19
ATOM     18  C   UNL     1       0.239  10.230  21.541  0.00  0.00    +0.000 C 
ATOM     19  O   UNL     1       0.612  10.415  20.183  0.00  0.00    +0.000 OA
ENDBRANCH  12  19
ENDBRANCH   1  15
TORSDOF 2
ENDMDL
MODEL 2
REMARK VINA RESULT:      -7.2      0.588      1.302
REMARK  Name = 
REMARK  5 active torsions:
REMARK  status: ('A' for Active; 'I' for Inactive)
REMARK    1  A    between atoms: C_1  and  O_2
REMARK    2  A    between atoms: O_2  and  C_3
REMARK    3  A    between atoms: C_6  and  C_7
REMARK    4  A    between atoms: N_9  and  C_10
REMARK    5  A    between atoms: C_14  and  C_15
REMARK                            x       y       z     vdW  Elec       q    Type
REMARK                         _______ _______ _______ _____ _____    ______ ____
ROOT
ATOM      1  C   UNL     1       2.914   5.542  17.958  0.00  0.00    +0.000 C 
ATOM      2  C   UNL     1       2.455   4.308  18.805  0.00  0.00    +0.000 C 
ATOM      3  N   UNL     1       3.344   3.134  18.890  0.00  0.00    +0.000 NA
ATOM      4  C   UNL     1       3.147   2.167  17.826  0.00  0.00    +0.000 C 
ATOM      5  C   UNL     1       4.760   3.460  19.140  0.00  0.00    +0.000 C 
ATOM      6  C   UNL     1       5.223   4.732  18.492  0.00  0.00    +0.000 A 
ATOM      7  S   UNL     1       6.874   5.156  18.440  0.00  0.00    +0.000 S 
ATOM      8  C   UNL     1       6.537   6.668  17.717  0.00  0.00    +0.000 A 
ATOM      9  C   UNL     1       7.621   7.647  17.450  0.00  0.00    +0.000 C 
ATOM     10  C   UNL     1       5.183   6.816  17.475  0.00  0.00    +0.000 A 
ATOM     11  C   UNL     1       4.408   5.715  17.967  0.00  0.00    +0.000 A 
ENDROOT
BRANCH   1  15
ATOM     12  C   UNL     1       1.393   9.275  19.597  0.00  0.00    +0.000 A 
ATOM     13  C   UNL     1       1.592   9.136  18.226  0.00  0.00    +0.000 A 
ATOM     14  C   UNL     1       2.040   7.929  17.697  0.00  0.00    +0.000 A 
ATOM     15  C   UNL     1       2.324   6.830  18.527  0.00  0.00    +0.000 A 
ATOM     16  C   UNL     1       2.107   6.976  19.906  0.00  0.00    +0.000 A 
ATOM     17  C   UNL     1       1.641   8.189  20.436  0.00  0.00    +0.000 A 
BRANCH  12  19
ATOM     18  C   UNL     1       0.786  11.480  18.957  0.00  0.00    +0.000 C 
ATOM     19  O   UNL     1       1.003  10.526  19.987  0.00  0.00    +0.000 OA
ENDBRANCH  12  19
ENDBRANCH   1  15
TORSDOF 2
ENDMDL
MODEL 3
REMARK VINA RESULT:      -6.7      1.983      3.754
REMARK  Name = 
REMARK  5 active torsions:
REMARK  status: ('A' for Active; 'I' for Inactive)
REMARK    1  A    between atoms: C_1  and  O_2
REMARK    2  A    between atoms: O_2  and  C_3
REMARK    3  A    between atoms: C_6  and  C_7
REMARK    4  A    between atoms: N_9  and  C_10
REMARK    5  A    between atoms: C_14  and  C_15
REMARK                            x       y       z     vdW  Elec       q    Type
REMARK                         _______ _______ _______ _____ _____    ______ ____
ROOT
ATOM      1  C   UNL     1       3.938   6.270  18.639  0.00  0.00    +0.000 C 
ATOM      2  C   UNL     1       4.918   6.602  17.464  0.00  0.00    +0.000 C 
ATOM      3  N   UNL     1       5.587   5.492  16.762  0.00  0.00    +0.000 NA
ATOM      4  C   UNL     1       6.841   5.081  17.366  0.00  0.00    +0.000 C 
ATOM      5  C   UNL     1       4.699   4.366  16.417  0.00  0.00    +0.000 C 
ATOM      6  C   UNL     1       3.620   4.102  17.426  0.00  0.00    +0.000 A 
ATOM      7  S   UNL     1       2.655   2.698  17.351  0.00  0.00    +0.000 S 
ATOM      8  C   UNL     1       1.687   3.206  18.666  0.00  0.00    +0.000 A 
ATOM      9  C   UNL     1       0.514   2.409  19.106  0.00  0.00    +0.000 C 
ATOM     10  C   UNL     1       2.136   4.409  19.182  0.00  0.00    +0.000 A 
ATOM     11  C   UNL     1       3.230   4.959  18.436  0.00  0.00    +0.000 A 
ENDROOT
BRANCH   1  15
ATOM     12  C   UNL     1       0.961   9.426  18.989  0.00  0.00    +0.000 A 
ATOM     13  C   UNL     1       1.621   9.210  17.783  0.00  0.00    +0.000 A 
ATOM     14  C   UNL     1       2.544   8.174  17.659  0.00  0.00    +0.000 A 
ATOM     15  C   UNL     1       2.851   7.338  18.746  0.00  0.00    +0.000 A 
ATOM     16  C   UNL     1       2.170   7.555  19.954  0.00  0.00    +0.000 A 
ATOM     17  C   UNL     1       1.229   8.590  20.073  0.00  0.00    +0.000 A 
BRANCH  12  19
ATOM     18  C   UNL     1      -1.094  10.372  18.269  0.00  0.00    +0.000 C 
ATOM     19  O   UNL     1       0.123  10.505  18.990  0.00  0.00    +0.000 OA
ENDBRANCH  12  19
ENDBRANCH   1  15
TORSDOF 2
ENDMDL
MODEL 4
REMARK VINA RESULT:      -6.6      1.943      3.588
REMARK  Name = 
REMARK  5 active torsions:
REMARK  status: ('A' for Active; 'I' for Inactive)
REMARK    1  A    between atoms: C_1  and  O_2
REMARK    2  A    between atoms: O_2  and  C_3
REMARK    3  A    between atoms: C_6  and  C_7
REMARK    4  A    between atoms: N_9  and  C_10
REMARK    5  A    between atoms: C_14  and  C_15
REMARK                            x       y       z     vdW  Elec       q    Type
REMARK                         _______ _______ _______ _____ _____    ______ ____
ROOT
ATOM      1  C   UNL     1       3.862   6.206  18.617  0.00  0.00    +0.000 C 
ATOM      2  C   UNL     1       4.287   6.126  17.113  0.00  0.00    +0.000 C 
ATOM      3  N   UNL     1       4.758   4.836  16.575  0.00  0.00    +0.000 NA
ATOM      4  C   UNL     1       6.183   4.615  16.735  0.00  0.00    +0.000 C 
ATOM      5  C   UNL     1       3.931   3.677  16.961  0.00  0.00    +0.000 C 
ATOM      6  C   UNL     1       3.347   3.770  18.340  0.00  0.00    +0.000 A 
ATOM      7  S   UNL     1       2.581   2.436  19.075  0.00  0.00    +0.000 S 
ATOM      8  C   UNL     1       2.130   3.357  20.444  0.00  0.00    +0.000 A 
ATOM      9  C   UNL     1       1.302   2.765  21.525  0.00  0.00    +0.000 C 
ATOM     10  C   UNL     1       2.608   4.652  20.355  0.00  0.00    +0.000 A 
ATOM     11  C   UNL     1       3.275   4.913  19.113  0.00  0.00    +0.000 A 
ENDROOT
BRANCH   1  15
ATOM     12  C   UNL     1       0.923   9.359  19.216  0.00  0.00    +0.000 A 
ATOM     13  C   UNL     1       1.509   9.169  17.968  0.00  0.00    +0.000 A 
ATOM     14  C   UNL     1       2.419   8.135  17.766  0.00  0.00    +0.000 A 
ATOM     15  C   UNL     1       2.788   7.273  18.813  0.00  0.00    +0.000 A 
ATOM     16  C   UNL     1       2.181   7.464  20.064  0.00  0.00    +0.000 A 
ATOM     17  C   UNL     1       1.253   8.498  20.263  0.00  0.00    +0.000 A 
BRANCH  12  19
ATOM     18  C   UNL     1      -0.466  10.734  20.565  0.00  0.00    +0.000 C 
ATOM     19  O   UNL     1       0.090  10.440  19.291  0.00  0.00    +0.000 OA
ENDBRANCH  12  19
ENDBRANCH   1  15
TORSDOF 2
ENDMDL
MODEL 5
REMARK VINA RESULT:      -6.4      1.992      3.599
REMARK  Name = 
REMARK  5 active torsions:
REMARK  status: ('A' for Active; 'I' for Inactive)
REMARK    1  A    between atoms: C_1  and  O_2
REMARK    2  A    between atoms: O_2  and  C_3
REMARK    3  A    between atoms: C_6  and  C_7
REMARK    4  A    between atoms: N_9  and  C_10
REMARK    5  A    between atoms: C_14  and  C_15
REMARK                            x       y       z     vdW  Elec       q    Type
REMARK                         _______ _______ _______ _____ _____    ______ ____
ROOT
ATOM      1  C   UNL     1       4.041   6.213  18.644  0.00  0.00    +0.000 C 
ATOM      2  C   UNL     1       5.016   6.510  17.456  0.00  0.00    +0.000 C 
ATOM      3  N   UNL     1       5.633   5.377  16.742  0.00  0.00    +0.000 NA
ATOM      4  C   UNL     1       6.878   4.918  17.328  0.00  0.00    +0.000 C 
ATOM      5  C   UNL     1       4.698   4.286  16.408  0.00  0.00    +0.000 C 
ATOM      6  C   UNL     1       3.625   4.059  17.433  0.00  0.00    +0.000 A 
ATOM      7  S   UNL     1       2.607   2.693  17.370  0.00  0.00    +0.000 S 
ATOM      8  C   UNL     1       1.678   3.235  18.699  0.00  0.00    +0.000 A 
ATOM      9  C   UNL     1       0.482   2.480  19.155  0.00  0.00    +0.000 C 
ATOM     10  C   UNL     1       2.179   4.419  19.210  0.00  0.00    +0.000 A 
ATOM     11  C   UNL     1       3.282   4.929  18.449  0.00  0.00    +0.000 A 
ENDROOT
BRANCH   1  15
ATOM     12  C   UNL     1       0.944   9.255  18.951  0.00  0.00    +0.000 A 
ATOM     13  C   UNL     1       1.261   8.458  20.047  0.00  0.00    +0.000 A 
ATOM     14  C   UNL     1       2.279   7.512  19.961  0.00  0.00    +0.000 A 
ATOM     15  C   UNL     1       2.996   7.320  18.768  0.00  0.00    +0.000 A 
ATOM     16  C   UNL     1       2.679   8.138  17.673  0.00  0.00    +0.000 A 
ATOM     17  C   UNL     1       1.661   9.101  17.765  0.00  0.00    +0.000 A 
BRANCH  12  19
ATOM     18  C   UNL     1      -1.023  10.258  18.078  0.00  0.00    +0.000 C 
ATOM     19  O   UNL     1      -0.109  10.103  19.154  0.00  0.00    +0.000 OA
ENDBRANCH  12  19
ENDBRANCH   1  15
TORSDOF 2
ENDMDL
MODEL 6
REMARK VINA RESULT:      -6.4      2.031      3.495
REMARK  Name = 
REMARK  5 active torsions:
REMARK  status: ('A' for Active; 'I' for Inactive)
REMARK    1  A    between atoms: C_1  and  O_2
REMARK    2  A    between atoms: O_2  and  C_3
REMARK    3  A    between atoms: C_6  and  C_7
REMARK    4  A    between atoms: N_9  and  C_10
REMARK    5  A    between atoms: C_14  and  C_15
REMARK                            x       y       z     vdW  Elec       q    Type
REMARK                         _______ _______ _______ _____ _____    ______ ____
ROOT
ATOM      1  C   UNL     1       3.924   6.174  18.597  0.00  0.00    +0.000 C 
ATOM      2  C   UNL     1       4.321   6.093  17.085  0.00  0.00    +0.000 C 
ATOM      3  N   UNL     1       4.726   4.790  16.525  0.00  0.00    +0.000 NA
ATOM      4  C   UNL     1       6.142   4.504  16.660  0.00  0.00    +0.000 C 
ATOM      5  C   UNL     1       3.855   3.664  16.912  0.00  0.00    +0.000 C 
ATOM      6  C   UNL     1       3.296   3.767  18.301  0.00  0.00    +0.000 A 
ATOM      7  S   UNL     1       2.484   2.459  19.033  0.00  0.00    +0.000 S 
ATOM      8  C   UNL     1       2.095   3.383  20.419  0.00  0.00    +0.000 A 
ATOM      9  C   UNL     1       1.258   2.815  21.507  0.00  0.00    +0.000 C 
ATOM     10  C   UNL     1       2.629   4.657  20.336  0.00  0.00    +0.000 A 
ATOM     11  C   UNL     1       3.288   4.902  19.087  0.00  0.00    +0.000 A 
ENDROOT
BRANCH   1  15
ATOM     12  C   UNL     1       0.885   9.231  19.195  0.00  0.00    +0.000 A 
ATOM     13  C   UNL     1       1.259   8.394  20.242  0.00  0.00    +0.000 A 
ATOM     14  C   UNL     1       2.260   7.443  20.062  0.00  0.00    +0.000 A 
ATOM     15  C   UNL     1       2.901   7.285  18.821  0.00  0.00    +0.000 A 
ATOM     16  C   UNL     1       2.527   8.144  17.776  0.00  0.00    +0.000 A 
ATOM     17  C   UNL     1       1.528   9.112  17.963  0.00  0.00    +0.000 A 
BRANCH  12  19
ATOM     18  C   UNL     1      -0.991  10.459  18.414  0.00  0.00    +0.000 C 
ATOM     19  O   UNL     1      -0.144  10.081  19.490  0.00  0.00    +0.000 OA
ENDBRANCH  12  19
ENDBRANCH   1  15
TORSDOF 2
ENDMDL
MODEL 7
REMARK VINA RESULT:      -6.1      3.768      6.134
REMARK  Name = 
REMARK  5 active torsions:
REMARK  status: ('A' for Active; 'I' for Inactive)
REMARK    1  A    between atoms: C_1  and  O_2
REMARK    2  A    between atoms: O_2  and  C_3
REMARK    3  A    between atoms: C_6  and  C_7
REMARK    4  A    between atoms: N_9  and  C_10
REMARK    5  A    between atoms: C_14  and  C_15
REMARK                            x       y       z     vdW  Elec       q    Type
REMARK                         _______ _______ _______ _____ _____    ______ ____
ROOT
ATOM      1  C   UNL     1       4.953   4.362  18.224  0.00  0.00    +0.000 C 
ATOM      2  C   UNL     1       4.393   2.917  18.444  0.00  0.00    +0.000 C 
ATOM      3  N   UNL     1       3.252   2.729  19.360  0.00  0.00    +0.000 NA
ATOM      4  C   UNL     1       3.633   2.529  20.745  0.00  0.00    +0.000 C 
ATOM      5  C   UNL     1       2.161   3.705  19.181  0.00  0.00    +0.000 C 
ATOM      6  C   UNL     1       2.622   5.080  18.796  0.00  0.00    +0.000 A 
ATOM      7  S   UNL     1       1.554   6.409  18.792  0.00  0.00    +0.000 S 
ATOM      8  C   UNL     1       2.748   7.459  18.163  0.00  0.00    +0.000 A 
ATOM      9  C   UNL     1       2.425   8.868  17.823  0.00  0.00    +0.000 C 
ATOM     10  C   UNL     1       3.958   6.806  18.010  0.00  0.00    +0.000 A 
ATOM     11  C   UNL     1       3.880   5.410  18.331  0.00  0.00    +0.000 A 
ENDROOT
BRANCH   1  15
ATOM     12  C   UNL     1       6.709   4.580  14.248  0.00  0.00    +0.000 A 
ATOM     13  C   UNL     1       5.384   4.185  14.413  0.00  0.00    +0.000 A 
ATOM     14  C   UNL     1       4.810   4.154  15.682  0.00  0.00    +0.000 A 
ATOM     15  C   UNL     1       5.551   4.496  16.826  0.00  0.00    +0.000 A 
ATOM     16  C   UNL     1       6.882   4.906  16.647  0.00  0.00    +0.000 A 
ATOM     17  C   UNL     1       7.455   4.950  15.366  0.00  0.00    +0.000 A 
BRANCH  12  19
ATOM     18  C   UNL     1       6.576   3.524  12.125  0.00  0.00    +0.000 C 
ATOM     19  O   UNL     1       7.161   4.513  12.960  0.00  0.00    +0.000 OA
ENDBRANCH  12  19
ENDBRANCH   1  15
TORSDOF 2
ENDMDL
MODEL 8
REMARK VINA RESULT:      -6.0      3.652      6.035
REMARK  Name = 
REMARK  5 active torsions:
REMARK  status: ('A' for Active; 'I' for Inactive)
REMARK    1  A    between atoms: C_1  and  O_2
REMARK    2  A    between atoms: O_2  and  C_3
REMARK    3  A    between atoms: C_6  and  C_7
REMARK    4  A    between atoms: N_9  and  C_10
REMARK    5  A    between atoms: C_14  and  C_15
REMARK                            x       y       z     vdW  Elec       q    Type
REMARK                         _______ _______ _______ _____ _____    ______ ____
ROOT
ATOM      1  C   UNL     1       4.934   4.299  18.341  0.00  0.00    +0.000 C 
ATOM      2  C   UNL     1       4.343   2.862  18.531  0.00  0.00    +0.000 C 
ATOM      3  N   UNL     1       3.148   2.691  19.378  0.00  0.00    +0.000 NA
ATOM      4  C   UNL     1       3.445   2.489  20.784  0.00  0.00    +0.000 C 
ATOM      5  C   UNL     1       2.082   3.681  19.135  0.00  0.00    +0.000 C 
ATOM      6  C   UNL     1       2.584   5.049  18.776  0.00  0.00    +0.000 A 
ATOM      7  S   UNL     1       1.536   6.392  18.708  0.00  0.00    +0.000 S 
ATOM      8  C   UNL     1       2.778   7.425  18.147  0.00  0.00    +0.000 A 
ATOM      9  C   UNL     1       2.496   8.837  17.787  0.00  0.00    +0.000 C 
ATOM     10  C   UNL     1       3.987   6.755  18.066  0.00  0.00    +0.000 A 
ATOM     11  C   UNL     1       3.871   5.361  18.384  0.00  0.00    +0.000 A 
ENDROOT
BRANCH   1  15
ATOM     12  C   UNL     1       6.823   4.810  14.453  0.00  0.00    +0.000 A 
ATOM     13  C   UNL     1       7.527   5.088  15.622  0.00  0.00    +0.000 A 
ATOM     14  C   UNL     1       6.936   4.886  16.867  0.00  0.00    +0.000 A 
ATOM     15  C   UNL     1       5.614   4.421  16.980  0.00  0.00    +0.000 A 
ATOM     16  C   UNL     1       4.918   4.130  15.796  0.00  0.00    +0.000 A 
ATOM     17  C   UNL     1       5.519   4.321  14.542  0.00  0.00    +0.000 A 
BRANCH  12  19
ATOM     18  C   UNL     1       7.178   4.328  12.156  0.00  0.00    +0.000 C 
ATOM     19  O   UNL     1       7.499   5.103  13.303  0.00  0.00    +0.000 OA
ENDBRANCH  12  19
ENDBRANCH   1  15
TORSDOF 2
ENDMDL
MODEL 9
REMARK VINA RESULT:      -6.0      4.343      7.559
REMARK  Name = 
REMARK  5 active torsions:
REMARK  status: ('A' for Active; 'I' for Inactive)
REMARK    1  A    between atoms: C_1  and  O_2
REMARK    2  A    between atoms: O_2  and  C_3
REMARK    3  A    between atoms: C_6  and  C_7
REMARK    4  A    between atoms: N_9  and  C_10
REMARK    5  A    between atoms: C_14  and  C_15
REMARK                            x       y       z     vdW  Elec       q    Type
REMARK                         _______ _______ _______ _____ _____    ______ ____
ROOT
ATOM      1  C   UNL     1       0.939  10.812  19.304  0.00  0.00    +0.000 C 
ATOM      2  C   UNL     1       0.965  11.396  20.756  0.00  0.00    +0.000 C 
ATOM      3  N   UNL     1       0.006  12.460  21.111  0.00  0.00    +0.000 NA
ATOM      4  C   UNL     1       0.481  13.801  20.827  0.00  0.00    +0.000 C 
ATOM      5  C   UNL     1      -1.375  12.211  20.657  0.00  0.00    +0.000 C 
ATOM      6  C   UNL     1      -1.471  11.494  19.342  0.00  0.00    +0.000 A 
ATOM      7  S   UNL     1      -2.956  11.339  18.519  0.00  0.00    +0.000 S 
ATOM      8  C   UNL     1      -2.260  10.365  17.298  0.00  0.00    +0.000 A 
ATOM      9  C   UNL     1      -3.094   9.778  16.219  0.00  0.00    +0.000 C 
ATOM     10  C   UNL     1      -0.899  10.211  17.497  0.00  0.00    +0.000 A 
ATOM     11  C   UNL     1      -0.442  10.824  18.710  0.00  0.00    +0.000 A 
ENDROOT
BRANCH   1  15
ATOM     12  C   UNL     1       2.399   6.713  19.369  0.00  0.00    +0.000 A 
ATOM     13  C   UNL     1       1.768   7.255  20.486  0.00  0.00    +0.000 A 
ATOM     14  C   UNL     1       1.265   8.553  20.451  0.00  0.00    +0.000 A 
ATOM     15  C   UNL     1       1.398   9.356  19.306  0.00  0.00    +0.000 A 
ATOM     16  C   UNL     1       2.023   8.795  18.181  0.00  0.00    +0.000 A 
ATOM     17  C   UNL     1       2.517   7.482  18.212  0.00  0.00    +0.000 A 
BRANCH  12  19
ATOM     18  C   UNL     1       4.296   5.287  19.416  0.00  0.00    +0.000 C 
ATOM     19  O   UNL     1       2.892   5.452  19.556  0.00  0.00    +0.000 OA
ENDBRANCH  12  19
ENDBRANCH   1  15
TORSDOF 2
ENDMDL
