MODEL 1
REMARK VINA RESULT:      -7.6      0.000      0.000
REMARK  Name = 
REMARK  6 active torsions:
REMARK  status: ('A' for Active; 'I' for Inactive)
REMARK    1  A    between atoms: N_8  and  C_9
REMARK    2  A    between atoms: C_9  and  C_10
REMARK    3  A    between atoms: C_10  and  C_11
REMARK    4  A    between atoms: C_11  and  N_12
REMARK    5  A    between atoms: N_12  and  C_13
REMARK    6  A    between atoms: C_13  and  C_14
REMARK                            x       y       z     vdW  Elec       q    Type
REMARK                         _______ _______ _______ _____ _____    ______ ____
ROOT
ATOM      1  C   UNL     1       2.823   2.692  20.941  0.00  0.00    +0.000 C 
ENDROOT
BRANCH   1   9
ATOM      2 CL   UNL     1       8.376   7.646  18.340  0.00  0.00    +0.000 Cl
ATOM      3  C   UNL     1       7.234   6.421  17.943  0.00  0.00    +0.000 A 
ATOM      4  C   UNL     1       7.113   5.993  16.624  0.00  0.00    +0.000 A 
ATOM      5  C   UNL     1       6.190   5.002  16.276  0.00  0.00    +0.000 A 
ATOM      6  C   UNL     1       5.394   4.453  17.296  0.00  0.00    +0.000 A 
ATOM      7  S   UNL     1       4.174   3.242  17.199  0.00  0.00    +0.000 S 
ATOM      8  C   UNL     1       3.920   3.348  18.896  0.00  0.00    +0.000 A 
ATOM      9  N   UNL     1       3.015   2.558  19.511  0.00  0.00    +0.000 N 
ATOM     10  N   UNL     1       4.672   4.227  19.516  0.00  0.00    +0.000 NA
ATOM     11  C   UNL     1       5.510   4.867  18.623  0.00  0.00    +0.000 A 
ATOM     12  C   UNL     1       6.443   5.868  18.952  0.00  0.00    +0.000 A 
ATOM     13  H   UNL     1       2.319   2.064  18.963  0.00  0.00    +0.000 HD
ENDBRANCH   1   9
BRANCH   1  14
ATOM     14  C   UNL     1       1.413   3.181  21.256  0.00  0.00    +0.000 C 
BRANCH  14  15
ATOM     15  C   UNL     1       1.114   4.482  20.503  0.00  0.00    +0.000 C 
BRANCH  15  16
ATOM     16  N   UNL     1       2.087   5.504  20.896  0.00  0.00    +0.000 NA
ATOM     17  H   UNL     1       2.975   5.050  21.124  0.00  0.00    +0.000 HD
BRANCH  16  18
ATOM     18  C   UNL     1       2.322   6.470  19.822  0.00  0.00    +0.000 C 
BRANCH  18  19
ATOM     19  C   UNL     1       1.688   7.813  20.131  0.00  0.00    +0.000 A 
ATOM     20  C   UNL     1       1.576   8.817  19.155  0.00  0.00    +0.000 A 
ATOM     21  C   UNL     1       0.944  10.028  19.449  0.00  0.00    +0.000 A 
ATOM     22  C   UNL     1       0.425  10.266  20.726  0.00  0.00    +0.000 A 
ATOM     23 CL   UNL     1      -0.349  11.782  21.014  0.00  0.00    +0.000 Cl
ATOM     24  C   UNL     1       0.546   9.282  21.711  0.00  0.00    +0.000 A 
ATOM     25 CL   UNL     1      -0.044   9.506  23.320  0.00  0.00    +0.000 Cl
ATOM     26  C   UNL     1       1.167   8.064  21.409  0.00  0.00    +0.000 A 
ENDBRANCH  18  19
ENDBRANCH  16  18
ENDBRANCH  15  16
ENDBRANCH  14  15
ENDBRANCH   1  14
TORSDOF 6
ENDMDL
MODEL 2
REMARK VINA RESULT:      -7.5      4.432      7.193
REMARK  Name = 
REMARK  6 active torsions:
REMARK  status: ('A' for Active; 'I' for Inactive)
REMARK    1  A    between atoms: N_8  and  C_9
REMARK    2  A    between atoms: C_9  and  C_10
REMARK    3  A    between atoms: C_10  and  C_11
REMARK    4  A    between atoms: C_11  and  N_12
REMARK    5  A    between atoms: N_12  and  C_13
REMARK    6  A    between atoms: C_13  and  C_14
REMARK                            x       y       z     vdW  Elec       q    Type
REMARK                         _______ _______ _______ _____ _____    ______ ____
ROOT
ATOM      1  C   UNL     1       7.737   4.937  18.207  0.00  0.00    +0.000 C 
ENDROOT
BRANCH   1   9
ATOM      2 CL   UNL     1       1.256   2.475  21.958  0.00  0.00    +0.000 Cl
ATOM      3  C   UNL     1       1.995   2.852  20.450  0.00  0.00    +0.000 A 
ATOM      4  C   UNL     1       1.263   2.727  19.273  0.00  0.00    +0.000 A 
ATOM      5  C   UNL     1       1.843   3.024  18.036  0.00  0.00    +0.000 A 
ATOM      6  C   UNL     1       3.182   3.452  18.020  0.00  0.00    +0.000 A 
ATOM      7  S   UNL     1       4.176   3.879  16.681  0.00  0.00    +0.000 S 
ATOM      8  C   UNL     1       5.480   4.225  17.747  0.00  0.00    +0.000 A 
ATOM      9  N   UNL     1       6.661   4.673  17.273  0.00  0.00    +0.000 N 
ATOM     10  N   UNL     1       5.222   4.032  19.020  0.00  0.00    +0.000 NA
ATOM     11  C   UNL     1       3.925   3.589  19.192  0.00  0.00    +0.000 A 
ATOM     12  C   UNL     1       3.323   3.282  20.427  0.00  0.00    +0.000 A 
ATOM     13  H   UNL     1       6.873   4.594  16.284  0.00  0.00    +0.000 HD
ENDBRANCH   1   9
BRANCH   1  14
ATOM     14  C   UNL     1       7.780   6.414  18.583  0.00  0.00    +0.000 C 
BRANCH  14  15
ATOM     15  C   UNL     1       7.314   7.283  17.409  0.00  0.00    +0.000 C 
BRANCH  15  16
ATOM     16  N   UNL     1       7.967   8.592  17.486  0.00  0.00    +0.000 NA
ATOM     17  H   UNL     1       7.255   9.324  17.427  0.00  0.00    +0.000 HD
BRANCH  16  18
ATOM     18  C   UNL     1       8.702   8.758  18.741  0.00  0.00    +0.000 C 
BRANCH  18  19
ATOM     19  C   UNL     1       9.165  10.190  18.930  0.00  0.00    +0.000 A 
ATOM     20  C   UNL     1       9.535  10.994  17.839  0.00  0.00    +0.000 A 
ATOM     21  C   UNL     1       9.912  12.326  18.032  0.00  0.00    +0.000 A 
ATOM     22  C   UNL     1       9.942  12.876  19.318  0.00  0.00    +0.000 A 
ATOM     23 CL   UNL     1      10.411  14.529  19.480  0.00  0.00    +0.000 Cl
ATOM     24  C   UNL     1       9.595  12.080  20.414  0.00  0.00    +0.000 A 
ATOM     25 CL   UNL     1       9.631  12.673  22.037  0.00  0.00    +0.000 Cl
ATOM     26  C   UNL     1       9.204  10.750  20.216  0.00  0.00    +0.000 A 
ENDBRANCH  18  19
ENDBRANCH  16  18
ENDBRANCH  15  16
ENDBRANCH  14  15
ENDBRANCH   1  14
TORSDOF 6
ENDMDL
MODEL 3
REMARK VINA RESULT:      -7.2      5.672      7.817
REMARK  Name = 
REMARK  6 active torsions:
REMARK  status: ('A' for Active; 'I' for Inactive)
REMARK    1  A    between atoms: N_8  and  C_9
REMARK    2  A    between atoms: C_9  and  C_10
REMARK    3  A    between atoms: C_10  and  C_11
REMARK    4  A    between atoms: C_11  and  N_12
REMARK    5  A    between atoms: N_12  and  C_13
REMARK    6  A    between atoms: C_13  and  C_14
REMARK                            x       y       z     vdW  Elec       q    Type
REMARK                         _______ _______ _______ _____ _____    ______ ____
ROOT
ATOM      1  C   UNL     1       8.196   8.462  17.774  0.00  0.00    +0.000 C 
ENDROOT
BRANCH   1   9
ATOM      2 CL   UNL     1      11.177  15.694  16.799  0.00  0.00    +0.000 Cl
ATOM      3  C   UNL     1      10.781  14.433  17.902  0.00  0.00    +0.000 A 
ATOM      4  C   UNL     1      11.023  14.605  19.261  0.00  0.00    +0.000 A 
ATOM      5  C   UNL     1      10.712  13.594  20.176  0.00  0.00    +0.000 A 
ATOM      6  C   UNL     1      10.150  12.405  19.680  0.00  0.00    +0.000 A 
ATOM      7  S   UNL     1       9.671  10.986  20.529  0.00  0.00    +0.000 S 
ATOM      8  C   UNL     1       9.154  10.267  19.055  0.00  0.00    +0.000 A 
ATOM      9  N   UNL     1       8.603   9.035  19.042  0.00  0.00    +0.000 N 
ATOM     10  N   UNL     1       9.326  11.009  17.986  0.00  0.00    +0.000 NA
ATOM     11  C   UNL     1       9.895  12.222  18.321  0.00  0.00    +0.000 A 
ATOM     12  C   UNL     1      10.217  13.251  17.417  0.00  0.00    +0.000 A 
ATOM     13  H   UNL     1       8.696   8.430  19.850  0.00  0.00    +0.000 HD
ENDBRANCH   1   9
BRANCH   1  14
ATOM     14  C   UNL     1       7.375   7.195  17.990  0.00  0.00    +0.000 C 
BRANCH  14  15
ATOM     15  C   UNL     1       8.081   6.257  18.975  0.00  0.00    +0.000 C 
BRANCH  15  16
ATOM     16  N   UNL     1       7.175   5.166  19.338  0.00  0.00    +0.000 NA
ATOM     17  H   UNL     1       6.810   5.332  20.280  0.00  0.00    +0.000 HD
BRANCH  16  18
ATOM     18  C   UNL     1       6.044   5.069  18.414  0.00  0.00    +0.000 C 
BRANCH  18  19
ATOM     19  C   UNL     1       4.806   4.525  19.101  0.00  0.00    +0.000 A 
ATOM     20  C   UNL     1       4.624   3.148  19.309  0.00  0.00    +0.000 A 
ATOM     21  C   UNL     1       3.499   2.673  19.989  0.00  0.00    +0.000 A 
ATOM     22  C   UNL     1       2.527   3.562  20.460  0.00  0.00    +0.000 A 
ATOM     23 CL   UNL     1       1.168   2.905  21.296  0.00  0.00    +0.000 Cl
ATOM     24  C   UNL     1       2.688   4.934  20.243  0.00  0.00    +0.000 A 
ATOM     25 CL   UNL     1       1.522   6.096  20.769  0.00  0.00    +0.000 Cl
ATOM     26  C   UNL     1       3.823   5.407  19.574  0.00  0.00    +0.000 A 
ENDBRANCH  18  19
ENDBRANCH  16  18
ENDBRANCH  15  16
ENDBRANCH  14  15
ENDBRANCH   1  14
TORSDOF 6
ENDMDL
MODEL 4
REMARK VINA RESULT:      -7.1      2.028      2.748
REMARK  Name = 
REMARK  6 active torsions:
REMARK  status: ('A' for Active; 'I' for Inactive)
REMARK    1  A    between atoms: N_8  and  C_9
REMARK    2  A    between atoms: C_9  and  C_10
REMARK    3  A    between atoms: C_10  and  C_11
REMARK    4  A    between atoms: C_11  and  N_12
REMARK    5  A    between atoms: N_12  and  C_13
REMARK    6  A    between atoms: C_13  and  C_14
REMARK                            x       y       z     vdW  Elec       q    Type
REMARK                         _______ _______ _______ _____ _____    ______ ____
ROOT
ATOM      1  C   UNL     1       2.790   3.197  20.051  0.00  0.00    +0.000 C 
ENDROOT
BRANCH   1   9
ATOM      2 CL   UNL     1       6.067   3.584  12.892  0.00  0.00    +0.000 Cl
ATOM      3  C   UNL     1       6.108   4.116  14.528  0.00  0.00    +0.000 A 
ATOM      4  C   UNL     1       7.084   5.021  14.935  0.00  0.00    +0.000 A 
ATOM      5  C   UNL     1       7.139   5.466  16.259  0.00  0.00    +0.000 A 
ATOM      6  C   UNL     1       6.181   4.972  17.162  0.00  0.00    +0.000 A 
ATOM      7  S   UNL     1       5.985   5.308  18.840  0.00  0.00    +0.000 S 
ATOM      8  C   UNL     1       4.618   4.267  18.898  0.00  0.00    +0.000 A 
ATOM      9  N   UNL     1       3.927   4.097  20.044  0.00  0.00    +0.000 N 
ATOM     10  N   UNL     1       4.314   3.687  17.761  0.00  0.00    +0.000 NA
ATOM     11  C   UNL     1       5.193   4.071  16.767  0.00  0.00    +0.000 A 
ATOM     12  C   UNL     1       5.157   3.634  15.430  0.00  0.00    +0.000 A 
ATOM     13  H   UNL     1       4.330   4.390  20.928  0.00  0.00    +0.000 HD
ENDBRANCH   1   9
BRANCH   1  14
ATOM     14  C   UNL     1       1.564   3.876  20.654  0.00  0.00    +0.000 C 
BRANCH  14  15
ATOM     15  C   UNL     1       1.328   5.241  19.998  0.00  0.00    +0.000 C 
BRANCH  15  16
ATOM     16  N   UNL     1       1.908   6.290  20.839  0.00  0.00    +0.000 NA
ATOM     17  H   UNL     1       2.866   6.029  21.086  0.00  0.00    +0.000 HD
BRANCH  16  18
ATOM     18  C   UNL     1       1.943   7.581  20.151  0.00  0.00    +0.000 C 
BRANCH  18  19
ATOM     19  C   UNL     1       1.068   8.607  20.845  0.00  0.00    +0.000 A 
ATOM     20  C   UNL     1       0.965   8.660  22.245  0.00  0.00    +0.000 A 
ATOM     21  C   UNL     1       0.192   9.645  22.866  0.00  0.00    +0.000 A 
ATOM     22  C   UNL     1      -0.506  10.585  22.100  0.00  0.00    +0.000 A 
ATOM     23 CL   UNL     1      -1.436  11.777  22.935  0.00  0.00    +0.000 Cl
ATOM     24  C   UNL     1      -0.428  10.532  20.706  0.00  0.00    +0.000 A 
ATOM     25 CL   UNL     1      -1.280  11.638  19.687  0.00  0.00    +0.000 Cl
ATOM     26  C   UNL     1       0.360   9.552  20.088  0.00  0.00    +0.000 A 
ENDBRANCH  18  19
ENDBRANCH  16  18
ENDBRANCH  15  16
ENDBRANCH  14  15
ENDBRANCH   1  14
TORSDOF 6
ENDMDL
MODEL 5
REMARK VINA RESULT:      -7.0      3.346      4.844
REMARK  Name = 
REMARK  6 active torsions:
REMARK  status: ('A' for Active; 'I' for Inactive)
REMARK    1  A    between atoms: N_8  and  C_9
REMARK    2  A    between atoms: C_9  and  C_10
REMARK    3  A    between atoms: C_10  and  C_11
REMARK    4  A    between atoms: C_11  and  N_12
REMARK    5  A    between atoms: N_12  and  C_13
REMARK    6  A    between atoms: C_13  and  C_14
REMARK                            x       y       z     vdW  Elec       q    Type
REMARK                         _______ _______ _______ _____ _____    ______ ____
ROOT
ATOM      1  C   UNL     1       1.381   8.200  20.998  0.00  0.00    +0.000 C 
ENDROOT
BRANCH   1   9
ATOM      2 CL   UNL     1       5.785   5.569  15.012  0.00  0.00    +0.000 Cl
ATOM      3  C   UNL     1       4.878   5.171  16.420  0.00  0.00    +0.000 A 
ATOM      4  C   UNL     1       4.781   3.844  16.825  0.00  0.00    +0.000 A 
ATOM      5  C   UNL     1       4.047   3.496  17.963  0.00  0.00    +0.000 A 
ATOM      6  C   UNL     1       3.413   4.525  18.681  0.00  0.00    +0.000 A 
ATOM      7  S   UNL     1       2.439   4.431  20.098  0.00  0.00    +0.000 S 
ATOM      8  C   UNL     1       2.245   6.139  20.089  0.00  0.00    +0.000 A 
ATOM      9  N   UNL     1       1.532   6.759  21.053  0.00  0.00    +0.000 N 
ATOM     10  N   UNL     1       2.845   6.761  19.102  0.00  0.00    +0.000 NA
ATOM     11  C   UNL     1       3.507   5.861  18.290  0.00  0.00    +0.000 A 
ATOM     12  C   UNL     1       4.250   6.189  17.140  0.00  0.00    +0.000 A 
ATOM     13  H   UNL     1       0.918   6.221  21.655  0.00  0.00    +0.000 HD
ENDBRANCH   1   9
BRANCH   1  14
ATOM     14  C   UNL     1      -0.026   8.614  21.413  0.00  0.00    +0.000 C 
BRANCH  14  15
ATOM     15  C   UNL     1      -0.031  10.055  21.937  0.00  0.00    +0.000 C 
BRANCH  15  16
ATOM     16  N   UNL     1       0.134  10.979  20.814  0.00  0.00    +0.000 NA
ATOM     17  H   UNL     1       0.433  10.453  19.989  0.00  0.00    +0.000 HD
BRANCH  16  18
ATOM     18  C   UNL     1      -1.115  11.674  20.494  0.00  0.00    +0.000 C 
BRANCH  18  19
ATOM     19  C   UNL     1      -1.667  11.237  19.151  0.00  0.00    +0.000 A 
ATOM     20  C   UNL     1      -0.987  10.315  18.339  0.00  0.00    +0.000 A 
ATOM     21  C   UNL     1      -1.539   9.890  17.127  0.00  0.00    +0.000 A 
ATOM     22  C   UNL     1      -2.773  10.389  16.696  0.00  0.00    +0.000 A 
ATOM     23 CL   UNL     1      -3.396   9.814  15.193  0.00  0.00    +0.000 Cl
ATOM     24  C   UNL     1      -3.451  11.321  17.486  0.00  0.00    +0.000 A 
ATOM     25 CL   UNL     1      -4.966  12.006  17.014  0.00  0.00    +0.000 Cl
ATOM     26  C   UNL     1      -2.902  11.734  18.706  0.00  0.00    +0.000 A 
ENDBRANCH  18  19
ENDBRANCH  16  18
ENDBRANCH  15  16
ENDBRANCH  14  15
ENDBRANCH   1  14
TORSDOF 6
ENDMDL
MODEL 6
REMARK VINA RESULT:      -6.9      5.262      8.241
REMARK  Name = 
REMARK  6 active torsions:
REMARK  status: ('A' for Active; 'I' for Inactive)
REMARK    1  A    between atoms: N_8  and  C_9
REMARK    2  A    between atoms: C_9  and  C_10
REMARK    3  A    between atoms: C_10  and  C_11
REMARK    4  A    between atoms: C_11  and  N_12
REMARK    5  A    between atoms: N_12  and  C_13
REMARK    6  A    between atoms: C_13  and  C_14
REMARK                            x       y       z     vdW  Elec       q    Type
REMARK                         _______ _______ _______ _____ _____    ______ ____
ROOT
ATOM      1  C   UNL     1       6.878   7.902  17.179  0.00  0.00    +0.000 C 
ENDROOT
BRANCH   1   9
ATOM      2 CL   UNL     1       0.757   3.953  20.194  0.00  0.00    +0.000 Cl
ATOM      3  C   UNL     1       2.091   3.936  19.106  0.00  0.00    +0.000 A 
ATOM      4  C   UNL     1       2.338   2.803  18.336  0.00  0.00    +0.000 A 
ATOM      5  C   UNL     1       3.417   2.765  17.448  0.00  0.00    +0.000 A 
ATOM      6  C   UNL     1       4.240   3.901  17.358  0.00  0.00    +0.000 A 
ATOM      7  S   UNL     1       5.635   4.166  16.384  0.00  0.00    +0.000 S 
ATOM      8  C   UNL     1       5.790   5.755  17.022  0.00  0.00    +0.000 A 
ATOM      9  N   UNL     1       6.776   6.576  16.603  0.00  0.00    +0.000 N 
ATOM     10  N   UNL     1       4.883   6.087  17.911  0.00  0.00    +0.000 NA
ATOM     11  C   UNL     1       4.000   5.046  18.118  0.00  0.00    +0.000 A 
ATOM     12  C   UNL     1       2.910   5.063  19.008  0.00  0.00    +0.000 A 
ATOM     13  H   UNL     1       7.565   6.199  16.088  0.00  0.00    +0.000 HD
ENDBRANCH   1   9
BRANCH   1  14
ATOM     14  C   UNL     1       8.086   8.000  18.105  0.00  0.00    +0.000 C 
BRANCH  14  15
ATOM     15  C   UNL     1       8.491   9.464  18.309  0.00  0.00    +0.000 C 
BRANCH  15  16
ATOM     16  N   UNL     1       9.413   9.557  19.442  0.00  0.00    +0.000 NA
ATOM     17  H   UNL     1      10.372   9.449  19.103  0.00  0.00    +0.000 HD
BRANCH  16  18
ATOM     18  C   UNL     1       9.305  10.848  20.125  0.00  0.00    +0.000 C 
BRANCH  18  19
ATOM     19  C   UNL     1      10.068  11.933  19.389  0.00  0.00    +0.000 A 
ATOM     20  C   UNL     1      11.415  11.769  19.025  0.00  0.00    +0.000 A 
ATOM     21  C   UNL     1      12.084  12.762  18.304  0.00  0.00    +0.000 A 
ATOM     22  C   UNL     1      11.426  13.944  17.947  0.00  0.00    +0.000 A 
ATOM     23 CL   UNL     1      12.312  15.123  17.051  0.00  0.00    +0.000 Cl
ATOM     24  C   UNL     1      10.091  14.127  18.319  0.00  0.00    +0.000 A 
ATOM     25 CL   UNL     1       9.214  15.568  17.941  0.00  0.00    +0.000 Cl
ATOM     26  C   UNL     1       9.420  13.124  19.029  0.00  0.00    +0.000 A 
ENDBRANCH  18  19
ENDBRANCH  16  18
ENDBRANCH  15  16
ENDBRANCH  14  15
ENDBRANCH   1  14
TORSDOF 6
ENDMDL
MODEL 7
REMARK VINA RESULT:      -6.8      2.649      7.328
REMARK  Name = 
REMARK  6 active torsions:
REMARK  status: ('A' for Active; 'I' for Inactive)
REMARK    1  A    between atoms: N_8  and  C_9
REMARK    2  A    between atoms: C_9  and  C_10
REMARK    3  A    between atoms: C_10  and  C_11
REMARK    4  A    between atoms: C_11  and  N_12
REMARK    5  A    between atoms: N_12  and  C_13
REMARK    6  A    between atoms: C_13  and  C_14
REMARK                            x       y       z     vdW  Elec       q    Type
REMARK                         _______ _______ _______ _____ _____    ______ ____
ROOT
ATOM      1  C   UNL     1       2.651   6.377  19.529  0.00  0.00    +0.000 C 
ENDROOT
BRANCH   1   9
ATOM      2 CL   UNL     1      -0.535  13.431  18.035  0.00  0.00    +0.000 Cl
ATOM      3  C   UNL     1      -0.160  12.239  19.218  0.00  0.00    +0.000 A 
ATOM      4  C   UNL     1      -0.509  12.453  20.548  0.00  0.00    +0.000 A 
ATOM      5  C   UNL     1      -0.212  11.500  21.527  0.00  0.00    +0.000 A 
ATOM      6  C   UNL     1       0.447  10.325  21.127  0.00  0.00    +0.000 A 
ATOM      7  S   UNL     1       0.958   8.981  22.075  0.00  0.00    +0.000 S 
ATOM      8  C   UNL     1       1.569   8.208  20.666  0.00  0.00    +0.000 A 
ATOM      9  N   UNL     1       2.135   6.985  20.739  0.00  0.00    +0.000 N 
ATOM     10  N   UNL     1       1.426   8.889  19.553  0.00  0.00    +0.000 NA
ATOM     11  C   UNL     1       0.797  10.094  19.797  0.00  0.00    +0.000 A 
ATOM     12  C   UNL     1       0.491  11.067  18.827  0.00  0.00    +0.000 A 
ATOM     13  H   UNL     1       2.414   6.608  21.639  0.00  0.00    +0.000 HD
ENDBRANCH   1   9
BRANCH   1  14
ATOM     14  C   UNL     1       1.756   5.230  19.073  0.00  0.00    +0.000 C 
BRANCH  14  15
ATOM     15  C   UNL     1       2.560   3.929  18.969  0.00  0.00    +0.000 C 
BRANCH  15  16
ATOM     16  N   UNL     1       2.724   3.573  17.558  0.00  0.00    +0.000 NA
ATOM     17  H   UNL     1       2.438   4.365  16.977  0.00  0.00    +0.000 HD
BRANCH  16  18
ATOM     18  C   UNL     1       4.114   3.242  17.240  0.00  0.00    +0.000 C 
BRANCH  18  19
ATOM     19  C   UNL     1       5.004   4.469  17.287  0.00  0.00    +0.000 A 
ATOM     20  C   UNL     1       4.818   5.548  16.407  0.00  0.00    +0.000 A 
ATOM     21  C   UNL     1       5.619   6.690  16.501  0.00  0.00    +0.000 A 
ATOM     22  C   UNL     1       6.630   6.770  17.465  0.00  0.00    +0.000 A 
ATOM     23 CL   UNL     1       7.574   8.213  17.528  0.00  0.00    +0.000 Cl
ATOM     24  C   UNL     1       6.836   5.696  18.335  0.00  0.00    +0.000 A 
ATOM     25 CL   UNL     1       8.079   5.703  19.536  0.00  0.00    +0.000 Cl
ATOM     26  C   UNL     1       6.023   4.559  18.247  0.00  0.00    +0.000 A 
ENDBRANCH  18  19
ENDBRANCH  16  18
ENDBRANCH  15  16
ENDBRANCH  14  15
ENDBRANCH   1  14
TORSDOF 6
ENDMDL
MODEL 8
REMARK VINA RESULT:      -6.8      6.347      8.401
REMARK  Name = 
REMARK  6 active torsions:
REMARK  status: ('A' for Active; 'I' for Inactive)
REMARK    1  A    between atoms: N_8  and  C_9
REMARK    2  A    between atoms: C_9  and  C_10
REMARK    3  A    between atoms: C_10  and  C_11
REMARK    4  A    between atoms: C_11  and  N_12
REMARK    5  A    between atoms: N_12  and  C_13
REMARK    6  A    between atoms: C_13  and  C_14
REMARK                            x       y       z     vdW  Elec       q    Type
REMARK                         _______ _______ _______ _____ _____    ______ ____
ROOT
ATOM      1  C   UNL     1       8.325   9.143  18.125  0.00  0.00    +0.000 C 
ENDROOT
BRANCH   1   9
ATOM      2 CL   UNL     1      11.210  16.334  16.674  0.00  0.00    +0.000 Cl
ATOM      3  C   UNL     1      11.004  15.066  17.819  0.00  0.00    +0.000 A 
ATOM      4  C   UNL     1      11.502  15.216  19.110  0.00  0.00    +0.000 A 
ATOM      5  C   UNL     1      11.350  14.198  20.057  0.00  0.00    +0.000 A 
ATOM      6  C   UNL     1      10.680  13.026  19.666  0.00  0.00    +0.000 A 
ATOM      7  S   UNL     1      10.343  11.604  20.576  0.00  0.00    +0.000 S 
ATOM      8  C   UNL     1       9.543  10.914  19.219  0.00  0.00    +0.000 A 
ATOM      9  N   UNL     1       8.975   9.692  19.299  0.00  0.00    +0.000 N 
ATOM     10  N   UNL     1       9.524  11.666  18.144  0.00  0.00    +0.000 NA
ATOM     11  C   UNL     1      10.170  12.865  18.378  0.00  0.00    +0.000 A 
ATOM     12  C   UNL     1      10.336  13.900  17.439  0.00  0.00    +0.000 A 
ATOM     13  H   UNL     1       9.207   9.075  20.069  0.00  0.00    +0.000 HD
ENDBRANCH   1   9
BRANCH   1  14
ATOM     14  C   UNL     1       8.154   7.633  18.257  0.00  0.00    +0.000 C 
BRANCH  14  15
ATOM     15  C   UNL     1       7.358   7.076  17.071  0.00  0.00    +0.000 C 
BRANCH  15  16
ATOM     16  N   UNL     1       6.437   6.043  17.549  0.00  0.00    +0.000 NA
ATOM     17  H   UNL     1       6.726   5.742  18.483  0.00  0.00    +0.000 HD
BRANCH  16  18
ATOM     18  C   UNL     1       5.060   6.537  17.627  0.00  0.00    +0.000 C 
BRANCH  18  19
ATOM     19  C   UNL     1       4.114   5.471  18.144  0.00  0.00    +0.000 A 
ATOM     20  C   UNL     1       2.742   5.494  17.842  0.00  0.00    +0.000 A 
ATOM     21  C   UNL     1       1.897   4.475  18.289  0.00  0.00    +0.000 A 
ATOM     22  C   UNL     1       2.402   3.420  19.057  0.00  0.00    +0.000 A 
ATOM     23 CL   UNL     1       1.301   2.193  19.567  0.00  0.00    +0.000 Cl
ATOM     24  C   UNL     1       3.762   3.394  19.379  0.00  0.00    +0.000 A 
ATOM     25 CL   UNL     1       4.461   2.143  20.345  0.00  0.00    +0.000 Cl
ATOM     26  C   UNL     1       4.608   4.410  18.918  0.00  0.00    +0.000 A 
ENDBRANCH  18  19
ENDBRANCH  16  18
ENDBRANCH  15  16
ENDBRANCH  14  15
ENDBRANCH   1  14
TORSDOF 6
ENDMDL
MODEL 9
REMARK VINA RESULT:      -6.7      1.748      6.897
REMARK  Name = 
REMARK  6 active torsions:
REMARK  status: ('A' for Active; 'I' for Inactive)
REMARK    1  A    between atoms: N_8  and  C_9
REMARK    2  A    between atoms: C_9  and  C_10
REMARK    3  A    between atoms: C_10  and  C_11
REMARK    4  A    between atoms: C_11  and  N_12
REMARK    5  A    between atoms: N_12  and  C_13
REMARK    6  A    between atoms: C_13  and  C_14
REMARK                            x       y       z     vdW  Elec       q    Type
REMARK                         _______ _______ _______ _____ _____    ______ ____
ROOT
ATOM      1  C   UNL     1       2.097   4.659  20.453  0.00  0.00    +0.000 C 
ENDROOT
BRANCH   1   9
ATOM      2 CL   UNL     1      -1.323  11.196  23.231  0.00  0.00    +0.000 Cl
ATOM      3  C   UNL     1      -0.354  10.487  21.998  0.00  0.00    +0.000 A 
ATOM      4  C   UNL     1       0.126  11.278  20.958  0.00  0.00    +0.000 A 
ATOM      5  C   UNL     1       0.912  10.724  19.943  0.00  0.00    +0.000 A 
ATOM      6  C   UNL     1       1.200   9.349  20.007  0.00  0.00    +0.000 A 
ATOM      7  S   UNL     1       2.117   8.373  18.924  0.00  0.00    +0.000 S 
ATOM      8  C   UNL     1       1.841   6.997  19.916  0.00  0.00    +0.000 A 
ATOM      9  N   UNL     1       2.368   5.797  19.596  0.00  0.00    +0.000 N 
ATOM     10  N   UNL     1       1.109   7.219  20.982  0.00  0.00    +0.000 NA
ATOM     11  C   UNL     1       0.732   8.546  21.046  0.00  0.00    +0.000 A 
ATOM     12  C   UNL     1      -0.060   9.123  22.057  0.00  0.00    +0.000 A 
ATOM     13  H   UNL     1       2.734   5.636  18.663  0.00  0.00    +0.000 HD
ENDBRANCH   1   9
BRANCH   1  14
ATOM     14  C   UNL     1       2.350   3.350  19.713  0.00  0.00    +0.000 C 
BRANCH  14  15
ATOM     15  C   UNL     1       3.812   2.917  19.870  0.00  0.00    +0.000 C 
BRANCH  15  16
ATOM     16  N   UNL     1       4.299   2.388  18.594  0.00  0.00    +0.000 NA
ATOM     17  H   UNL     1       3.854   1.485  18.414  0.00  0.00    +0.000 HD
BRANCH  16  18
ATOM     18  C   UNL     1       3.991   3.287  17.481  0.00  0.00    +0.000 C 
BRANCH  18  19
ATOM     19  C   UNL     1       4.925   4.482  17.455  0.00  0.00    +0.000 A 
ATOM     20  C   UNL     1       4.725   5.554  16.569  0.00  0.00    +0.000 A 
ATOM     21  C   UNL     1       5.569   6.667  16.596  0.00  0.00    +0.000 A 
ATOM     22  C   UNL     1       6.637   6.726  17.498  0.00  0.00    +0.000 A 
ATOM     23 CL   UNL     1       7.633   8.135  17.480  0.00  0.00    +0.000 Cl
ATOM     24  C   UNL     1       6.858   5.658  18.372  0.00  0.00    +0.000 A 
ATOM     25 CL   UNL     1       8.169   5.639  19.498  0.00  0.00    +0.000 Cl
ATOM     26  C   UNL     1       6.002   4.550  18.352  0.00  0.00    +0.000 A 
ENDBRANCH  18  19
ENDBRANCH  16  18
ENDBRANCH  15  16
ENDBRANCH  14  15
ENDBRANCH   1  14
TORSDOF 6
ENDMDL
