MODEL 1
REMARK VINA RESULT:      -6.9      0.000      0.000
REMARK  Name = 
REMARK  6 active torsions:
REMARK  status: ('A' for Active; 'I' for Inactive)
REMARK    1  A    between atoms: C_1  and  O_2
REMARK    2  A    between atoms: O_2  and  C_3
REMARK    3  A    between atoms: C_6  and  C_7
REMARK    4  A    between atoms: C_9  and  N_10
REMARK    5  A    between atoms: C_11  and  C_13
REMARK    6  A    between atoms: C_18  and  C_20
REMARK                            x       y       z     vdW  Elec       q    Type
REMARK                         _______ _______ _______ _____ _____    ______ ____
ROOT
ATOM      1  N   UNL     1       6.688   5.334  15.341  0.00  0.00    +0.000 N 
ATOM      2  C   UNL     1       5.879   6.307  15.937  0.00  0.00    +0.000 C 
ATOM      3  O   UNL     1       4.991   6.947  15.378  0.00  0.00    +0.000 OA
ATOM      4  H   UNL     1       7.427   4.899  15.881  0.00  0.00    +0.000 HD
ENDROOT
BRANCH   1  11
ATOM      5  C   UNL     1       7.653   4.935  13.115  0.00  0.00    +0.000 A 
ATOM      6  C   UNL     1       7.568   4.345  11.841  0.00  0.00    +0.000 A 
ATOM      7  C   UNL     1       6.410   3.680  11.437  0.00  0.00    +0.000 A 
ATOM      8  C   UNL     1       5.317   3.606  12.292  0.00  0.00    +0.000 A 
ATOM      9  C   UNL     1       4.050   2.918  11.885  0.00  0.00    +0.000 C 
ATOM     10  C   UNL     1       5.408   4.175  13.571  0.00  0.00    +0.000 A 
ATOM     11  C   UNL     1       6.566   4.821  14.011  0.00  0.00    +0.000 A 
BRANCH   5  13
ATOM     12  C   UNL     1       9.402   6.453  12.572  0.00  0.00    +0.000 C 
ATOM     13  O   UNL     1       8.771   5.618  13.549  0.00  0.00    +0.000 OA
ENDBRANCH   5  13
ENDBRANCH   1  11
BRANCH   2  14
ATOM     14  C   UNL     1       6.134   6.504  17.447  0.00  0.00    +0.000 C 
ATOM     15  C   UNL     1       7.579   7.018  17.579  0.00  0.00    +0.000 C 
ATOM     16  C   UNL     1       7.978   6.694  19.008  0.00  0.00    +0.000 C 
ATOM     17  C   UNL     1       7.210   5.427  19.333  0.00  0.00    +0.000 C 
ATOM     18  N   UNL     1       6.158   5.318  18.327  0.00  0.00    +0.000 N 
ATOM     19  C   UNL     1       5.223   4.306  18.509  0.00  0.00    +0.000 C 
ATOM     20  O   UNL     1       5.364   3.513  19.456  0.00  0.00    +0.000 OA
BRANCH  19  21
ATOM     21  C   UNL     1       4.038   4.147  17.525  0.00  0.00    +0.000 C 
ATOM     22  C   UNL     1       2.777   5.018  17.848  0.00  0.00    +0.000 C 
ATOM     23  C   UNL     1       1.940   3.744  17.726  0.00  0.00    +0.000 C 
ATOM     24  O   UNL     1       0.748   3.532  17.647  0.00  0.00    +0.000 OA
ATOM     25  C   UNL     1       3.180   2.850  17.699  0.00  0.00    +0.000 C 
ENDBRANCH  19  21
ENDBRANCH   2  14
TORSDOF 4
ENDMDL
MODEL 2
REMARK VINA RESULT:      -6.8      4.287      7.501
REMARK  Name = 
REMARK  6 active torsions:
REMARK  status: ('A' for Active; 'I' for Inactive)
REMARK    1  A    between atoms: C_1  and  O_2
REMARK    2  A    between atoms: O_2  and  C_3
REMARK    3  A    between atoms: C_6  and  C_7
REMARK    4  A    between atoms: C_9  and  N_10
REMARK    5  A    between atoms: C_11  and  C_13
REMARK    6  A    between atoms: C_18  and  C_20
REMARK                            x       y       z     vdW  Elec       q    Type
REMARK                         _______ _______ _______ _____ _____    ______ ____
ROOT
ATOM      1  N   UNL     1       2.554   7.668  19.684  0.00  0.00    +0.000 N 
ATOM      2  C   UNL     1       2.471   6.887  18.528  0.00  0.00    +0.000 C 
ATOM      3  O   UNL     1       1.512   6.836  17.760  0.00  0.00    +0.000 OA
ATOM      4  H   UNL     1       3.375   7.599  20.276  0.00  0.00    +0.000 HD
ENDROOT
BRANCH   1  11
ATOM      5  C   UNL     1       1.265   9.726  19.301  0.00  0.00    +0.000 A 
ATOM      6  C   UNL     1       0.256  10.621  19.700  0.00  0.00    +0.000 A 
ATOM      7  C   UNL     1      -0.394  10.464  20.925  0.00  0.00    +0.000 A 
ATOM      8  C   UNL     1      -0.039   9.423  21.772  0.00  0.00    +0.000 A 
ATOM      9  C   UNL     1      -0.700   9.235  23.104  0.00  0.00    +0.000 C 
ATOM     10  C   UNL     1       0.953   8.516  21.367  0.00  0.00    +0.000 A 
ATOM     11  C   UNL     1       1.599   8.633  20.133  0.00  0.00    +0.000 A 
BRANCH   5  13
ATOM     12  C   UNL     1       2.429  11.168  17.810  0.00  0.00    +0.000 C 
ATOM     13  O   UNL     1       1.948   9.853  18.108  0.00  0.00    +0.000 OA
ENDBRANCH   5  13
ENDBRANCH   1  11
BRANCH   2  14
ATOM     14  C   UNL     1       3.753   6.086  18.209  0.00  0.00    +0.000 C 
ATOM     15  C   UNL     1       4.409   6.783  17.002  0.00  0.00    +0.000 C 
ATOM     16  C   UNL     1       5.309   5.727  16.385  0.00  0.00    +0.000 C 
ATOM     17  C   UNL     1       4.597   4.418  16.667  0.00  0.00    +0.000 C 
ATOM     18  N   UNL     1       3.624   4.700  17.718  0.00  0.00    +0.000 N 
ATOM     19  C   UNL     1       2.949   3.609  18.253  0.00  0.00    +0.000 C 
ATOM     20  O   UNL     1       3.146   2.480  17.773  0.00  0.00    +0.000 OA
BRANCH  19  21
ATOM     21  C   UNL     1       1.938   3.802  19.410  0.00  0.00    +0.000 C 
ATOM     22  C   UNL     1       2.569   3.910  20.839  0.00  0.00    +0.000 C 
ATOM     23  C   UNL     1       1.580   2.835  21.291  0.00  0.00    +0.000 C 
ATOM     24  O   UNL     1       1.237   2.419  22.378  0.00  0.00    +0.000 OA
ATOM     25  C   UNL     1       1.162   2.519  19.855  0.00  0.00    +0.000 C 
ENDBRANCH  19  21
ENDBRANCH   2  14
TORSDOF 4
ENDMDL
MODEL 3
REMARK VINA RESULT:      -6.6     11.391     13.976
REMARK  Name = 
REMARK  6 active torsions:
REMARK  status: ('A' for Active; 'I' for Inactive)
REMARK    1  A    between atoms: C_1  and  O_2
REMARK    2  A    between atoms: O_2  and  C_3
REMARK    3  A    between atoms: C_6  and  C_7
REMARK    4  A    between atoms: C_9  and  N_10
REMARK    5  A    between atoms: C_11  and  C_13
REMARK    6  A    between atoms: C_18  and  C_20
REMARK                            x       y       z     vdW  Elec       q    Type
REMARK                         _______ _______ _______ _____ _____    ______ ____
ROOT
ATOM      1  N   UNL     1      -4.470  12.147  17.779  0.00  0.00    +0.000 N 
ATOM      2  C   UNL     1      -5.754  11.708  18.119  0.00  0.00    +0.000 C 
ATOM      3  O   UNL     1      -6.040  10.605  18.579  0.00  0.00    +0.000 OA
ATOM      4  H   UNL     1      -4.350  13.062  17.359  0.00  0.00    +0.000 HD
ENDROOT
BRANCH   1  11
ATOM      5  C   UNL     1      -2.803  10.488  17.063  0.00  0.00    +0.000 A 
ATOM      6  C   UNL     1      -1.550   9.872  17.233  0.00  0.00    +0.000 A 
ATOM      7  C   UNL     1      -0.751  10.169  18.339  0.00  0.00    +0.000 A 
ATOM      8  C   UNL     1      -1.197  11.074  19.294  0.00  0.00    +0.000 A 
ATOM      9  C   UNL     1      -0.377  11.403  20.504  0.00  0.00    +0.000 C 
ATOM     10  C   UNL     1      -2.437  11.706  19.115  0.00  0.00    +0.000 A 
ATOM     11  C   UNL     1      -3.242  11.449  18.003  0.00  0.00    +0.000 A 
BRANCH   5  13
ATOM     12  C   UNL     1      -3.018  10.268  14.705  0.00  0.00    +0.000 C 
ATOM     13  O   UNL     1      -3.633  10.211  15.996  0.00  0.00    +0.000 OA
ENDBRANCH   5  13
ENDBRANCH   1  11
BRANCH   2  14
ATOM     14  C   UNL     1      -6.858  12.772  17.933  0.00  0.00    +0.000 C 
ATOM     15  C   UNL     1      -6.570  13.464  16.587  0.00  0.00    +0.000 C 
ATOM     16  C   UNL     1      -7.286  14.800  16.676  0.00  0.00    +0.000 C 
ATOM     17  C   UNL     1      -7.231  15.156  18.149  0.00  0.00    +0.000 C 
ATOM     18  N   UNL     1      -6.901  13.923  18.856  0.00  0.00    +0.000 N 
ATOM     19  C   UNL     1      -6.943  13.969  20.245  0.00  0.00    +0.000 C 
ATOM     20  O   UNL     1      -7.182  15.051  20.809  0.00  0.00    +0.000 OA
BRANCH  19  21
ATOM     21  C   UNL     1      -6.663  12.696  21.081  0.00  0.00    +0.000 C 
ATOM     22  C   UNL     1      -7.904  11.777  21.338  0.00  0.00    +0.000 C 
ATOM     23  C   UNL     1      -7.537  11.799  22.823  0.00  0.00    +0.000 C 
ATOM     24  O   UNL     1      -7.900  11.153  23.783  0.00  0.00    +0.000 OA
ATOM     25  C   UNL     1      -6.512  12.916  22.622  0.00  0.00    +0.000 C 
ENDBRANCH  19  21
ENDBRANCH   2  14
TORSDOF 4
ENDMDL
MODEL 4
REMARK VINA RESULT:      -6.6      2.652      4.505
REMARK  Name = 
REMARK  6 active torsions:
REMARK  status: ('A' for Active; 'I' for Inactive)
REMARK    1  A    between atoms: C_1  and  O_2
REMARK    2  A    between atoms: O_2  and  C_3
REMARK    3  A    between atoms: C_6  and  C_7
REMARK    4  A    between atoms: C_9  and  N_10
REMARK    5  A    between atoms: C_11  and  C_13
REMARK    6  A    between atoms: C_18  and  C_20
REMARK                            x       y       z     vdW  Elec       q    Type
REMARK                         _______ _______ _______ _____ _____    ______ ____
ROOT
ATOM      1  N   UNL     1       5.000   4.573  17.961  0.00  0.00    +0.000 N 
ATOM      2  C   UNL     1       3.712   4.070  18.168  0.00  0.00    +0.000 C 
ATOM      3  O   UNL     1       2.901   3.781  17.290  0.00  0.00    +0.000 OA
ATOM      4  H   UNL     1       5.572   4.826  18.758  0.00  0.00    +0.000 HD
ENDROOT
BRANCH   1  11
ATOM      5  C   UNL     1       6.817   5.547  16.621  0.00  0.00    +0.000 A 
ATOM      6  C   UNL     1       7.519   5.634  15.405  0.00  0.00    +0.000 A 
ATOM      7  C   UNL     1       7.066   4.964  14.268  0.00  0.00    +0.000 A 
ATOM      8  C   UNL     1       5.900   4.210  14.325  0.00  0.00    +0.000 A 
ATOM      9  C   UNL     1       5.372   3.493  13.120  0.00  0.00    +0.000 C 
ATOM     10  C   UNL     1       5.210   4.104  15.542  0.00  0.00    +0.000 A 
ATOM     11  C   UNL     1       5.658   4.741  16.702  0.00  0.00    +0.000 A 
BRANCH   5  13
ATOM     12  C   UNL     1       7.657   7.557  17.576  0.00  0.00    +0.000 C 
ATOM     13  O   UNL     1       7.217   6.208  17.765  0.00  0.00    +0.000 OA
ENDBRANCH   5  13
ENDBRANCH   1  11
BRANCH   2  14
ATOM     14  C   UNL     1       3.359   3.821  19.651  0.00  0.00    +0.000 C 
ATOM     15  C   UNL     1       2.937   2.343  19.753  0.00  0.00    +0.000 C 
ATOM     16  C   UNL     1       2.110   2.261  21.023  0.00  0.00    +0.000 C 
ATOM     17  C   UNL     1       1.445   3.621  21.124  0.00  0.00    +0.000 C 
ATOM     18  N   UNL     1       2.185   4.505  20.229  0.00  0.00    +0.000 N 
ATOM     19  C   UNL     1       1.852   5.854  20.267  0.00  0.00    +0.000 C 
ATOM     20  O   UNL     1       0.910   6.225  20.989  0.00  0.00    +0.000 OA
BRANCH  19  21
ATOM     21  C   UNL     1       2.620   6.878  19.396  0.00  0.00    +0.000 C 
ATOM     22  C   UNL     1       2.198   8.373  19.590  0.00  0.00    +0.000 C 
ATOM     23  C   UNL     1       2.060   8.468  18.069  0.00  0.00    +0.000 C 
ATOM     24  O   UNL     1       1.932   9.395  17.299  0.00  0.00    +0.000 OA
ATOM     25  C   UNL     1       2.185   6.954  17.895  0.00  0.00    +0.000 C 
ENDBRANCH  19  21
ENDBRANCH   2  14
TORSDOF 4
ENDMDL
MODEL 5
REMARK VINA RESULT:      -6.4      9.484     11.896
REMARK  Name = 
REMARK  6 active torsions:
REMARK  status: ('A' for Active; 'I' for Inactive)
REMARK    1  A    between atoms: C_1  and  O_2
REMARK    2  A    between atoms: O_2  and  C_3
REMARK    3  A    between atoms: C_6  and  C_7
REMARK    4  A    between atoms: C_9  and  N_10
REMARK    5  A    between atoms: C_11  and  C_13
REMARK    6  A    between atoms: C_18  and  C_20
REMARK                            x       y       z     vdW  Elec       q    Type
REMARK                         _______ _______ _______ _____ _____    ______ ____
ROOT
ATOM      1  N   UNL     1      -2.065  11.068  18.967  0.00  0.00    +0.000 N 
ATOM      2  C   UNL     1      -0.900  11.829  19.112  0.00  0.00    +0.000 C 
ATOM      3  O   UNL     1      -0.728  12.970  18.689  0.00  0.00    +0.000 OA
ATOM      4  H   UNL     1      -2.085  10.115  19.312  0.00  0.00    +0.000 HD
ENDROOT
BRANCH   1  11
ATOM      5  C   UNL     1      -3.561  11.299  17.030  0.00  0.00    +0.000 A 
ATOM      6  C   UNL     1      -4.818  11.640  16.499  0.00  0.00    +0.000 A 
ATOM      7  C   UNL     1      -5.803  12.215  17.304  0.00  0.00    +0.000 A 
ATOM      8  C   UNL     1      -5.543  12.468  18.645  0.00  0.00    +0.000 A 
ATOM      9  C   UNL     1      -6.568  13.102  19.535  0.00  0.00    +0.000 C 
ATOM     10  C   UNL     1      -4.297  12.109  19.183  0.00  0.00    +0.000 A 
ATOM     11  C   UNL     1      -3.305  11.505  18.406  0.00  0.00    +0.000 A 
BRANCH   5  13
ATOM     12  C   UNL     1      -2.937  10.308  14.961  0.00  0.00    +0.000 C 
ATOM     13  O   UNL     1      -2.552  10.746  16.268  0.00  0.00    +0.000 OA
ENDBRANCH   5  13
ENDBRANCH   1  11
BRANCH   2  14
ATOM     14  C   UNL     1       0.208  11.141  19.938  0.00  0.00    +0.000 C 
ATOM     15  C   UNL     1       0.620   9.885  19.149  0.00  0.00    +0.000 C 
ATOM     16  C   UNL     1       1.271   8.975  20.176  0.00  0.00    +0.000 C 
ATOM     17  C   UNL     1       0.544   9.293  21.469  0.00  0.00    +0.000 C 
ATOM     18  N   UNL     1      -0.136  10.566  21.254  0.00  0.00    +0.000 N 
ATOM     19  C   UNL     1      -0.751  11.140  22.360  0.00  0.00    +0.000 C 
ATOM     20  O   UNL     1      -0.757  10.523  23.439  0.00  0.00    +0.000 OA
BRANCH  19  21
ATOM     21  C   UNL     1      -1.450  12.517  22.243  0.00  0.00    +0.000 C 
ATOM     22  C   UNL     1      -1.149  13.522  23.405  0.00  0.00    +0.000 C 
ATOM     23  C   UNL     1      -2.659  13.723  23.542  0.00  0.00    +0.000 C 
ATOM     24  O   UNL     1      -3.344  14.532  24.131  0.00  0.00    +0.000 OA
ATOM     25  C   UNL     1      -2.968  12.543  22.620  0.00  0.00    +0.000 C 
ENDBRANCH  19  21
ENDBRANCH   2  14
TORSDOF 4
ENDMDL
MODEL 6
REMARK VINA RESULT:      -6.4     12.046     14.478
REMARK  Name = 
REMARK  6 active torsions:
REMARK  status: ('A' for Active; 'I' for Inactive)
REMARK    1  A    between atoms: C_1  and  O_2
REMARK    2  A    between atoms: O_2  and  C_3
REMARK    3  A    between atoms: C_6  and  C_7
REMARK    4  A    between atoms: C_9  and  N_10
REMARK    5  A    between atoms: C_11  and  C_13
REMARK    6  A    between atoms: C_18  and  C_20
REMARK                            x       y       z     vdW  Elec       q    Type
REMARK                         _______ _______ _______ _____ _____    ______ ____
ROOT
ATOM      1  N   UNL     1      -5.394  12.655  17.231  0.00  0.00    +0.000 N 
ATOM      2  C   UNL     1      -6.634  12.392  17.820  0.00  0.00    +0.000 C 
ATOM      3  O   UNL     1      -7.029  11.294  18.208  0.00  0.00    +0.000 OA
ATOM      4  H   UNL     1      -5.186  13.591  16.900  0.00  0.00    +0.000 HD
ENDROOT
BRANCH   1  11
ATOM      5  C   UNL     1      -3.538  11.363  18.197  0.00  0.00    +0.000 A 
ATOM      6  C   UNL     1      -2.536  10.385  18.059  0.00  0.00    +0.000 A 
ATOM      7  C   UNL     1      -2.272   9.802  16.818  0.00  0.00    +0.000 A 
ATOM      8  C   UNL     1      -2.993  10.196  15.698  0.00  0.00    +0.000 A 
ATOM      9  C   UNL     1      -2.724   9.608  14.346  0.00  0.00    +0.000 C 
ATOM     10  C   UNL     1      -4.007  11.157  15.837  0.00  0.00    +0.000 A 
ATOM     11  C   UNL     1      -4.311  11.734  17.072  0.00  0.00    +0.000 A 
BRANCH   5  13
ATOM     12  C   UNL     1      -2.752  12.745  19.965  0.00  0.00    +0.000 C 
ATOM     13  O   UNL     1      -3.820  11.979  19.399  0.00  0.00    +0.000 OA
ENDBRANCH   5  13
ENDBRANCH   1  11
BRANCH   2  14
ATOM     14  C   UNL     1      -7.517  13.642  18.027  0.00  0.00    +0.000 C 
ATOM     15  C   UNL     1      -7.419  14.461  16.726  0.00  0.00    +0.000 C 
ATOM     16  C   UNL     1      -7.814  15.872  17.125  0.00  0.00    +0.000 C 
ATOM     17  C   UNL     1      -7.347  15.999  18.562  0.00  0.00    +0.000 C 
ATOM     18  N   UNL     1      -7.113  14.640  19.038  0.00  0.00    +0.000 N 
ATOM     19  C   UNL     1      -6.821  14.492  20.389  0.00  0.00    +0.000 C 
ATOM     20  O   UNL     1      -6.701  15.506  21.097  0.00  0.00    +0.000 OA
BRANCH  19  21
ATOM     21  C   UNL     1      -6.613  13.084  20.998  0.00  0.00    +0.000 C 
ATOM     22  C   UNL     1      -7.916  12.362  21.477  0.00  0.00    +0.000 C 
ATOM     23  C   UNL     1      -7.213  12.108  22.812  0.00  0.00    +0.000 C 
ATOM     24  O   UNL     1      -7.461  11.402  23.766  0.00  0.00    +0.000 OA
ATOM     25  C   UNL     1      -6.061  13.051  22.461  0.00  0.00    +0.000 C 
ENDBRANCH  19  21
ENDBRANCH   2  14
TORSDOF 4
ENDMDL
MODEL 7
REMARK VINA RESULT:      -6.3      4.760      7.778
REMARK  Name = 
REMARK  6 active torsions:
REMARK  status: ('A' for Active; 'I' for Inactive)
REMARK    1  A    between atoms: C_1  and  O_2
REMARK    2  A    between atoms: O_2  and  C_3
REMARK    3  A    between atoms: C_6  and  C_7
REMARK    4  A    between atoms: C_9  and  N_10
REMARK    5  A    between atoms: C_11  and  C_13
REMARK    6  A    between atoms: C_18  and  C_20
REMARK                            x       y       z     vdW  Elec       q    Type
REMARK                         _______ _______ _______ _____ _____    ______ ____
ROOT
ATOM      1  N   UNL     1       1.957   8.611  18.736  0.00  0.00    +0.000 N 
ATOM      2  C   UNL     1       2.218   7.368  19.319  0.00  0.00    +0.000 C 
ATOM      3  O   UNL     1       1.524   6.808  20.166  0.00  0.00    +0.000 OA
ATOM      4  H   UNL     1       2.622   9.006  18.082  0.00  0.00    +0.000 HD
ENDROOT
BRANCH   1  11
ATOM      5  C   UNL     1       0.569  10.048  20.170  0.00  0.00    +0.000 A 
ATOM      6  C   UNL     1      -0.529  10.914  20.324  0.00  0.00    +0.000 A 
ATOM      7  C   UNL     1      -1.426  11.125  19.276  0.00  0.00    +0.000 A 
ATOM      8  C   UNL     1      -1.248  10.467  18.066  0.00  0.00    +0.000 A 
ATOM      9  C   UNL     1      -2.201  10.653  16.925  0.00  0.00    +0.000 C 
ATOM     10  C   UNL     1      -0.141   9.619  17.902  0.00  0.00    +0.000 A 
ATOM     11  C   UNL     1       0.788   9.413  18.925  0.00  0.00    +0.000 A 
BRANCH   5  13
ATOM     12  C   UNL     1       0.897   9.382  22.429  0.00  0.00    +0.000 C 
ATOM     13  O   UNL     1       1.470   9.795  21.184  0.00  0.00    +0.000 OA
ENDBRANCH   5  13
ENDBRANCH   1  11
BRANCH   2  14
ATOM     14  C   UNL     1       3.472   6.657  18.764  0.00  0.00    +0.000 C 
ATOM     15  C   UNL     1       3.977   7.523  17.594  0.00  0.00    +0.000 C 
ATOM     16  C   UNL     1       4.824   6.585  16.753  0.00  0.00    +0.000 C 
ATOM     17  C   UNL     1       4.173   5.228  16.937  0.00  0.00    +0.000 C 
ATOM     18  N   UNL     1       3.317   5.341  18.113  0.00  0.00    +0.000 N 
ATOM     19  C   UNL     1       2.726   4.169  18.572  0.00  0.00    +0.000 C 
ATOM     20  O   UNL     1       2.891   3.117  17.931  0.00  0.00    +0.000 OA
BRANCH  19  21
ATOM     21  C   UNL     1       1.847   4.179  19.846  0.00  0.00    +0.000 C 
ATOM     22  C   UNL     1       2.598   3.854  21.181  0.00  0.00    +0.000 C 
ATOM     23  C   UNL     1       1.509   2.820  21.470  0.00  0.00    +0.000 C 
ATOM     24  O   UNL     1       1.199   2.187  22.458  0.00  0.00    +0.000 OA
ATOM     25  C   UNL     1       0.939   2.923  20.055  0.00  0.00    +0.000 C 
ENDBRANCH  19  21
ENDBRANCH   2  14
TORSDOF 4
ENDMDL
MODEL 8
REMARK VINA RESULT:      -6.3      8.721     11.090
REMARK  Name = 
REMARK  6 active torsions:
REMARK  status: ('A' for Active; 'I' for Inactive)
REMARK    1  A    between atoms: C_1  and  O_2
REMARK    2  A    between atoms: O_2  and  C_3
REMARK    3  A    between atoms: C_6  and  C_7
REMARK    4  A    between atoms: C_9  and  N_10
REMARK    5  A    between atoms: C_11  and  C_13
REMARK    6  A    between atoms: C_18  and  C_20
REMARK                            x       y       z     vdW  Elec       q    Type
REMARK                         _______ _______ _______ _____ _____    ______ ____
ROOT
ATOM      1  N   UNL     1      -1.152  10.183  18.592  0.00  0.00    +0.000 N 
ATOM      2  C   UNL     1      -0.119  11.030  19.003  0.00  0.00    +0.000 C 
ATOM      3  O   UNL     1       0.059  12.187  18.625  0.00  0.00    +0.000 OA
ATOM      4  H   UNL     1      -1.179   9.228  18.929  0.00  0.00    +0.000 HD
ENDROOT
BRANCH   1  11
ATOM      5  C   UNL     1      -3.292  11.346  18.254  0.00  0.00    +0.000 A 
ATOM      6  C   UNL     1      -4.326  11.765  17.397  0.00  0.00    +0.000 A 
ATOM      7  C   UNL     1      -4.360  11.355  16.064  0.00  0.00    +0.000 A 
ATOM      8  C   UNL     1      -3.372  10.512  15.571  0.00  0.00    +0.000 A 
ATOM      9  C   UNL     1      -3.387  10.035  14.150  0.00  0.00    +0.000 C 
ATOM     10  C   UNL     1      -2.328  10.109  16.418  0.00  0.00    +0.000 A 
ATOM     11  C   UNL     1      -2.254  10.529  17.748  0.00  0.00    +0.000 A 
BRANCH   5  13
ATOM     12  C   UNL     1      -4.209  12.663  20.009  0.00  0.00    +0.000 C 
ATOM     13  O   UNL     1      -3.229  11.711  19.583  0.00  0.00    +0.000 OA
ENDBRANCH   5  13
ENDBRANCH   1  11
BRANCH   2  14
ATOM     14  C   UNL     1       0.812  10.421  20.074  0.00  0.00    +0.000 C 
ATOM     15  C   UNL     1       1.188   9.014  19.571  0.00  0.00    +0.000 C 
ATOM     16  C   UNL     1       1.621   8.260  20.815  0.00  0.00    +0.000 C 
ATOM     17  C   UNL     1       0.783   8.861  21.928  0.00  0.00    +0.000 C 
ATOM     18  N   UNL     1       0.262  10.122  21.411  0.00  0.00    +0.000 N 
ATOM     19  C   UNL     1      -0.419  10.933  22.312  0.00  0.00    +0.000 C 
ATOM     20  O   UNL     1      -0.611  10.523  23.470  0.00  0.00    +0.000 OA
BRANCH  19  21
ATOM     21  C   UNL     1      -0.960  12.315  21.871  0.00  0.00    +0.000 C 
ATOM     22  C   UNL     1       0.076  13.488  21.923  0.00  0.00    +0.000 C 
ATOM     23  C   UNL     1      -0.959  14.287  22.715  0.00  0.00    +0.000 C 
ATOM     24  O   UNL     1      -1.050  15.454  23.031  0.00  0.00    +0.000 OA
ATOM     25  C   UNL     1      -1.851  13.061  22.918  0.00  0.00    +0.000 C 
ENDBRANCH  19  21
ENDBRANCH   2  14
TORSDOF 4
ENDMDL
MODEL 9
REMARK VINA RESULT:      -6.3      8.822     11.267
REMARK  Name = 
REMARK  6 active torsions:
REMARK  status: ('A' for Active; 'I' for Inactive)
REMARK    1  A    between atoms: C_1  and  O_2
REMARK    2  A    between atoms: O_2  and  C_3
REMARK    3  A    between atoms: C_6  and  C_7
REMARK    4  A    between atoms: C_9  and  N_10
REMARK    5  A    between atoms: C_11  and  C_13
REMARK    6  A    between atoms: C_18  and  C_20
REMARK                            x       y       z     vdW  Elec       q    Type
REMARK                         _______ _______ _______ _____ _____    ______ ____
ROOT
ATOM      1  N   UNL     1      -1.703  10.758  18.465  0.00  0.00    +0.000 N 
ATOM      2  C   UNL     1      -0.528  11.511  18.554  0.00  0.00    +0.000 C 
ATOM      3  O   UNL     1      -0.395  12.682  18.207  0.00  0.00    +0.000 OA
ATOM      4  H   UNL     1      -1.692   9.781  18.735  0.00  0.00    +0.000 HD
ENDROOT
BRANCH   1  11
ATOM      5  C   UNL     1      -3.409  11.066  16.722  0.00  0.00    +0.000 A 
ATOM      6  C   UNL     1      -4.712  11.444  16.350  0.00  0.00    +0.000 A 
ATOM      7  C   UNL     1      -5.585  12.014  17.279  0.00  0.00    +0.000 A 
ATOM      8  C   UNL     1      -5.166  12.226  18.586  0.00  0.00    +0.000 A 
ATOM      9  C   UNL     1      -6.067  12.854  19.605  0.00  0.00    +0.000 C 
ATOM     10  C   UNL     1      -3.873  11.831  18.965  0.00  0.00    +0.000 A 
ATOM     11  C   UNL     1      -2.991  11.232  18.063  0.00  0.00    +0.000 A 
BRANCH   5  13
ATOM     12  C   UNL     1      -3.043  10.154  14.557  0.00  0.00    +0.000 C 
ATOM     13  O   UNL     1      -2.508  10.517  15.834  0.00  0.00    +0.000 OA
ENDBRANCH   5  13
ENDBRANCH   1  11
BRANCH   2  14
ATOM     14  C   UNL     1       0.655  10.766  19.212  0.00  0.00    +0.000 C 
ATOM     15  C   UNL     1       1.076   9.664  18.222  0.00  0.00    +0.000 C 
ATOM     16  C   UNL     1       1.822   8.647  19.067  0.00  0.00    +0.000 C 
ATOM     17  C   UNL     1       1.156   8.730  20.427  0.00  0.00    +0.000 C 
ATOM     18  N   UNL     1       0.410   9.984  20.440  0.00  0.00    +0.000 N 
ATOM     19  C   UNL     1      -0.167  10.355  21.650  0.00  0.00    +0.000 C 
ATOM     20  O   UNL     1      -0.085   9.584  22.621  0.00  0.00    +0.000 OA
BRANCH  19  21
ATOM     21  C   UNL     1      -0.931  11.695  21.777  0.00  0.00    +0.000 C 
ATOM     22  C   UNL     1      -0.032  12.964  21.964  0.00  0.00    +0.000 C 
ATOM     23  C   UNL     1      -0.907  13.332  23.163  0.00  0.00    +0.000 C 
ATOM     24  O   UNL     1      -1.027  14.337  23.832  0.00  0.00    +0.000 OA
ATOM     25  C   UNL     1      -1.598  11.968  23.165  0.00  0.00    +0.000 C 
ENDBRANCH  19  21
ENDBRANCH   2  14
TORSDOF 4
ENDMDL
