MODEL 1
REMARK VINA RESULT:      -7.6      0.000      0.000
REMARK  Name = 
REMARK  4 active torsions:
REMARK  status: ('A' for Active; 'I' for Inactive)
REMARK    1  A    between atoms: C_2  and  C_3
REMARK    2  A    between atoms: C_5  and  C_6
REMARK    3  A    between atoms: C_12  and  N_13
REMARK    4  A    between atoms: N_16  and  C_17
REMARK                            x       y       z     vdW  Elec       q    Type
REMARK                         _______ _______ _______ _____ _____    ______ ____
ROOT
ATOM      1  C   UNL     1       6.543   5.358  17.654  0.00  0.00    +0.000 A 
ATOM      2  N   UNL     1       7.176   4.821  16.556  0.00  0.00    +0.000 NA
ATOM      3  C   UNL     1       6.323   5.027  15.568  0.00  0.00    +0.000 A 
ATOM      4  O   UNL     1       5.167   5.655  15.964  0.00  0.00    +0.000 OA
ATOM      5  C   UNL     1       5.305   5.865  17.311  0.00  0.00    +0.000 A 
ENDROOT
BRANCH   5   6
ATOM      6  N   UNL     1       4.300   6.523  17.951  0.00  0.00    +0.000 N 
ATOM      7  C   UNL     1       3.899   7.892  17.583  0.00  0.00    +0.000 C 
ATOM      8  C   UNL     1       2.375   8.073  17.747  0.00  0.00    +0.000 C 
ATOM      9  N   UNL     1       1.918   7.643  19.080  0.00  0.00    +0.000 N 
ATOM     10  C   UNL     1       2.374   6.303  19.499  0.00  0.00    +0.000 C 
ATOM     11  C   UNL     1       3.907   6.155  19.326  0.00  0.00    +0.000 C 
BRANCH   9  12
ATOM     12  C   UNL     1       1.357   8.511  19.995  0.00  0.00    +0.000 A 
ATOM     13  C   UNL     1       1.271   8.162  21.353  0.00  0.00    +0.000 A 
ATOM     14  C   UNL     1       0.697   9.015  22.300  0.00  0.00    +0.000 A 
ATOM     15  C   UNL     1       0.191  10.248  21.907  0.00  0.00    +0.000 A 
ATOM     16  C   UNL     1       0.259  10.620  20.569  0.00  0.00    +0.000 A 
ATOM     17  C   UNL     1       0.832   9.757  19.627  0.00  0.00    +0.000 A 
ENDBRANCH   9  12
ENDBRANCH   5   6
BRANCH   3  18
ATOM     18  C   UNL     1       6.597   4.661  14.208  0.00  0.00    +0.000 A 
ATOM     19  C   UNL     1       6.009   3.652  13.460  0.00  0.00    +0.000 A 
ATOM     20  C   UNL     1       6.626   3.658  12.186  0.00  0.00    +0.000 A 
ATOM     21  C   UNL     1       7.548   4.674  12.219  0.00  0.00    +0.000 A 
ATOM     22  O   UNL     1       7.539   5.286  13.431  0.00  0.00    +0.000 OA
ENDBRANCH   3  18
BRANCH   1  24
ATOM     23  N   UNL     1       7.703   5.425  19.965  0.00  0.00    +0.000 NA
ATOM     24  C   UNL     1       7.197   5.405  18.919  0.00  0.00    +0.000 C 
ENDBRANCH   1  24
TORSDOF 4
ENDMDL
MODEL 2
REMARK VINA RESULT:      -7.5      2.258      8.309
REMARK  Name = 
REMARK  4 active torsions:
REMARK  status: ('A' for Active; 'I' for Inactive)
REMARK    1  A    between atoms: C_2  and  C_3
REMARK    2  A    between atoms: C_5  and  C_6
REMARK    3  A    between atoms: C_12  and  N_13
REMARK    4  A    between atoms: N_16  and  C_17
REMARK                            x       y       z     vdW  Elec       q    Type
REMARK                         _______ _______ _______ _____ _____    ______ ____
ROOT
ATOM      1  C   UNL     1       2.735   5.199  19.892  0.00  0.00    +0.000 A 
ATOM      2  N   UNL     1       1.953   6.037  20.654  0.00  0.00    +0.000 NA
ATOM      3  C   UNL     1       2.070   7.209  20.054  0.00  0.00    +0.000 A 
ATOM      4  O   UNL     1       2.894   7.183  18.955  0.00  0.00    +0.000 OA
ATOM      5  C   UNL     1       3.328   5.887  18.851  0.00  0.00    +0.000 A 
ENDROOT
BRANCH   5   6
ATOM      6  N   UNL     1       4.135   5.576  17.801  0.00  0.00    +0.000 N 
ATOM      7  C   UNL     1       4.868   6.606  17.042  0.00  0.00    +0.000 C 
ATOM      8  C   UNL     1       6.241   6.068  16.586  0.00  0.00    +0.000 C 
ATOM      9  N   UNL     1       6.113   4.777  15.890  0.00  0.00    +0.000 N 
ATOM     10  C   UNL     1       5.317   3.756  16.600  0.00  0.00    +0.000 C 
ATOM     11  C   UNL     1       3.945   4.325  17.040  0.00  0.00    +0.000 C 
BRANCH   9  12
ATOM     12  C   UNL     1       6.450   4.605  14.562  0.00  0.00    +0.000 A 
ATOM     13  C   UNL     1       5.774   3.665  13.767  0.00  0.00    +0.000 A 
ATOM     14  C   UNL     1       6.102   3.461  12.424  0.00  0.00    +0.000 A 
ATOM     15  C   UNL     1       7.124   4.197  11.840  0.00  0.00    +0.000 A 
ATOM     16  C   UNL     1       7.815   5.133  12.603  0.00  0.00    +0.000 A 
ATOM     17  C   UNL     1       7.482   5.328  13.948  0.00  0.00    +0.000 A 
ENDBRANCH   9  12
ENDBRANCH   5   6
BRANCH   3  18
ATOM     18  C   UNL     1       1.375   8.386  20.492  0.00  0.00    +0.000 A 
ATOM     19  C   UNL     1       0.951   8.701  21.774  0.00  0.00    +0.000 A 
ATOM     20  C   UNL     1       0.289   9.950  21.704  0.00  0.00    +0.000 A 
ATOM     21  C   UNL     1       0.352  10.336  20.388  0.00  0.00    +0.000 A 
ATOM     22  O   UNL     1       1.004   9.403  19.649  0.00  0.00    +0.000 OA
ENDBRANCH   3  18
BRANCH   1  24
ATOM     23  N   UNL     1       2.844   2.675  20.444  0.00  0.00    +0.000 NA
ATOM     24  C   UNL     1       2.796   3.804  20.177  0.00  0.00    +0.000 C 
ENDBRANCH   1  24
TORSDOF 4
ENDMDL
MODEL 3
REMARK VINA RESULT:      -7.4      2.376      8.342
REMARK  Name = 
REMARK  4 active torsions:
REMARK  status: ('A' for Active; 'I' for Inactive)
REMARK    1  A    between atoms: C_2  and  C_3
REMARK    2  A    between atoms: C_5  and  C_6
REMARK    3  A    between atoms: C_12  and  N_13
REMARK    4  A    between atoms: N_16  and  C_17
REMARK                            x       y       z     vdW  Elec       q    Type
REMARK                         _______ _______ _______ _____ _____    ______ ____
ROOT
ATOM      1  C   UNL     1       2.588   5.325  20.015  0.00  0.00    +0.000 A 
ATOM      2  N   UNL     1       1.813   6.193  20.751  0.00  0.00    +0.000 NA
ATOM      3  C   UNL     1       1.942   7.345  20.116  0.00  0.00    +0.000 A 
ATOM      4  O   UNL     1       2.767   7.279  19.020  0.00  0.00    +0.000 OA
ATOM      5  C   UNL     1       3.189   5.976  18.955  0.00  0.00    +0.000 A 
ENDROOT
BRANCH   5   6
ATOM      6  N   UNL     1       3.995   5.627  17.917  0.00  0.00    +0.000 N 
ATOM      7  C   UNL     1       4.770   6.623  17.154  0.00  0.00    +0.000 C 
ATOM      8  C   UNL     1       6.127   6.035  16.717  0.00  0.00    +0.000 C 
ATOM      9  N   UNL     1       5.963   4.741  16.033  0.00  0.00    +0.000 N 
ATOM     10  C   UNL     1       5.126   3.755  16.747  0.00  0.00    +0.000 C 
ATOM     11  C   UNL     1       3.771   4.375  17.168  0.00  0.00    +0.000 C 
BRANCH   9  12
ATOM     12  C   UNL     1       6.306   4.543  14.711  0.00  0.00    +0.000 A 
ATOM     13  C   UNL     1       7.384   5.238  14.138  0.00  0.00    +0.000 A 
ATOM     14  C   UNL     1       7.746   5.067  12.800  0.00  0.00    +0.000 A 
ATOM     15  C   UNL     1       7.033   4.188  11.995  0.00  0.00    +0.000 A 
ATOM     16  C   UNL     1       5.958   3.488  12.532  0.00  0.00    +0.000 A 
ATOM     17  C   UNL     1       5.599   3.669  13.873  0.00  0.00    +0.000 A 
ENDBRANCH   9  12
ENDBRANCH   5   6
BRANCH   3  18
ATOM     18  C   UNL     1       1.257   8.541  20.517  0.00  0.00    +0.000 A 
ATOM     19  C   UNL     1       0.765   9.556  19.710  0.00  0.00    +0.000 A 
ATOM     20  C   UNL     1       0.197  10.533  20.561  0.00  0.00    +0.000 A 
ATOM     21  C   UNL     1       0.362  10.061  21.839  0.00  0.00    +0.000 A 
ATOM     22  O   UNL     1       0.998   8.862  21.826  0.00  0.00    +0.000 OA
ENDBRANCH   3  18
BRANCH   1  24
ATOM     23  N   UNL     1       2.699   2.817  20.635  0.00  0.00    +0.000 NA
ATOM     24  C   UNL     1       2.637   3.939  20.342  0.00  0.00    +0.000 C 
ENDBRANCH   1  24
TORSDOF 4
ENDMDL
MODEL 4
REMARK VINA RESULT:      -7.4      0.610      1.263
REMARK  Name = 
REMARK  4 active torsions:
REMARK  status: ('A' for Active; 'I' for Inactive)
REMARK    1  A    between atoms: C_2  and  C_3
REMARK    2  A    between atoms: C_5  and  C_6
REMARK    3  A    between atoms: C_12  and  N_13
REMARK    4  A    between atoms: N_16  and  C_17
REMARK                            x       y       z     vdW  Elec       q    Type
REMARK                         _______ _______ _______ _____ _____    ______ ____
ROOT
ATOM      1  C   UNL     1       6.655   5.264  17.482  0.00  0.00    +0.000 A 
ATOM      2  N   UNL     1       7.254   4.704  16.377  0.00  0.00    +0.000 NA
ATOM      3  C   UNL     1       6.357   4.861  15.418  0.00  0.00    +0.000 A 
ATOM      4  O   UNL     1       5.205   5.477  15.841  0.00  0.00    +0.000 OA
ATOM      5  C   UNL     1       5.393   5.735  17.174  0.00  0.00    +0.000 A 
ENDROOT
BRANCH   5   6
ATOM      6  N   UNL     1       4.401   6.392  17.834  0.00  0.00    +0.000 N 
ATOM      7  C   UNL     1       3.999   7.766  17.480  0.00  0.00    +0.000 C 
ATOM      8  C   UNL     1       2.479   7.951  17.669  0.00  0.00    +0.000 C 
ATOM      9  N   UNL     1       2.041   7.516  19.006  0.00  0.00    +0.000 N 
ATOM     10  C   UNL     1       2.498   6.171  19.410  0.00  0.00    +0.000 C 
ATOM     11  C   UNL     1       4.027   6.018  19.212  0.00  0.00    +0.000 C 
BRANCH   9  12
ATOM     12  C   UNL     1       1.498   8.380  19.935  0.00  0.00    +0.000 A 
ATOM     13  C   UNL     1       0.946   9.608  19.535  0.00  0.00    +0.000 A 
ATOM     14  C   UNL     1       0.401  10.507  20.455  0.00  0.00    +0.000 A 
ATOM     15  C   UNL     1       0.395  10.198  21.809  0.00  0.00    +0.000 A 
ATOM     16  C   UNL     1       0.939   8.991  22.237  0.00  0.00    +0.000 A 
ATOM     17  C   UNL     1       1.486   8.098  21.308  0.00  0.00    +0.000 A 
ENDBRANCH   9  12
ENDBRANCH   5   6
BRANCH   3  18
ATOM     18  C   UNL     1       6.583   4.455  14.061  0.00  0.00    +0.000 A 
ATOM     19  C   UNL     1       7.509   4.962  13.160  0.00  0.00    +0.000 A 
ATOM     20  C   UNL     1       7.335   4.264  11.941  0.00  0.00    +0.000 A 
ATOM     21  C   UNL     1       6.323   3.364  12.163  0.00  0.00    +0.000 A 
ATOM     22  O   UNL     1       5.863   3.469  13.435  0.00  0.00    +0.000 OA
ENDBRANCH   3  18
BRANCH   1  24
ATOM     23  N   UNL     1       7.930   5.486  19.721  0.00  0.00    +0.000 NA
ATOM     24  C   UNL     1       7.358   5.366  18.717  0.00  0.00    +0.000 C 
ENDBRANCH   1  24
TORSDOF 4
ENDMDL
MODEL 5
REMARK VINA RESULT:      -7.0      4.765      8.487
REMARK  Name = 
REMARK  4 active torsions:
REMARK  status: ('A' for Active; 'I' for Inactive)
REMARK    1  A    between atoms: C_2  and  C_3
REMARK    2  A    between atoms: C_5  and  C_6
REMARK    3  A    between atoms: C_12  and  N_13
REMARK    4  A    between atoms: N_16  and  C_17
REMARK                            x       y       z     vdW  Elec       q    Type
REMARK                         _______ _______ _______ _____ _____    ______ ____
ROOT
ATOM      1  C   UNL     1      -0.003  11.946  18.679  0.00  0.00    +0.000 A 
ATOM      2  N   UNL     1       0.359  13.265  18.527  0.00  0.00    +0.000 NA
ATOM      3  C   UNL     1       1.680  13.233  18.547  0.00  0.00    +0.000 A 
ATOM      4  O   UNL     1       2.196  11.971  18.719  0.00  0.00    +0.000 OA
ATOM      5  C   UNL     1       1.111  11.139  18.808  0.00  0.00    +0.000 A 
ENDROOT
BRANCH   5   6
ATOM      6  N   UNL     1       1.349   9.806  18.938  0.00  0.00    +0.000 N 
ATOM      7  C   UNL     1       1.667   8.949  17.782  0.00  0.00    +0.000 C 
ATOM      8  C   UNL     1       2.677   7.853  18.181  0.00  0.00    +0.000 C 
ATOM      9  N   UNL     1       2.235   7.118  19.378  0.00  0.00    +0.000 N 
ATOM     10  C   UNL     1       1.839   7.962  20.523  0.00  0.00    +0.000 C 
ATOM     11  C   UNL     1       0.823   9.048  20.091  0.00  0.00    +0.000 C 
BRANCH   9  12
ATOM     12  C   UNL     1       1.930   5.772  19.362  0.00  0.00    +0.000 A 
ATOM     13  C   UNL     1       2.003   5.035  18.168  0.00  0.00    +0.000 A 
ATOM     14  C   UNL     1       1.689   3.674  18.119  0.00  0.00    +0.000 A 
ATOM     15  C   UNL     1       1.289   3.012  19.273  0.00  0.00    +0.000 A 
ATOM     16  C   UNL     1       1.203   3.716  20.470  0.00  0.00    +0.000 A 
ATOM     17  C   UNL     1       1.516   5.080  20.508  0.00  0.00    +0.000 A 
ENDBRANCH   9  12
ENDBRANCH   5   6
BRANCH   3  18
ATOM     18  C   UNL     1       2.495  14.401  18.372  0.00  0.00    +0.000 A 
ATOM     19  C   UNL     1       2.108  15.731  18.443  0.00  0.00    +0.000 A 
ATOM     20  C   UNL     1       3.252  16.518  18.174  0.00  0.00    +0.000 A 
ATOM     21  C   UNL     1       4.278  15.631  17.962  0.00  0.00    +0.000 A 
ATOM     22  O   UNL     1       3.834  14.353  18.080  0.00  0.00    +0.000 OA
ENDBRANCH   3  18
BRANCH   1  24
ATOM     23  N   UNL     1      -2.488  11.242  18.535  0.00  0.00    +0.000 NA
ATOM     24  C   UNL     1      -1.373  11.557  18.620  0.00  0.00    +0.000 C 
ENDBRANCH   1  24
TORSDOF 4
ENDMDL
MODEL 6
REMARK VINA RESULT:      -7.0      2.403      8.323
REMARK  Name = 
REMARK  4 active torsions:
REMARK  status: ('A' for Active; 'I' for Inactive)
REMARK    1  A    between atoms: C_2  and  C_3
REMARK    2  A    between atoms: C_5  and  C_6
REMARK    3  A    between atoms: C_12  and  N_13
REMARK    4  A    between atoms: N_16  and  C_17
REMARK                            x       y       z     vdW  Elec       q    Type
REMARK                         _______ _______ _______ _____ _____    ______ ____
ROOT
ATOM      1  C   UNL     1       2.277   6.016  20.209  0.00  0.00    +0.000 A 
ATOM      2  N   UNL     1       1.482   6.947  20.839  0.00  0.00    +0.000 NA
ATOM      3  C   UNL     1       1.595   8.023  20.079  0.00  0.00    +0.000 A 
ATOM      4  O   UNL     1       2.429   7.848  19.001  0.00  0.00    +0.000 OA
ATOM      5  C   UNL     1       2.874   6.554  19.086  0.00  0.00    +0.000 A 
ENDROOT
BRANCH   5   6
ATOM      6  N   UNL     1       3.692   6.105  18.096  0.00  0.00    +0.000 N 
ATOM      7  C   UNL     1       4.507   7.019  17.275  0.00  0.00    +0.000 C 
ATOM      8  C   UNL     1       5.859   6.367  16.917  0.00  0.00    +0.000 C 
ATOM      9  N   UNL     1       5.676   5.027  16.335  0.00  0.00    +0.000 N 
ATOM     10  C   UNL     1       4.801   4.120  17.104  0.00  0.00    +0.000 C 
ATOM     11  C   UNL     1       3.452   4.802  17.444  0.00  0.00    +0.000 C 
BRANCH   9  12
ATOM     12  C   UNL     1       6.043   4.716  15.041  0.00  0.00    +0.000 A 
ATOM     13  C   UNL     1       5.255   3.853  14.261  0.00  0.00    +0.000 A 
ATOM     14  C   UNL     1       5.608   3.511  12.952  0.00  0.00    +0.000 A 
ATOM     15  C   UNL     1       6.767   4.028  12.388  0.00  0.00    +0.000 A 
ATOM     16  C   UNL     1       7.570   4.883  13.137  0.00  0.00    +0.000 A 
ATOM     17  C   UNL     1       7.211   5.216  14.448  0.00  0.00    +0.000 A 
ENDBRANCH   9  12
ENDBRANCH   5   6
BRANCH   3  18
ATOM     18  C   UNL     1       0.887   9.243  20.340  0.00  0.00    +0.000 A 
ATOM     19  C   UNL     1       0.129   9.997  19.456  0.00  0.00    +0.000 A 
ATOM     20  C   UNL     1      -0.347  11.125  20.165  0.00  0.00    +0.000 A 
ATOM     21  C   UNL     1       0.135  10.997  21.444  0.00  0.00    +0.000 A 
ATOM     22  O   UNL     1       0.878   9.867  21.562  0.00  0.00    +0.000 OA
ENDBRANCH   3  18
BRANCH   1  24
ATOM     23  N   UNL     1       2.369   3.581  21.076  0.00  0.00    +0.000 NA
ATOM     24  C   UNL     1       2.347   4.676  20.690  0.00  0.00    +0.000 C 
ENDBRANCH   1  24
TORSDOF 4
ENDMDL
MODEL 7
REMARK VINA RESULT:      -7.0      4.779      8.591
REMARK  Name = 
REMARK  4 active torsions:
REMARK  status: ('A' for Active; 'I' for Inactive)
REMARK    1  A    between atoms: C_2  and  C_3
REMARK    2  A    between atoms: C_5  and  C_6
REMARK    3  A    between atoms: C_12  and  N_13
REMARK    4  A    between atoms: N_16  and  C_17
REMARK                            x       y       z     vdW  Elec       q    Type
REMARK                         _______ _______ _______ _____ _____    ______ ____
ROOT
ATOM      1  C   UNL     1      -0.132  11.990  18.634  0.00  0.00    +0.000 A 
ATOM      2  N   UNL     1       0.193  13.321  18.503  0.00  0.00    +0.000 NA
ATOM      3  C   UNL     1       1.513  13.330  18.573  0.00  0.00    +0.000 A 
ATOM      4  O   UNL     1       2.062  12.084  18.757  0.00  0.00    +0.000 OA
ATOM      5  C   UNL     1       1.001  11.218  18.801  0.00  0.00    +0.000 A 
ENDROOT
BRANCH   5   6
ATOM      6  N   UNL     1       1.277   9.892  18.932  0.00  0.00    +0.000 N 
ATOM      7  C   UNL     1       1.624   9.044  17.778  0.00  0.00    +0.000 C 
ATOM      8  C   UNL     1       2.663   7.977  18.182  0.00  0.00    +0.000 C 
ATOM      9  N   UNL     1       2.236   7.230  19.377  0.00  0.00    +0.000 N 
ATOM     10  C   UNL     1       1.811   8.063  20.520  0.00  0.00    +0.000 C 
ATOM     11  C   UNL     1       0.766   9.120  20.082  0.00  0.00    +0.000 C 
BRANCH   9  12
ATOM     12  C   UNL     1       1.970   5.876  19.359  0.00  0.00    +0.000 A 
ATOM     13  C   UNL     1       1.589   5.205  20.533  0.00  0.00    +0.000 A 
ATOM     14  C   UNL     1       1.325   3.832  20.547  0.00  0.00    +0.000 A 
ATOM     15  C   UNL     1       1.438   3.092  19.377  0.00  0.00    +0.000 A 
ATOM     16  C   UNL     1       1.817   3.728  18.200  0.00  0.00    +0.000 A 
ATOM     17  C   UNL     1       2.083   5.102  18.196  0.00  0.00    +0.000 A 
ENDBRANCH   9  12
ENDBRANCH   5   6
BRANCH   3  18
ATOM     18  C   UNL     1       2.296  14.525  18.436  0.00  0.00    +0.000 A 
ATOM     19  C   UNL     1       3.643  14.633  18.125  0.00  0.00    +0.000 A 
ATOM     20  C   UNL     1       3.968  16.011  18.132  0.00  0.00    +0.000 A 
ATOM     21  C   UNL     1       2.803  16.671  18.435  0.00  0.00    +0.000 A 
ATOM     22  O   UNL     1       1.789  15.787  18.620  0.00  0.00    +0.000 OA
ENDBRANCH   3  18
BRANCH   1  24
ATOM     23  N   UNL     1      -2.598  11.240  18.418  0.00  0.00    +0.000 NA
ATOM     24  C   UNL     1      -1.486  11.558  18.520  0.00  0.00    +0.000 C 
ENDBRANCH   1  24
TORSDOF 4
ENDMDL
MODEL 8
REMARK VINA RESULT:      -6.8      2.187      3.646
REMARK  Name = 
REMARK  4 active torsions:
REMARK  status: ('A' for Active; 'I' for Inactive)
REMARK    1  A    between atoms: C_2  and  C_3
REMARK    2  A    between atoms: C_5  and  C_6
REMARK    3  A    between atoms: C_12  and  N_13
REMARK    4  A    between atoms: N_16  and  C_17
REMARK                            x       y       z     vdW  Elec       q    Type
REMARK                         _______ _______ _______ _____ _____    ______ ____
ROOT
ATOM      1  C   UNL     1       2.473   5.257  18.813  0.00  0.00    +0.000 A 
ATOM      2  N   UNL     1       3.395   4.539  18.088  0.00  0.00    +0.000 NA
ATOM      3  C   UNL     1       4.090   5.467  17.453  0.00  0.00    +0.000 A 
ATOM      4  O   UNL     1       3.661   6.746  17.712  0.00  0.00    +0.000 OA
ATOM      5  C   UNL     1       2.614   6.613  18.587  0.00  0.00    +0.000 A 
ENDROOT
BRANCH   5   6
ATOM      6  N   UNL     1       2.029   7.752  19.046  0.00  0.00    +0.000 N 
ATOM      7  C   UNL     1       2.013   8.999  18.259  0.00  0.00    +0.000 C 
ATOM      8  C   UNL     1       0.696   9.769  18.491  0.00  0.00    +0.000 C 
ATOM      9  N   UNL     1       0.421   9.953  19.926  0.00  0.00    +0.000 N 
ATOM     10  C   UNL     1       0.507   8.727  20.745  0.00  0.00    +0.000 C 
ATOM     11  C   UNL     1       1.841   7.981  20.493  0.00  0.00    +0.000 C 
BRANCH   9  12
ATOM     12  C   UNL     1       0.371  11.195  20.526  0.00  0.00    +0.000 A 
ATOM     13  C   UNL     1       1.223  12.229  20.105  0.00  0.00    +0.000 A 
ATOM     14  C   UNL     1       1.203  13.493  20.702  0.00  0.00    +0.000 A 
ATOM     15  C   UNL     1       0.324  13.754  21.745  0.00  0.00    +0.000 A 
ATOM     16  C   UNL     1      -0.530  12.748  22.187  0.00  0.00    +0.000 A 
ATOM     17  C   UNL     1      -0.500  11.485  21.585  0.00  0.00    +0.000 A 
ENDBRANCH   9  12
ENDBRANCH   5   6
BRANCH   3  18
ATOM     18  C   UNL     1       5.205   5.166  16.601  0.00  0.00    +0.000 A 
ATOM     19  C   UNL     1       5.319   5.378  15.235  0.00  0.00    +0.000 A 
ATOM     20  C   UNL     1       6.589   4.894  14.839  0.00  0.00    +0.000 A 
ATOM     21  C   UNL     1       7.185   4.422  15.981  0.00  0.00    +0.000 A 
ATOM     22  O   UNL     1       6.362   4.581  17.049  0.00  0.00    +0.000 OA
ENDBRANCH   3  18
BRANCH   1  24
ATOM     23  N   UNL     1       0.868   4.032  20.430  0.00  0.00    +0.000 NA
ATOM     24  C   UNL     1       1.582   4.600  19.710  0.00  0.00    +0.000 C 
ENDBRANCH   1  24
TORSDOF 4
ENDMDL
MODEL 9
REMARK VINA RESULT:      -6.8      2.477      8.403
REMARK  Name = 
REMARK  4 active torsions:
REMARK  status: ('A' for Active; 'I' for Inactive)
REMARK    1  A    between atoms: C_2  and  C_3
REMARK    2  A    between atoms: C_5  and  C_6
REMARK    3  A    between atoms: C_12  and  N_13
REMARK    4  A    between atoms: N_16  and  C_17
REMARK                            x       y       z     vdW  Elec       q    Type
REMARK                         _______ _______ _______ _____ _____    ______ ____
ROOT
ATOM      1  C   UNL     1       1.870   5.722  20.456  0.00  0.00    +0.000 A 
ATOM      2  N   UNL     1       1.134   6.630  21.182  0.00  0.00    +0.000 NA
ATOM      3  C   UNL     1       1.435   7.793  20.631  0.00  0.00    +0.000 A 
ATOM      4  O   UNL     1       2.336   7.694  19.598  0.00  0.00    +0.000 OA
ATOM      5  C   UNL     1       2.621   6.358  19.486  0.00  0.00    +0.000 A 
ENDROOT
BRANCH   5   6
ATOM      6  N   UNL     1       3.467   5.977  18.491  0.00  0.00    +0.000 N 
ATOM      7  C   UNL     1       4.097   6.950  17.580  0.00  0.00    +0.000 C 
ATOM      8  C   UNL     1       5.522   6.496  17.204  0.00  0.00    +0.000 C 
ATOM      9  N   UNL     1       5.538   5.107  16.714  0.00  0.00    +0.000 N 
ATOM     10  C   UNL     1       4.845   4.129  17.576  0.00  0.00    +0.000 C 
ATOM     11  C   UNL     1       3.417   4.611  17.932  0.00  0.00    +0.000 C 
BRANCH   9  12
ATOM     12  C   UNL     1       5.905   4.771  15.426  0.00  0.00    +0.000 A 
ATOM     13  C   UNL     1       7.148   5.170  14.908  0.00  0.00    +0.000 A 
ATOM     14  C   UNL     1       7.541   4.854  13.605  0.00  0.00    +0.000 A 
ATOM     15  C   UNL     1       6.693   4.126  12.781  0.00  0.00    +0.000 A 
ATOM     16  C   UNL     1       5.453   3.720  13.264  0.00  0.00    +0.000 A 
ATOM     17  C   UNL     1       5.066   4.044  14.570  0.00  0.00    +0.000 A 
ENDBRANCH   9  12
ENDBRANCH   5   6
BRANCH   3  18
ATOM     18  C   UNL     1       0.850   9.034  21.052  0.00  0.00    +0.000 A 
ATOM     19  C   UNL     1       0.124   9.289  22.206  0.00  0.00    +0.000 A 
ATOM     20  C   UNL     1      -0.267  10.649  22.166  0.00  0.00    +0.000 A 
ATOM     21  C   UNL     1       0.249  11.154  20.998  0.00  0.00    +0.000 A 
ATOM     22  O   UNL     1       0.924  10.192  20.319  0.00  0.00    +0.000 OA
ENDBRANCH   3  18
BRANCH   1  24
ATOM     23  N   UNL     1       1.646   3.190  20.933  0.00  0.00    +0.000 NA
ATOM     24  C   UNL     1       1.744   4.324  20.699  0.00  0.00    +0.000 C 
ENDBRANCH   1  24
TORSDOF 4
ENDMDL
