MODEL 1
REMARK VINA RESULT:      -7.5      0.000      0.000
REMARK  Name = 
REMARK  12 active torsions:
REMARK  status: ('A' for Active; 'I' for Inactive)
REMARK    1  A    between atoms: C_1  and  O_2
REMARK    2  A    between atoms: O_2  and  C_3
REMARK    3  A    between atoms: C_6  and  N_7
REMARK    4  A    between atoms: N_7  and  C_8
REMARK    5  A    between atoms: N_7  and  S_20
REMARK    6  A    between atoms: C_8  and  C_9
REMARK    7  A    between atoms: N_11  and  C_12
REMARK    8  A    between atoms: C_12  and  C_13
REMARK    9  A    between atoms: S_20  and  C_23
REMARK   10  A    between atoms: C_24  and  C_25
REMARK   11  A    between atoms: N_27  and  C_28
REMARK   12  A    between atoms: C_29  and  C_30
REMARK                            x       y       z     vdW  Elec       q    Type
REMARK                         _______ _______ _______ _____ _____    ______ ____
ROOT
ATOM      1  N   UNL     1      -0.388  11.238  19.914  0.00  0.00    +0.000 N 
ENDROOT
BRANCH   1   5
ATOM      2  C   UNL     1      -3.323  10.805  16.864  0.00  0.00    +0.000 A 
ATOM      3  C   UNL     1      -2.083  10.164  16.758  0.00  0.00    +0.000 A 
ATOM      4  C   UNL     1      -1.116  10.286  17.760  0.00  0.00    +0.000 A 
ATOM      5  C   UNL     1      -1.374  11.068  18.884  0.00  0.00    +0.000 A 
ATOM      6  C   UNL     1      -2.603  11.733  18.986  0.00  0.00    +0.000 A 
ATOM      7  C   UNL     1      -3.584  11.590  17.986  0.00  0.00    +0.000 A 
BRANCH   2   9
ATOM      8  C   UNL     1      -3.573  10.103  14.602  0.00  0.00    +0.000 C 
ATOM      9  O   UNL     1      -4.153  10.623  15.791  0.00  0.00    +0.000 OA
ENDBRANCH   2   9
ENDBRANCH   1   5
BRANCH   1  10
ATOM     10  S   UNL     1      -0.192  12.828  20.552  0.00  0.00    +0.000 S 
ATOM     11  O   UNL     1       0.931  12.789  21.465  0.00  0.00    +0.000 OA
ATOM     12  O   UNL     1      -0.202  13.759  19.440  0.00  0.00    +0.000 OA
BRANCH  10  13
ATOM     13  C   UNL     1      -1.531  13.352  21.546  0.00  0.00    +0.000 A 
ATOM     14  C   UNL     1      -2.219  14.604  21.557  0.00  0.00    +0.000 A 
ATOM     15  C   UNL     1      -2.110  15.835  20.733  0.00  0.00    +0.000 C 
ATOM     16  N   UNL     1      -3.134  14.644  22.537  0.00  0.00    +0.000 NA
ATOM     17  N   UNL     1      -3.006  13.481  23.184  0.00  0.00    +0.000 N 
ATOM     18  C   UNL     1      -3.817  13.249  24.357  0.00  0.00    +0.000 C 
ATOM     19  C   UNL     1      -2.073  12.650  22.623  0.00  0.00    +0.000 A 
ATOM     20  C   UNL     1      -1.743  11.312  23.183  0.00  0.00    +0.000 C 
ENDBRANCH  10  13
ENDBRANCH   1  10
BRANCH   1  21
ATOM     21  C   UNL     1       0.862  10.445  19.888  0.00  0.00    +0.000 C 
BRANCH  21  22
ATOM     22  C   UNL     1       0.901   9.043  20.467  0.00  0.00    +0.000 C 
ATOM     23  O   UNL     1       0.103   8.706  21.340  0.00  0.00    +0.000 OA
ATOM     24  N   UNL     1       1.792   8.153  19.910  0.00  0.00    +0.000 N 
ATOM     25  H   UNL     1       2.420   8.466  19.180  0.00  0.00    +0.000 HD
BRANCH  24  26
ATOM     26  C   UNL     1       1.901   6.788  20.386  0.00  0.00    +0.000 C 
BRANCH  26  27
ATOM     27  C   UNL     1       2.431   5.839  19.338  0.00  0.00    +0.000 A 
ATOM     28  C   UNL     1       3.440   6.285  18.464  0.00  0.00    +0.000 A 
ATOM     29  C   UNL     1       3.934   5.463  17.446  0.00  0.00    +0.000 A 
ATOM     30  C   UNL     1       3.432   4.176  17.288  0.00  0.00    +0.000 A 
ATOM     31  C   UNL     1       2.446   3.707  18.155  0.00  0.00    +0.000 A 
ATOM     32  C   UNL     1       1.953   4.528  19.178  0.00  0.00    +0.000 A 
ATOM     33 CL   UNL     1       0.740   3.866  20.215  0.00  0.00    +0.000 Cl
ENDBRANCH  26  27
ENDBRANCH  24  26
ENDBRANCH  21  22
ENDBRANCH   1  21
TORSDOF 8
ENDMDL
MODEL 2
REMARK VINA RESULT:      -7.4      2.123      3.004
REMARK  Name = 
REMARK  12 active torsions:
REMARK  status: ('A' for Active; 'I' for Inactive)
REMARK    1  A    between atoms: C_1  and  O_2
REMARK    2  A    between atoms: O_2  and  C_3
REMARK    3  A    between atoms: C_6  and  N_7
REMARK    4  A    between atoms: N_7  and  C_8
REMARK    5  A    between atoms: N_7  and  S_20
REMARK    6  A    between atoms: C_8  and  C_9
REMARK    7  A    between atoms: N_11  and  C_12
REMARK    8  A    between atoms: C_12  and  C_13
REMARK    9  A    between atoms: S_20  and  C_23
REMARK   10  A    between atoms: C_24  and  C_25
REMARK   11  A    between atoms: N_27  and  C_28
REMARK   12  A    between atoms: C_29  and  C_30
REMARK                            x       y       z     vdW  Elec       q    Type
REMARK                         _______ _______ _______ _____ _____    ______ ____
ROOT
ATOM      1  N   UNL     1      -0.522  10.923  20.219  0.00  0.00    +0.000 N 
ENDROOT
BRANCH   1   5
ATOM      2  C   UNL     1      -2.957  10.657  16.740  0.00  0.00    +0.000 A 
ATOM      3  C   UNL     1      -3.298  11.523  17.785  0.00  0.00    +0.000 A 
ATOM      4  C   UNL     1      -2.498  11.630  18.928  0.00  0.00    +0.000 A 
ATOM      5  C   UNL     1      -1.346  10.857  19.045  0.00  0.00    +0.000 A 
ATOM      6  C   UNL     1      -1.011   9.970  18.013  0.00  0.00    +0.000 A 
ATOM      7  C   UNL     1      -1.805   9.880  16.854  0.00  0.00    +0.000 A 
BRANCH   2   9
ATOM      8  C   UNL     1      -3.379  10.171  14.447  0.00  0.00    +0.000 C 
ATOM      9  O   UNL     1      -3.852  10.632  15.705  0.00  0.00    +0.000 OA
ENDBRANCH   2   9
ENDBRANCH   1   5
BRANCH   1  10
ATOM     10  S   UNL     1       0.911  11.877  20.115  0.00  0.00    +0.000 S 
ATOM     11  O   UNL     1       1.458  11.978  21.451  0.00  0.00    +0.000 OA
ATOM     12  O   UNL     1       1.716  11.354  19.028  0.00  0.00    +0.000 OA
BRANCH  10  13
ATOM     13  C   UNL     1       0.613  13.536  19.650  0.00  0.00    +0.000 A 
ATOM     14  C   UNL     1       1.382  14.395  18.806  0.00  0.00    +0.000 A 
ATOM     15  C   UNL     1       2.612  14.197  17.998  0.00  0.00    +0.000 C 
ATOM     16  N   UNL     1       0.862  15.632  18.774  0.00  0.00    +0.000 NA
ATOM     17  N   UNL     1      -0.174  15.599  19.617  0.00  0.00    +0.000 N 
ATOM     18  C   UNL     1      -0.906  16.820  19.861  0.00  0.00    +0.000 C 
ATOM     19  C   UNL     1      -0.390  14.360  20.160  0.00  0.00    +0.000 A 
ATOM     20  C   UNL     1      -1.474  14.087  21.141  0.00  0.00    +0.000 C 
ENDBRANCH  10  13
ENDBRANCH   1  10
BRANCH   1  21
ATOM     21  C   UNL     1      -0.393   9.746  21.108  0.00  0.00    +0.000 C 
BRANCH  21  22
ATOM     22  C   UNL     1       0.884   8.927  21.126  0.00  0.00    +0.000 C 
ATOM     23  O   UNL     1       1.531   8.803  22.166  0.00  0.00    +0.000 OA
ATOM     24  N   UNL     1       1.227   8.263  19.969  0.00  0.00    +0.000 N 
ATOM     25  H   UNL     1       0.658   8.378  19.140  0.00  0.00    +0.000 HD
BRANCH  24  26
ATOM     26  C   UNL     1       2.424   7.449  19.887  0.00  0.00    +0.000 C 
BRANCH  26  27
ATOM     27  C   UNL     1       2.127   5.989  19.646  0.00  0.00    +0.000 A 
ATOM     28  C   UNL     1       1.290   5.306  20.549  0.00  0.00    +0.000 A 
ATOM     29  C   UNL     1       1.020   3.942  20.399  0.00  0.00    +0.000 A 
ATOM     30  C   UNL     1       1.576   3.237  19.338  0.00  0.00    +0.000 A 
ATOM     31  C   UNL     1       2.392   3.897  18.421  0.00  0.00    +0.000 A 
ATOM     32  C   UNL     1       2.661   5.265  18.567  0.00  0.00    +0.000 A 
ATOM     33 CL   UNL     1       3.673   6.009  17.381  0.00  0.00    +0.000 Cl
ENDBRANCH  26  27
ENDBRANCH  24  26
ENDBRANCH  21  22
ENDBRANCH   1  21
TORSDOF 8
ENDMDL
MODEL 3
REMARK VINA RESULT:      -7.4      0.594      1.057
REMARK  Name = 
REMARK  12 active torsions:
REMARK  status: ('A' for Active; 'I' for Inactive)
REMARK    1  A    between atoms: C_1  and  O_2
REMARK    2  A    between atoms: O_2  and  C_3
REMARK    3  A    between atoms: C_6  and  N_7
REMARK    4  A    between atoms: N_7  and  C_8
REMARK    5  A    between atoms: N_7  and  S_20
REMARK    6  A    between atoms: C_8  and  C_9
REMARK    7  A    between atoms: N_11  and  C_12
REMARK    8  A    between atoms: C_12  and  C_13
REMARK    9  A    between atoms: S_20  and  C_23
REMARK   10  A    between atoms: C_24  and  C_25
REMARK   11  A    between atoms: N_27  and  C_28
REMARK   12  A    between atoms: C_29  and  C_30
REMARK                            x       y       z     vdW  Elec       q    Type
REMARK                         _______ _______ _______ _____ _____    ______ ____
ROOT
ATOM      1  N   UNL     1      -0.059  10.911  19.881  0.00  0.00    +0.000 N 
ENDROOT
BRANCH   1   5
ATOM      2  C   UNL     1      -2.998  10.614  16.819  0.00  0.00    +0.000 A 
ATOM      3  C   UNL     1      -3.196  11.456  17.921  0.00  0.00    +0.000 A 
ATOM      4  C   UNL     1      -2.231  11.573  18.926  0.00  0.00    +0.000 A 
ATOM      5  C   UNL     1      -1.053  10.835  18.849  0.00  0.00    +0.000 A 
ATOM      6  C   UNL     1      -0.858   9.972  17.762  0.00  0.00    +0.000 A 
ATOM      7  C   UNL     1      -1.820   9.873  16.739  0.00  0.00    +0.000 A 
BRANCH   2   9
ATOM      8  C   UNL     1      -3.755  10.163  14.607  0.00  0.00    +0.000 C 
ATOM      9  O   UNL     1      -4.043  10.575  15.936  0.00  0.00    +0.000 OA
ENDBRANCH   2   9
ENDBRANCH   1   5
BRANCH   1  10
ATOM     10  S   UNL     1       0.244  12.467  20.561  0.00  0.00    +0.000 S 
ATOM     11  O   UNL     1       1.314  12.315  21.523  0.00  0.00    +0.000 OA
ATOM     12  O   UNL     1       0.367  13.413  19.469  0.00  0.00    +0.000 OA
BRANCH  10  13
ATOM     13  C   UNL     1      -1.092  13.089  21.502  0.00  0.00    +0.000 A 
ATOM     14  C   UNL     1      -1.686  14.388  21.488  0.00  0.00    +0.000 A 
ATOM     15  C   UNL     1      -1.454  15.607  20.670  0.00  0.00    +0.000 C 
ATOM     16  N   UNL     1      -2.633  14.497  22.431  0.00  0.00    +0.000 NA
ATOM     17  N   UNL     1      -2.616  13.329  23.081  0.00  0.00    +0.000 N 
ATOM     18  C   UNL     1      -3.487  13.159  24.221  0.00  0.00    +0.000 C 
ATOM     19  C   UNL     1      -1.725  12.431  22.556  0.00  0.00    +0.000 A 
ATOM     20  C   UNL     1      -1.516  11.074  23.127  0.00  0.00    +0.000 C 
ENDBRANCH  10  13
ENDBRANCH   1  10
BRANCH   1  21
ATOM     21  C   UNL     1       1.136  10.037  19.833  0.00  0.00    +0.000 C 
BRANCH  21  22
ATOM     22  C   UNL     1       1.151   8.707  20.564  0.00  0.00    +0.000 C 
ATOM     23  O   UNL     1       0.545   8.571  21.626  0.00  0.00    +0.000 OA
ATOM     24  N   UNL     1       1.784   7.652  19.944  0.00  0.00    +0.000 N 
ATOM     25  H   UNL     1       2.256   7.802  19.061  0.00  0.00    +0.000 HD
BRANCH  24  26
ATOM     26  C   UNL     1       1.847   6.339  20.555  0.00  0.00    +0.000 C 
BRANCH  26  27
ATOM     27  C   UNL     1       2.236   5.254  19.580  0.00  0.00    +0.000 A 
ATOM     28  C   UNL     1       2.872   5.615  18.377  0.00  0.00    +0.000 A 
ATOM     29  C   UNL     1       3.211   4.655  17.420  0.00  0.00    +0.000 A 
ATOM     30  C   UNL     1       2.926   3.313  17.650  0.00  0.00    +0.000 A 
ATOM     31  C   UNL     1       2.314   2.931  18.842  0.00  0.00    +0.000 A 
ATOM     32  C   UNL     1       1.977   3.891  19.806  0.00  0.00    +0.000 A 
ATOM     33 CL   UNL     1       1.231   3.333  21.260  0.00  0.00    +0.000 Cl
ENDBRANCH  26  27
ENDBRANCH  24  26
ENDBRANCH  21  22
ENDBRANCH   1  21
TORSDOF 8
ENDMDL
MODEL 4
REMARK VINA RESULT:      -7.4      1.199      2.304
REMARK  Name = 
REMARK  12 active torsions:
REMARK  status: ('A' for Active; 'I' for Inactive)
REMARK    1  A    between atoms: C_1  and  O_2
REMARK    2  A    between atoms: O_2  and  C_3
REMARK    3  A    between atoms: C_6  and  N_7
REMARK    4  A    between atoms: N_7  and  C_8
REMARK    5  A    between atoms: N_7  and  S_20
REMARK    6  A    between atoms: C_8  and  C_9
REMARK    7  A    between atoms: N_11  and  C_12
REMARK    8  A    between atoms: C_12  and  C_13
REMARK    9  A    between atoms: S_20  and  C_23
REMARK   10  A    between atoms: C_24  and  C_25
REMARK   11  A    between atoms: N_27  and  C_28
REMARK   12  A    between atoms: C_29  and  C_30
REMARK                            x       y       z     vdW  Elec       q    Type
REMARK                         _______ _______ _______ _____ _____    ______ ____
ROOT
ATOM      1  N   UNL     1       0.022  10.799  19.803  0.00  0.00    +0.000 N 
ENDROOT
BRANCH   1   5
ATOM      2  C   UNL     1      -3.029  10.659  16.840  0.00  0.00    +0.000 A 
ATOM      3  C   UNL     1      -3.154  11.495  17.956  0.00  0.00    +0.000 A 
ATOM      4  C   UNL     1      -2.152  11.560  18.929  0.00  0.00    +0.000 A 
ATOM      5  C   UNL     1      -1.009  10.775  18.804  0.00  0.00    +0.000 A 
ATOM      6  C   UNL     1      -0.886   9.918  17.702  0.00  0.00    +0.000 A 
ATOM      7  C   UNL     1      -1.886   9.871  16.712  0.00  0.00    +0.000 A 
BRANCH   2   9
ATOM      8  C   UNL     1      -3.873  10.285  14.645  0.00  0.00    +0.000 C 
ATOM      9  O   UNL     1      -4.103  10.672  15.993  0.00  0.00    +0.000 OA
ENDBRANCH   2   9
ENDBRANCH   1   5
BRANCH   1  10
ATOM     10  S   UNL     1       0.422  12.336  20.476  0.00  0.00    +0.000 S 
ATOM     11  O   UNL     1       1.637  12.165  21.245  0.00  0.00    +0.000 OA
ATOM     12  O   UNL     1       0.358  13.318  19.412  0.00  0.00    +0.000 OA
BRANCH  10  13
ATOM     13  C   UNL     1      -0.745  12.911  21.644  0.00  0.00    +0.000 A 
ATOM     14  C   UNL     1      -1.396  12.204  22.701  0.00  0.00    +0.000 A 
ATOM     15  C   UNL     1      -1.284  10.817  23.221  0.00  0.00    +0.000 C 
ATOM     16  N   UNL     1      -2.298  12.982  23.318  0.00  0.00    +0.000 NA
ATOM     17  N   UNL     1      -2.282  14.137  22.648  0.00  0.00    +0.000 N 
ATOM     18  C   UNL     1      -3.214  15.173  23.031  0.00  0.00    +0.000 C 
ATOM     19  C   UNL     1      -1.353  14.166  21.641  0.00  0.00    +0.000 A 
ATOM     20  C   UNL     1      -1.168  15.340  20.747  0.00  0.00    +0.000 C 
ENDBRANCH  10  13
ENDBRANCH   1  10
BRANCH   1  21
ATOM     21  C   UNL     1       1.171   9.868  19.712  0.00  0.00    +0.000 C 
BRANCH  21  22
ATOM     22  C   UNL     1       1.194   8.587  20.526  0.00  0.00    +0.000 C 
ATOM     23  O   UNL     1       0.418   8.431  21.467  0.00  0.00    +0.000 OA
ATOM     24  N   UNL     1       2.045   7.588  20.107  0.00  0.00    +0.000 N 
ATOM     25  H   UNL     1       2.655   7.751  19.316  0.00  0.00    +0.000 HD
BRANCH  24  26
ATOM     26  C   UNL     1       2.136   6.323  20.810  0.00  0.00    +0.000 C 
BRANCH  26  27
ATOM     27  C   UNL     1       1.835   5.136  19.929  0.00  0.00    +0.000 A 
ATOM     28  C   UNL     1       1.009   4.110  20.427  0.00  0.00    +0.000 A 
ATOM     29  C   UNL     1       0.735   2.967  19.669  0.00  0.00    +0.000 A 
ATOM     30  C   UNL     1       1.278   2.831  18.396  0.00  0.00    +0.000 A 
ATOM     31  C   UNL     1       2.083   3.843  17.876  0.00  0.00    +0.000 A 
ATOM     32  C   UNL     1       2.354   4.992  18.631  0.00  0.00    +0.000 A 
ATOM     33 CL   UNL     1       3.352   6.203  17.908  0.00  0.00    +0.000 Cl
ENDBRANCH  26  27
ENDBRANCH  24  26
ENDBRANCH  21  22
ENDBRANCH   1  21
TORSDOF 8
ENDMDL
MODEL 5
REMARK VINA RESULT:      -7.4      5.082      8.721
REMARK  Name = 
REMARK  12 active torsions:
REMARK  status: ('A' for Active; 'I' for Inactive)
REMARK    1  A    between atoms: C_1  and  O_2
REMARK    2  A    between atoms: O_2  and  C_3
REMARK    3  A    between atoms: C_6  and  N_7
REMARK    4  A    between atoms: N_7  and  C_8
REMARK    5  A    between atoms: N_7  and  S_20
REMARK    6  A    between atoms: C_8  and  C_9
REMARK    7  A    between atoms: N_11  and  C_12
REMARK    8  A    between atoms: C_12  and  C_13
REMARK    9  A    between atoms: S_20  and  C_23
REMARK   10  A    between atoms: C_24  and  C_25
REMARK   11  A    between atoms: N_27  and  C_28
REMARK   12  A    between atoms: C_29  and  C_30
REMARK                            x       y       z     vdW  Elec       q    Type
REMARK                         _______ _______ _______ _____ _____    ______ ____
ROOT
ATOM      1  N   UNL     1       3.598   6.001  18.103  0.00  0.00    +0.000 N 
ENDROOT
BRANCH   1   5
ATOM      2  C   UNL     1       1.320   9.465  19.057  0.00  0.00    +0.000 A 
ATOM      3  C   UNL     1       1.562   8.481  20.023  0.00  0.00    +0.000 A 
ATOM      4  C   UNL     1       2.321   7.345  19.726  0.00  0.00    +0.000 A 
ATOM      5  C   UNL     1       2.841   7.171  18.445  0.00  0.00    +0.000 A 
ATOM      6  C   UNL     1       2.583   8.140  17.466  0.00  0.00    +0.000 A 
ATOM      7  C   UNL     1       1.838   9.294  17.774  0.00  0.00    +0.000 A 
BRANCH   2   9
ATOM      8  C   UNL     1      -0.836  10.477  19.095  0.00  0.00    +0.000 C 
ATOM      9  O   UNL     1       0.531  10.500  19.482  0.00  0.00    +0.000 OA
ENDBRANCH   2   9
ENDBRANCH   1   5
BRANCH   1  10
ATOM     10  S   UNL     1       2.703   4.573  17.731  0.00  0.00    +0.000 S 
ATOM     11  O   UNL     1       1.341   4.980  17.459  0.00  0.00    +0.000 OA
ATOM     12  O   UNL     1       3.455   3.819  16.748  0.00  0.00    +0.000 OA
BRANCH  10  13
ATOM     13  C   UNL     1       2.558   3.470  19.080  0.00  0.00    +0.000 A 
ATOM     14  C   UNL     1       3.040   2.132  19.215  0.00  0.00    +0.000 A 
ATOM     15  C   UNL     1       3.855   1.249  18.342  0.00  0.00    +0.000 C 
ATOM     16  N   UNL     1       2.640   1.589  20.374  0.00  0.00    +0.000 NA
ATOM     17  N   UNL     1       1.871   2.518  20.950  0.00  0.00    +0.000 N 
ATOM     18  C   UNL     1       1.219   2.200  22.200  0.00  0.00    +0.000 C 
ATOM     19  C   UNL     1       1.799   3.682  20.231  0.00  0.00    +0.000 A 
ATOM     20  C   UNL     1       0.985   4.849  20.664  0.00  0.00    +0.000 C 
ENDBRANCH  10  13
ENDBRANCH   1  10
BRANCH   1  21
ATOM     21  C   UNL     1       4.901   5.737  18.755  0.00  0.00    +0.000 C 
BRANCH  21  22
ATOM     22  C   UNL     1       6.130   5.415  17.925  0.00  0.00    +0.000 C 
ATOM     23  O   UNL     1       7.091   4.838  18.430  0.00  0.00    +0.000 OA
ATOM     24  N   UNL     1       6.080   5.710  16.580  0.00  0.00    +0.000 N 
ATOM     25  H   UNL     1       5.262   6.170  16.200  0.00  0.00    +0.000 HD
BRANCH  24  26
ATOM     26  C   UNL     1       7.198   5.435  15.699  0.00  0.00    +0.000 C 
BRANCH  26  27
ATOM     27  C   UNL     1       6.779   4.798  14.396  0.00  0.00    +0.000 A 
ATOM     28  C   UNL     1       5.611   4.013  14.367  0.00  0.00    +0.000 A 
ATOM     29  C   UNL     1       5.203   3.364  13.197  0.00  0.00    +0.000 A 
ATOM     30  C   UNL     1       5.953   3.493  12.033  0.00  0.00    +0.000 A 
ATOM     31  C   UNL     1       7.103   4.281  12.036  0.00  0.00    +0.000 A 
ATOM     32  C   UNL     1       7.511   4.936  13.205  0.00  0.00    +0.000 A 
ATOM     33 CL   UNL     1       8.942   5.902  13.119  0.00  0.00    +0.000 Cl
ENDBRANCH  26  27
ENDBRANCH  24  26
ENDBRANCH  21  22
ENDBRANCH   1  21
TORSDOF 8
ENDMDL
MODEL 6
REMARK VINA RESULT:      -7.4      1.601      1.857
REMARK  Name = 
REMARK  12 active torsions:
REMARK  status: ('A' for Active; 'I' for Inactive)
REMARK    1  A    between atoms: C_1  and  O_2
REMARK    2  A    between atoms: O_2  and  C_3
REMARK    3  A    between atoms: C_6  and  N_7
REMARK    4  A    between atoms: N_7  and  C_8
REMARK    5  A    between atoms: N_7  and  S_20
REMARK    6  A    between atoms: C_8  and  C_9
REMARK    7  A    between atoms: N_11  and  C_12
REMARK    8  A    between atoms: C_12  and  C_13
REMARK    9  A    between atoms: S_20  and  C_23
REMARK   10  A    between atoms: C_24  and  C_25
REMARK   11  A    between atoms: N_27  and  C_28
REMARK   12  A    between atoms: C_29  and  C_30
REMARK                            x       y       z     vdW  Elec       q    Type
REMARK                         _______ _______ _______ _____ _____    ______ ____
ROOT
ATOM      1  N   UNL     1      -0.506  10.815  19.871  0.00  0.00    +0.000 N 
ENDROOT
BRANCH   1   5
ATOM      2  C   UNL     1      -3.382  10.800  16.735  0.00  0.00    +0.000 A 
ATOM      3  C   UNL     1      -2.228  10.011  16.651  0.00  0.00    +0.000 A 
ATOM      4  C   UNL     1      -1.283   9.997  17.681  0.00  0.00    +0.000 A 
ATOM      5  C   UNL     1      -1.475  10.786  18.812  0.00  0.00    +0.000 A 
ATOM      6  C   UNL     1      -2.615  11.597  18.894  0.00  0.00    +0.000 A 
ATOM      7  C   UNL     1      -3.576  11.593  17.865  0.00  0.00    +0.000 A 
BRANCH   2   9
ATOM      8  C   UNL     1      -3.646  10.184  14.450  0.00  0.00    +0.000 C 
ATOM      9  O   UNL     1      -4.196  10.740  15.637  0.00  0.00    +0.000 OA
ENDBRANCH   2   9
ENDBRANCH   1   5
BRANCH   1  10
ATOM     10  S   UNL     1       0.118  12.361  20.317  0.00  0.00    +0.000 S 
ATOM     11  O   UNL     1       1.257  12.131  21.180  0.00  0.00    +0.000 OA
ATOM     12  O   UNL     1       0.259  13.149  19.108  0.00  0.00    +0.000 OA
BRANCH  10  13
ATOM     13  C   UNL     1      -0.981  13.300  21.300  0.00  0.00    +0.000 A 
ATOM     14  C   UNL     1      -1.295  14.692  21.235  0.00  0.00    +0.000 A 
ATOM     15  C   UNL     1      -0.885  15.788  20.319  0.00  0.00    +0.000 C 
ATOM     16  N   UNL     1      -2.119  15.049  22.230  0.00  0.00    +0.000 NA
ATOM     17  N   UNL     1      -2.289  13.942  22.959  0.00  0.00    +0.000 N 
ATOM     18  C   UNL     1      -3.081  14.021  24.165  0.00  0.00    +0.000 C 
ATOM     19  C   UNL     1      -1.647  12.848  22.439  0.00  0.00    +0.000 A 
ATOM     20  C   UNL     1      -1.676  11.511  23.090  0.00  0.00    +0.000 C 
ENDBRANCH  10  13
ENDBRANCH   1  10
BRANCH   1  21
ATOM     21  C   UNL     1       0.468   9.711  20.023  0.00  0.00    +0.000 C 
BRANCH  21  22
ATOM     22  C   UNL     1       1.516   9.452  18.956  0.00  0.00    +0.000 C 
ATOM     23  O   UNL     1       1.940  10.374  18.262  0.00  0.00    +0.000 OA
ATOM     24  N   UNL     1       2.029   8.177  18.870  0.00  0.00    +0.000 N 
ATOM     25  H   UNL     1       1.664   7.450  19.473  0.00  0.00    +0.000 HD
BRANCH  24  26
ATOM     26  C   UNL     1       3.040   7.829  17.890  0.00  0.00    +0.000 C 
BRANCH  26  27
ATOM     27  C   UNL     1       3.217   6.339  17.730  0.00  0.00    +0.000 A 
ATOM     28  C   UNL     1       2.126   5.490  18.000  0.00  0.00    +0.000 A 
ATOM     29  C   UNL     1       2.250   4.100  17.913  0.00  0.00    +0.000 A 
ATOM     30  C   UNL     1       3.465   3.532  17.546  0.00  0.00    +0.000 A 
ATOM     31  C   UNL     1       4.552   4.354  17.256  0.00  0.00    +0.000 A 
ATOM     32  C   UNL     1       4.430   5.748  17.338  0.00  0.00    +0.000 A 
ATOM     33 CL   UNL     1       5.823   6.695  16.951  0.00  0.00    +0.000 Cl
ENDBRANCH  26  27
ENDBRANCH  24  26
ENDBRANCH  21  22
ENDBRANCH   1  21
TORSDOF 8
ENDMDL
MODEL 7
REMARK VINA RESULT:      -7.4      2.018      2.722
REMARK  Name = 
REMARK  12 active torsions:
REMARK  status: ('A' for Active; 'I' for Inactive)
REMARK    1  A    between atoms: C_1  and  O_2
REMARK    2  A    between atoms: O_2  and  C_3
REMARK    3  A    between atoms: C_6  and  N_7
REMARK    4  A    between atoms: N_7  and  C_8
REMARK    5  A    between atoms: N_7  and  S_20
REMARK    6  A    between atoms: C_8  and  C_9
REMARK    7  A    between atoms: N_11  and  C_12
REMARK    8  A    between atoms: C_12  and  C_13
REMARK    9  A    between atoms: S_20  and  C_23
REMARK   10  A    between atoms: C_24  and  C_25
REMARK   11  A    between atoms: N_27  and  C_28
REMARK   12  A    between atoms: C_29  and  C_30
REMARK                            x       y       z     vdW  Elec       q    Type
REMARK                         _______ _______ _______ _____ _____    ______ ____
ROOT
ATOM      1  N   UNL     1       0.219   9.888  19.566  0.00  0.00    +0.000 N 
ENDROOT
BRANCH   1   5
ATOM      2  C   UNL     1      -3.186  11.205  17.381  0.00  0.00    +0.000 A 
ATOM      3  C   UNL     1      -2.358  10.196  16.875  0.00  0.00    +0.000 A 
ATOM      4  C   UNL     1      -1.245   9.744  17.589  0.00  0.00    +0.000 A 
ATOM      5  C   UNL     1      -0.935  10.309  18.824  0.00  0.00    +0.000 A 
ATOM      6  C   UNL     1      -1.744  11.336  19.327  0.00  0.00    +0.000 A 
ATOM      7  C   UNL     1      -2.878  11.774  18.616  0.00  0.00    +0.000 A 
BRANCH   2   9
ATOM      8  C   UNL     1      -5.404  12.044  17.170  0.00  0.00    +0.000 C 
ATOM      9  O   UNL     1      -4.215  11.568  16.555  0.00  0.00    +0.000 OA
ENDBRANCH   2   9
ENDBRANCH   1   5
BRANCH   1  10
ATOM     10  S   UNL     1       0.211  10.193  21.264  0.00  0.00    +0.000 S 
ATOM     11  O   UNL     1      -0.948   9.522  21.814  0.00  0.00    +0.000 OA
ATOM     12  O   UNL     1       1.537   9.907  21.774  0.00  0.00    +0.000 OA
BRANCH  10  13
ATOM     13  C   UNL     1      -0.038  11.875  21.669  0.00  0.00    +0.000 A 
ATOM     14  C   UNL     1       0.742  13.019  21.316  0.00  0.00    +0.000 A 
ATOM     15  C   UNL     1       1.944  13.211  20.466  0.00  0.00    +0.000 C 
ATOM     16  N   UNL     1       0.267  14.127  21.905  0.00  0.00    +0.000 NA
ATOM     17  N   UNL     1      -0.749  13.712  22.667  0.00  0.00    +0.000 N 
ATOM     18  C   UNL     1      -1.430  14.677  23.499  0.00  0.00    +0.000 C 
ATOM     19  C   UNL     1      -0.998  12.370  22.553  0.00  0.00    +0.000 A 
ATOM     20  C   UNL     1      -2.067  11.679  23.322  0.00  0.00    +0.000 C 
ENDBRANCH  10  13
ENDBRANCH   1  10
BRANCH   1  21
ATOM     21  C   UNL     1       1.566   9.955  18.954  0.00  0.00    +0.000 C 
BRANCH  21  22
ATOM     22  C   UNL     1       2.149   8.753  18.234  0.00  0.00    +0.000 C 
ATOM     23  O   UNL     1       2.486   8.835  17.054  0.00  0.00    +0.000 OA
ATOM     24  N   UNL     1       2.368   7.615  18.978  0.00  0.00    +0.000 N 
ATOM     25  H   UNL     1       2.092   7.594  19.952  0.00  0.00    +0.000 HD
BRANCH  24  26
ATOM     26  C   UNL     1       2.928   6.416  18.386  0.00  0.00    +0.000 C 
BRANCH  26  27
ATOM     27  C   UNL     1       2.383   5.147  18.996  0.00  0.00    +0.000 A 
ATOM     28  C   UNL     1       1.656   5.228  20.199  0.00  0.00    +0.000 A 
ATOM     29  C   UNL     1       1.169   4.080  20.831  0.00  0.00    +0.000 A 
ATOM     30  C   UNL     1       1.393   2.829  20.267  0.00  0.00    +0.000 A 
ATOM     31  C   UNL     1       2.094   2.727  19.066  0.00  0.00    +0.000 A 
ATOM     32  C   UNL     1       2.579   3.877  18.429  0.00  0.00    +0.000 A 
ATOM     33 CL   UNL     1       3.428   3.665  16.939  0.00  0.00    +0.000 Cl
ENDBRANCH  26  27
ENDBRANCH  24  26
ENDBRANCH  21  22
ENDBRANCH   1  21
TORSDOF 8
ENDMDL
MODEL 8
REMARK VINA RESULT:      -7.3      1.841      2.541
REMARK  Name = 
REMARK  12 active torsions:
REMARK  status: ('A' for Active; 'I' for Inactive)
REMARK    1  A    between atoms: C_1  and  O_2
REMARK    2  A    between atoms: O_2  and  C_3
REMARK    3  A    between atoms: C_6  and  N_7
REMARK    4  A    between atoms: N_7  and  C_8
REMARK    5  A    between atoms: N_7  and  S_20
REMARK    6  A    between atoms: C_8  and  C_9
REMARK    7  A    between atoms: N_11  and  C_12
REMARK    8  A    between atoms: C_12  and  C_13
REMARK    9  A    between atoms: S_20  and  C_23
REMARK   10  A    between atoms: C_24  and  C_25
REMARK   11  A    between atoms: N_27  and  C_28
REMARK   12  A    between atoms: C_29  and  C_30
REMARK                            x       y       z     vdW  Elec       q    Type
REMARK                         _______ _______ _______ _____ _____    ______ ____
ROOT
ATOM      1  N   UNL     1      -0.334  10.516  20.045  0.00  0.00    +0.000 N 
ENDROOT
BRANCH   1   5
ATOM      2  C   UNL     1      -3.077  10.925  16.818  0.00  0.00    +0.000 A 
ATOM      3  C   UNL     1      -1.960  10.089  16.704  0.00  0.00    +0.000 A 
ATOM      4  C   UNL     1      -1.059   9.935  17.763  0.00  0.00    +0.000 A 
ATOM      5  C   UNL     1      -1.258  10.630  18.953  0.00  0.00    +0.000 A 
ATOM      6  C   UNL     1      -2.361  11.487  19.066  0.00  0.00    +0.000 A 
ATOM      7  C   UNL     1      -3.279  11.623  18.007  0.00  0.00    +0.000 A 
BRANCH   2   9
ATOM      8  C   UNL     1      -3.489  10.169  14.598  0.00  0.00    +0.000 C 
ATOM      9  O   UNL     1      -3.848  11.004  15.690  0.00  0.00    +0.000 OA
ENDBRANCH   2   9
ENDBRANCH   1   5
BRANCH   1  10
ATOM     10  S   UNL     1      -0.124  11.910  21.039  0.00  0.00    +0.000 S 
ATOM     11  O   UNL     1      -1.265  11.979  21.927  0.00  0.00    +0.000 OA
ATOM     12  O   UNL     1       1.223  11.876  21.575  0.00  0.00    +0.000 OA
BRANCH  10  13
ATOM     13  C   UNL     1      -0.181  13.415  20.152  0.00  0.00    +0.000 A 
ATOM     14  C   UNL     1       0.652  13.874  19.086  0.00  0.00    +0.000 A 
ATOM     15  C   UNL     1       1.769  13.255  18.326  0.00  0.00    +0.000 C 
ATOM     16  N   UNL     1       0.341  15.130  18.736  0.00  0.00    +0.000 NA
ATOM     17  N   UNL     1      -0.621  15.503  19.585  0.00  0.00    +0.000 N 
ATOM     18  C   UNL     1      -1.123  16.856  19.512  0.00  0.00    +0.000 C 
ATOM     19  C   UNL     1      -0.995  14.509  20.450  0.00  0.00    +0.000 A 
ATOM     20  C   UNL     1      -2.031  14.699  21.499  0.00  0.00    +0.000 C 
ENDBRANCH  10  13
ENDBRANCH   1  10
BRANCH   1  21
ATOM     21  C   UNL     1       0.889   9.692  19.905  0.00  0.00    +0.000 C 
BRANCH  21  22
ATOM     22  C   UNL     1       1.030   8.384  20.660  0.00  0.00    +0.000 C 
ATOM     23  O   UNL     1       0.314   8.143  21.631  0.00  0.00    +0.000 OA
ATOM     24  N   UNL     1       1.914   7.455  20.156  0.00  0.00    +0.000 N 
ATOM     25  H   UNL     1       2.472   7.686  19.343  0.00  0.00    +0.000 HD
BRANCH  24  26
ATOM     26  C   UNL     1       2.116   6.171  20.799  0.00  0.00    +0.000 C 
BRANCH  26  27
ATOM     27  C   UNL     1       2.069   5.014  19.832  0.00  0.00    +0.000 A 
ATOM     28  C   UNL     1       2.122   5.279  18.450  0.00  0.00    +0.000 A 
ATOM     29  C   UNL     1       2.036   4.248  17.510  0.00  0.00    +0.000 A 
ATOM     30  C   UNL     1       1.901   2.930  17.934  0.00  0.00    +0.000 A 
ATOM     31  C   UNL     1       1.866   2.643  19.297  0.00  0.00    +0.000 A 
ATOM     32  C   UNL     1       1.957   3.675  20.242  0.00  0.00    +0.000 A 
ATOM     33 CL   UNL     1       1.916   3.232  21.912  0.00  0.00    +0.000 Cl
ENDBRANCH  26  27
ENDBRANCH  24  26
ENDBRANCH  21  22
ENDBRANCH   1  21
TORSDOF 8
ENDMDL
MODEL 9
REMARK VINA RESULT:      -7.3      1.558      2.373
REMARK  Name = 
REMARK  12 active torsions:
REMARK  status: ('A' for Active; 'I' for Inactive)
REMARK    1  A    between atoms: C_1  and  O_2
REMARK    2  A    between atoms: O_2  and  C_3
REMARK    3  A    between atoms: C_6  and  N_7
REMARK    4  A    between atoms: N_7  and  C_8
REMARK    5  A    between atoms: N_7  and  S_20
REMARK    6  A    between atoms: C_8  and  C_9
REMARK    7  A    between atoms: N_11  and  C_12
REMARK    8  A    between atoms: C_12  and  C_13
REMARK    9  A    between atoms: S_20  and  C_23
REMARK   10  A    between atoms: C_24  and  C_25
REMARK   11  A    between atoms: N_27  and  C_28
REMARK   12  A    between atoms: C_29  and  C_30
REMARK                            x       y       z     vdW  Elec       q    Type
REMARK                         _______ _______ _______ _____ _____    ______ ____
ROOT
ATOM      1  N   UNL     1       0.051  10.946  19.948  0.00  0.00    +0.000 N 
ENDROOT
BRANCH   1   5
ATOM      2  C   UNL     1      -3.488  11.250  17.605  0.00  0.00    +0.000 A 
ATOM      3  C   UNL     1      -2.415  10.459  17.179  0.00  0.00    +0.000 A 
ATOM      4  C   UNL     1      -1.252  10.339  17.947  0.00  0.00    +0.000 A 
ATOM      5  C   UNL     1      -1.142  11.025  19.154  0.00  0.00    +0.000 A 
ATOM      6  C   UNL     1      -2.202  11.839  19.576  0.00  0.00    +0.000 A 
ATOM      7  C   UNL     1      -3.381  11.940  18.812  0.00  0.00    +0.000 A 
BRANCH   2   9
ATOM      8  C   UNL     1      -5.712  11.980  17.167  0.00  0.00    +0.000 C 
ATOM      9  O   UNL     1      -4.542  11.300  16.734  0.00  0.00    +0.000 OA
ENDBRANCH   2   9
ENDBRANCH   1   5
BRANCH   1  10
ATOM     10  S   UNL     1       0.723  12.437  20.497  0.00  0.00    +0.000 S 
ATOM     11  O   UNL     1       2.038  12.145  21.027  0.00  0.00    +0.000 OA
ATOM     12  O   UNL     1       0.557  13.417  19.441  0.00  0.00    +0.000 OA
BRANCH  10  13
ATOM     13  C   UNL     1      -0.138  13.134  21.850  0.00  0.00    +0.000 A 
ATOM     14  C   UNL     1      -0.960  12.496  22.829  0.00  0.00    +0.000 A 
ATOM     15  C   UNL     1      -1.318  11.079  23.094  0.00  0.00    +0.000 C 
ATOM     16  N   UNL     1      -1.519  13.397  23.651  0.00  0.00    +0.000 NA
ATOM     17  N   UNL     1      -1.126  14.587  23.187  0.00  0.00    +0.000 N 
ATOM     18  C   UNL     1      -1.631  15.780  23.826  0.00  0.00    +0.000 C 
ATOM     19  C   UNL     1      -0.275  14.496  22.118  0.00  0.00    +0.000 A 
ATOM     20  C   UNL     1       0.276  15.689  21.421  0.00  0.00    +0.000 C 
ENDBRANCH  10  13
ENDBRANCH   1  10
BRANCH   1  21
ATOM     21  C   UNL     1       1.062   9.900  19.674  0.00  0.00    +0.000 C 
BRANCH  21  22
ATOM     22  C   UNL     1       1.091   8.621  20.490  0.00  0.00    +0.000 C 
ATOM     23  O   UNL     1       0.271   8.434  21.388  0.00  0.00    +0.000 OA
ATOM     24  N   UNL     1       2.002   7.656  20.121  0.00  0.00    +0.000 N 
ATOM     25  H   UNL     1       2.648   7.842  19.364  0.00  0.00    +0.000 HD
BRANCH  24  26
ATOM     26  C   UNL     1       2.104   6.396  20.831  0.00  0.00    +0.000 C 
BRANCH  26  27
ATOM     27  C   UNL     1       1.829   5.200  19.952  0.00  0.00    +0.000 A 
ATOM     28  C   UNL     1       1.027   4.157  20.453  0.00  0.00    +0.000 A 
ATOM     29  C   UNL     1       0.779   3.006  19.698  0.00  0.00    +0.000 A 
ATOM     30  C   UNL     1       1.323   2.880  18.425  0.00  0.00    +0.000 A 
ATOM     31  C   UNL     1       2.104   3.909  17.902  0.00  0.00    +0.000 A 
ATOM     32  C   UNL     1       2.351   5.065  18.654  0.00  0.00    +0.000 A 
ATOM     33 CL   UNL     1       3.320   6.298  17.928  0.00  0.00    +0.000 Cl
ENDBRANCH  26  27
ENDBRANCH  24  26
ENDBRANCH  21  22
ENDBRANCH   1  21
TORSDOF 8
ENDMDL
