MODEL 1
REMARK VINA RESULT:      -7.9      0.000      0.000
REMARK  Name = 
REMARK  4 active torsions:
REMARK  status: ('A' for Active; 'I' for Inactive)
REMARK    1  A    between atoms: C_9  and  S_10
REMARK    2  A    between atoms: N_19  and  C_20
REMARK    3  A    between atoms: C_20  and  C_21
REMARK    4  A    between atoms: C_24  and  O_25
REMARK                            x       y       z     vdW  Elec       q    Type
REMARK                         _______ _______ _______ _____ _____    ______ ____
ROOT
ATOM      1  O   UNL     1       2.952   9.906  17.714  0.00  0.00    +0.000 OA
ATOM      2  C   UNL     1       2.480   8.855  18.147  0.00  0.00    +0.000 C 
ATOM      3  C   UNL     1       3.107   7.587  17.711  0.00  0.00    +0.000 A 
ATOM      4  C   UNL     1       4.001   7.595  16.628  0.00  0.00    +0.000 A 
ATOM      5  C   UNL     1       4.770   6.471  16.349  0.00  0.00    +0.000 A 
ATOM      6  C   UNL     1       4.644   5.331  17.137  0.00  0.00    +0.000 A 
ATOM      7  C   UNL     1       3.725   5.296  18.195  0.00  0.00    +0.000 A 
ATOM      8  C   UNL     1       3.625   4.165  19.000  0.00  0.00    +0.000 A 
ATOM      9  C   UNL     1       2.749   4.170  20.086  0.00  0.00    +0.000 A 
ATOM     10  C   UNL     1       1.972   5.289  20.395  0.00  0.00    +0.000 A 
ATOM     11  C   UNL     1       2.073   6.427  19.592  0.00  0.00    +0.000 A 
ATOM     12  C   UNL     1       2.938   6.442  18.488  0.00  0.00    +0.000 A 
ATOM     13  C   UNL     1       1.404   7.685  20.007  0.00  0.00    +0.000 C 
ATOM     14  O   UNL     1       0.935   7.752  21.139  0.00  0.00    +0.000 OA
ATOM     15  N   UNL     1       1.556   8.802  19.185  0.00  0.00    +0.000 N 
ENDROOT
BRANCH   9  16
ATOM     16  S   UNL     1       2.696   2.758  21.218  0.00  0.00    +0.000 S 
ATOM     17  O   UNL     1       1.658   1.961  20.575  0.00  0.00    +0.000 OA
ATOM     18  O   UNL     1       4.064   2.268  21.119  0.00  0.00    +0.000 OA
ATOM     19  O   UNL     1       2.320   3.371  22.493  0.00  0.00    +0.000 OA
ENDBRANCH   9  16
BRANCH  15  20
ATOM     20  C   UNL     1       1.024  10.080  19.692  0.00  0.00    +0.000 C 
BRANCH  20  21
ATOM     21  C   UNL     1      -0.280  10.478  19.044  0.00  0.00    +0.000 A 
ATOM     22  C   UNL     1      -0.715   9.831  17.877  0.00  0.00    +0.000 A 
ATOM     23  C   UNL     1      -1.854  10.273  17.202  0.00  0.00    +0.000 A 
ATOM     24  C   UNL     1      -2.572  11.349  17.707  0.00  0.00    +0.000 A 
ATOM     25  C   UNL     1      -2.201  11.954  18.901  0.00  0.00    +0.000 A 
ATOM     26  C   UNL     1      -1.056  11.522  19.571  0.00  0.00    +0.000 A 
BRANCH  24  27
ATOM     27  O   UNL     1      -3.650  11.857  17.043  0.00  0.00    +0.000 OA
ATOM     28  H   UNL     1      -3.640  12.825  17.135  0.00  0.00    +0.000 HD
ENDBRANCH  24  27
ENDBRANCH  20  21
ENDBRANCH  15  20
TORSDOF 4
ENDMDL
MODEL 2
REMARK VINA RESULT:      -7.8      3.435      7.847
REMARK  Name = 
REMARK  4 active torsions:
REMARK  status: ('A' for Active; 'I' for Inactive)
REMARK    1  A    between atoms: C_9  and  S_10
REMARK    2  A    between atoms: N_19  and  C_20
REMARK    3  A    between atoms: C_20  and  C_21
REMARK    4  A    between atoms: C_24  and  O_25
REMARK                            x       y       z     vdW  Elec       q    Type
REMARK                         _______ _______ _______ _____ _____    ______ ____
ROOT
ATOM      1  O   UNL     1       5.648   3.426  19.244  0.00  0.00    +0.000 OA
ATOM      2  C   UNL     1       4.941   4.288  18.723  0.00  0.00    +0.000 C 
ATOM      3  C   UNL     1       3.657   4.617  19.381  0.00  0.00    +0.000 A 
ATOM      4  C   UNL     1       3.157   3.769  20.381  0.00  0.00    +0.000 A 
ATOM      5  C   UNL     1       2.082   4.173  21.167  0.00  0.00    +0.000 A 
ATOM      6  C   UNL     1       1.495   5.415  20.952  0.00  0.00    +0.000 A 
ATOM      7  C   UNL     1       1.958   6.254  19.929  0.00  0.00    +0.000 A 
ATOM      8  C   UNL     1       1.387   7.509  19.738  0.00  0.00    +0.000 A 
ATOM      9  C   UNL     1       1.902   8.356  18.755  0.00  0.00    +0.000 A 
ATOM     10  C   UNL     1       2.986   7.979  17.959  0.00  0.00    +0.000 A 
ATOM     11  C   UNL     1       3.563   6.722  18.150  0.00  0.00    +0.000 A 
ATOM     12  C   UNL     1       3.057   5.849  19.124  0.00  0.00    +0.000 A 
ATOM     13  C   UNL     1       4.826   6.376  17.452  0.00  0.00    +0.000 C 
ATOM     14  O   UNL     1       5.436   7.267  16.870  0.00  0.00    +0.000 OA
ATOM     15  N   UNL     1       5.378   5.118  17.696  0.00  0.00    +0.000 N 
ENDROOT
BRANCH   9  16
ATOM     16  S   UNL     1       1.257  10.038  18.576  0.00  0.00    +0.000 S 
ATOM     17  O   UNL     1       1.062  10.381  19.980  0.00  0.00    +0.000 OA
ATOM     18  O   UNL     1       2.359  10.689  17.881  0.00  0.00    +0.000 OA
ATOM     19  O   UNL     1       0.032   9.840  17.800  0.00  0.00    +0.000 OA
ENDBRANCH   9  16
BRANCH  15  20
ATOM     20  C   UNL     1       6.711   4.853  17.124  0.00  0.00    +0.000 C 
BRANCH  20  21
ATOM     21  C   UNL     1       6.688   4.664  15.627  0.00  0.00    +0.000 A 
ATOM     22  C   UNL     1       5.772   3.774  15.042  0.00  0.00    +0.000 A 
ATOM     23  C   UNL     1       5.823   3.499  13.675  0.00  0.00    +0.000 A 
ATOM     24  C   UNL     1       6.775   4.132  12.886  0.00  0.00    +0.000 A 
ATOM     25  C   UNL     1       7.639   5.073  13.432  0.00  0.00    +0.000 A 
ATOM     26  C   UNL     1       7.599   5.340  14.802  0.00  0.00    +0.000 A 
BRANCH  24  27
ATOM     27  O   UNL     1       6.905   3.841  11.560  0.00  0.00    +0.000 OA
ATOM     28  H   UNL     1       7.559   3.129  11.464  0.00  0.00    +0.000 HD
ENDBRANCH  24  27
ENDBRANCH  20  21
ENDBRANCH  15  20
TORSDOF 4
ENDMDL
MODEL 3
REMARK VINA RESULT:      -7.7      3.424      7.826
REMARK  Name = 
REMARK  4 active torsions:
REMARK  status: ('A' for Active; 'I' for Inactive)
REMARK    1  A    between atoms: C_9  and  S_10
REMARK    2  A    between atoms: N_19  and  C_20
REMARK    3  A    between atoms: C_20  and  C_21
REMARK    4  A    between atoms: C_24  and  O_25
REMARK                            x       y       z     vdW  Elec       q    Type
REMARK                         _______ _______ _______ _____ _____    ______ ____
ROOT
ATOM      1  O   UNL     1       5.782   3.592  19.157  0.00  0.00    +0.000 OA
ATOM      2  C   UNL     1       5.054   4.449  18.657  0.00  0.00    +0.000 C 
ATOM      3  C   UNL     1       3.758   4.725  19.319  0.00  0.00    +0.000 A 
ATOM      4  C   UNL     1       3.278   3.835  20.292  0.00  0.00    +0.000 A 
ATOM      5  C   UNL     1       2.190   4.186  21.084  0.00  0.00    +0.000 A 
ATOM      6  C   UNL     1       1.570   5.419  20.902  0.00  0.00    +0.000 A 
ATOM      7  C   UNL     1       2.014   6.299  19.905  0.00  0.00    +0.000 A 
ATOM      8  C   UNL     1       1.410   7.543  19.748  0.00  0.00    +0.000 A 
ATOM      9  C   UNL     1       1.905   8.431  18.792  0.00  0.00    +0.000 A 
ATOM     10  C   UNL     1       3.002   8.107  17.991  0.00  0.00    +0.000 A 
ATOM     11  C   UNL     1       3.613   6.862  18.148  0.00  0.00    +0.000 A 
ATOM     12  C   UNL     1       3.126   5.947  19.095  0.00  0.00    +0.000 A 
ATOM     13  C   UNL     1       4.887   6.570  17.446  0.00  0.00    +0.000 C 
ATOM     14  O   UNL     1       5.474   7.494  16.893  0.00  0.00    +0.000 OA
ATOM     15  N   UNL     1       5.472   5.320  17.656  0.00  0.00    +0.000 N 
ENDROOT
BRANCH   9  16
ATOM     16  S   UNL     1       1.216  10.100  18.659  0.00  0.00    +0.000 S 
ATOM     17  O   UNL     1       0.035   9.818  17.850  0.00  0.00    +0.000 OA
ATOM     18  O   UNL     1       0.996  10.426  20.061  0.00  0.00    +0.000 OA
ATOM     19  O   UNL     1       2.279  10.842  17.982  0.00  0.00    +0.000 OA
ENDBRANCH   9  16
BRANCH  15  20
ATOM     20  C   UNL     1       6.814   5.108  17.083  0.00  0.00    +0.000 C 
BRANCH  20  21
ATOM     21  C   UNL     1       6.780   4.667  15.640  0.00  0.00    +0.000 A 
ATOM     22  C   UNL     1       7.680   5.217  14.713  0.00  0.00    +0.000 A 
ATOM     23  C   UNL     1       7.577   4.909  13.355  0.00  0.00    +0.000 A 
ATOM     24  C   UNL     1       6.588   4.032  12.927  0.00  0.00    +0.000 A 
ATOM     25  C   UNL     1       5.737   3.420  13.839  0.00  0.00    +0.000 A 
ATOM     26  C   UNL     1       5.830   3.736  15.195  0.00  0.00    +0.000 A 
BRANCH  24  27
ATOM     27  O   UNL     1       6.408   3.758  11.604  0.00  0.00    +0.000 OA
ATOM     28  H   UNL     1       7.036   3.062  11.345  0.00  0.00    +0.000 HD
ENDBRANCH  24  27
ENDBRANCH  20  21
ENDBRANCH  15  20
TORSDOF 4
ENDMDL
MODEL 4
REMARK VINA RESULT:      -7.6      0.270      1.275
REMARK  Name = 
REMARK  4 active torsions:
REMARK  status: ('A' for Active; 'I' for Inactive)
REMARK    1  A    between atoms: C_9  and  S_10
REMARK    2  A    between atoms: N_19  and  C_20
REMARK    3  A    between atoms: C_20  and  C_21
REMARK    4  A    between atoms: C_24  and  O_25
REMARK                            x       y       z     vdW  Elec       q    Type
REMARK                         _______ _______ _______ _____ _____    ______ ____
ROOT
ATOM      1  O   UNL     1       2.801  10.017  18.066  0.00  0.00    +0.000 OA
ATOM      2  C   UNL     1       2.342   8.940  18.445  0.00  0.00    +0.000 C 
ATOM      3  C   UNL     1       2.975   7.703  17.936  0.00  0.00    +0.000 A 
ATOM      4  C   UNL     1       3.859   7.778  16.848  0.00  0.00    +0.000 A 
ATOM      5  C   UNL     1       4.636   6.677  16.502  0.00  0.00    +0.000 A 
ATOM      6  C   UNL     1       4.526   5.495  17.228  0.00  0.00    +0.000 A 
ATOM      7  C   UNL     1       3.616   5.394  18.290  0.00  0.00    +0.000 A 
ATOM      8  C   UNL     1       3.532   4.221  19.033  0.00  0.00    +0.000 A 
ATOM      9  C   UNL     1       2.665   4.159  20.125  0.00  0.00    +0.000 A 
ATOM     10  C   UNL     1       1.882   5.253  20.500  0.00  0.00    +0.000 A 
ATOM     11  C   UNL     1       1.966   6.433  19.760  0.00  0.00    +0.000 A 
ATOM     12  C   UNL     1       2.822   6.516  18.651  0.00  0.00    +0.000 A 
ATOM     13  C   UNL     1       1.291   7.661  20.248  0.00  0.00    +0.000 C 
ATOM     14  O   UNL     1       0.831   7.663  21.385  0.00  0.00    +0.000 OA
ATOM     15  N   UNL     1       1.426   8.822  19.486  0.00  0.00    +0.000 N 
ENDROOT
BRANCH   9  16
ATOM     16  S   UNL     1       2.635   2.688  21.179  0.00  0.00    +0.000 S 
ATOM     17  O   UNL     1       2.300   3.304  22.459  0.00  0.00    +0.000 OA
ATOM     18  O   UNL     1       1.595   1.900  20.531  0.00  0.00    +0.000 OA
ATOM     19  O   UNL     1       4.000   2.173  21.067  0.00  0.00    +0.000 OA
ENDBRANCH   9  16
BRANCH  15  20
ATOM     20  C   UNL     1       0.888  10.066  20.066  0.00  0.00    +0.000 C 
BRANCH  20  21
ATOM     21  C   UNL     1      -0.285  10.622  19.295  0.00  0.00    +0.000 A 
ATOM     22  C   UNL     1      -0.966  11.756  19.765  0.00  0.00    +0.000 A 
ATOM     23  C   UNL     1      -2.124  12.205  19.129  0.00  0.00    +0.000 A 
ATOM     24  C   UNL     1      -2.589  11.532  18.006  0.00  0.00    +0.000 A 
ATOM     25  C   UNL     1      -1.888  10.454  17.481  0.00  0.00    +0.000 A 
ATOM     26  C   UNL     1      -0.736   9.996  18.123  0.00  0.00    +0.000 A 
BRANCH  24  27
ATOM     27  O   UNL     1      -3.754  11.894  17.395  0.00  0.00    +0.000 OA
ATOM     28  H   UNL     1      -4.314  12.350  18.045  0.00  0.00    +0.000 HD
ENDBRANCH  24  27
ENDBRANCH  20  21
ENDBRANCH  15  20
TORSDOF 4
ENDMDL
MODEL 5
REMARK VINA RESULT:      -7.4      3.677      7.352
REMARK  Name = 
REMARK  4 active torsions:
REMARK  status: ('A' for Active; 'I' for Inactive)
REMARK    1  A    between atoms: C_9  and  S_10
REMARK    2  A    between atoms: N_19  and  C_20
REMARK    3  A    between atoms: C_20  and  C_21
REMARK    4  A    between atoms: C_24  and  O_25
REMARK                            x       y       z     vdW  Elec       q    Type
REMARK                         _______ _______ _______ _____ _____    ______ ____
ROOT
ATOM      1  O   UNL     1       5.995   3.655  18.330  0.00  0.00    +0.000 OA
ATOM      2  C   UNL     1       5.038   4.429  18.313  0.00  0.00    +0.000 C 
ATOM      3  C   UNL     1       3.927   4.172  19.257  0.00  0.00    +0.000 A 
ATOM      4  C   UNL     1       3.855   2.937  19.919  0.00  0.00    +0.000 A 
ATOM      5  C   UNL     1       2.963   2.758  20.971  0.00  0.00    +0.000 A 
ATOM      6  C   UNL     1       2.131   3.803  21.358  0.00  0.00    +0.000 A 
ATOM      7  C   UNL     1       2.162   5.029  20.678  0.00  0.00    +0.000 A 
ATOM      8  C   UNL     1       1.350   6.081  21.089  0.00  0.00    +0.000 A 
ATOM      9  C   UNL     1       1.440   7.313  20.440  0.00  0.00    +0.000 A 
ATOM     10  C   UNL     1       2.334   7.522  19.388  0.00  0.00    +0.000 A 
ATOM     11  C   UNL     1       3.154   6.470  18.975  0.00  0.00    +0.000 A 
ATOM     12  C   UNL     1       3.074   5.219  19.605  0.00  0.00    +0.000 A 
ATOM     13  C   UNL     1       4.237   6.719  17.992  0.00  0.00    +0.000 C 
ATOM     14  O   UNL     1       4.511   7.880  17.706  0.00  0.00    +0.000 OA
ATOM     15  N   UNL     1       5.046   5.641  17.630  0.00  0.00    +0.000 N 
ENDROOT
BRANCH   9  16
ATOM     16  S   UNL     1       0.485   8.729  21.041  0.00  0.00    +0.000 S 
ATOM     17  O   UNL     1      -0.686   8.035  21.565  0.00  0.00    +0.000 OA
ATOM     18  O   UNL     1       1.409   9.299  22.012  0.00  0.00    +0.000 OA
ATOM     19  O   UNL     1       0.260   9.514  19.826  0.00  0.00    +0.000 OA
ENDBRANCH   9  16
BRANCH  15  20
ATOM     20  C   UNL     1       6.214   5.940  16.782  0.00  0.00    +0.000 C 
BRANCH  20  21
ATOM     21  C   UNL     1       6.184   5.219  15.456  0.00  0.00    +0.000 A 
ATOM     22  C   UNL     1       5.028   4.531  15.053  0.00  0.00    +0.000 A 
ATOM     23  C   UNL     1       5.029   3.761  13.889  0.00  0.00    +0.000 A 
ATOM     24  C   UNL     1       6.181   3.697  13.114  0.00  0.00    +0.000 A 
ATOM     25  C   UNL     1       7.309   4.432  13.455  0.00  0.00    +0.000 A 
ATOM     26  C   UNL     1       7.314   5.193  14.626  0.00  0.00    +0.000 A 
BRANCH  24  27
ATOM     27  O   UNL     1       6.248   2.903  12.008  0.00  0.00    +0.000 OA
ATOM     28  H   UNL     1       5.811   2.058  12.209  0.00  0.00    +0.000 HD
ENDBRANCH  24  27
ENDBRANCH  20  21
ENDBRANCH  15  20
TORSDOF 4
ENDMDL
MODEL 6
REMARK VINA RESULT:      -7.3      3.678      7.356
REMARK  Name = 
REMARK  4 active torsions:
REMARK  status: ('A' for Active; 'I' for Inactive)
REMARK    1  A    between atoms: C_9  and  S_10
REMARK    2  A    between atoms: N_19  and  C_20
REMARK    3  A    between atoms: C_20  and  C_21
REMARK    4  A    between atoms: C_24  and  O_25
REMARK                            x       y       z     vdW  Elec       q    Type
REMARK                         _______ _______ _______ _____ _____    ______ ____
ROOT
ATOM      1  O   UNL     1       5.975   3.549  18.505  0.00  0.00    +0.000 OA
ATOM      2  C   UNL     1       5.030   4.336  18.455  0.00  0.00    +0.000 C 
ATOM      3  C   UNL     1       3.896   4.112  19.381  0.00  0.00    +0.000 A 
ATOM      4  C   UNL     1       3.794   2.889  20.063  0.00  0.00    +0.000 A 
ATOM      5  C   UNL     1       2.879   2.742  21.100  0.00  0.00    +0.000 A 
ATOM      6  C   UNL     1       2.054   3.806  21.453  0.00  0.00    +0.000 A 
ATOM      7  C   UNL     1       2.117   5.018  20.751  0.00  0.00    +0.000 A 
ATOM      8  C   UNL     1       1.312   6.089  21.128  0.00  0.00    +0.000 A 
ATOM      9  C   UNL     1       1.433   7.308  20.459  0.00  0.00    +0.000 A 
ATOM     10  C   UNL     1       2.351   7.486  19.421  0.00  0.00    +0.000 A 
ATOM     11  C   UNL     1       3.163   6.415  19.043  0.00  0.00    +0.000 A 
ATOM     12  C   UNL     1       3.052   5.176  19.694  0.00  0.00    +0.000 A 
ATOM     13  C   UNL     1       4.269   6.632  18.079  0.00  0.00    +0.000 C 
ATOM     14  O   UNL     1       4.566   7.783  17.778  0.00  0.00    +0.000 OA
ATOM     15  N   UNL     1       5.069   5.535  17.752  0.00  0.00    +0.000 N 
ENDROOT
BRANCH   9  16
ATOM     16  S   UNL     1       0.487   8.748  21.016  0.00  0.00    +0.000 S 
ATOM     17  O   UNL     1       0.349   9.460  19.750  0.00  0.00    +0.000 OA
ATOM     18  O   UNL     1      -0.708   8.109  21.551  0.00  0.00    +0.000 OA
ATOM     19  O   UNL     1       1.380   9.370  21.994  0.00  0.00    +0.000 OA
ENDBRANCH   9  16
BRANCH  15  20
ATOM     20  C   UNL     1       6.258   5.802  16.922  0.00  0.00    +0.000 C 
BRANCH  20  21
ATOM     21  C   UNL     1       6.244   5.059  15.609  0.00  0.00    +0.000 A 
ATOM     22  C   UNL     1       7.366   5.095  14.765  0.00  0.00    +0.000 A 
ATOM     23  C   UNL     1       7.320   4.514  13.497  0.00  0.00    +0.000 A 
ATOM     24  C   UNL     1       6.159   3.877  13.080  0.00  0.00    +0.000 A 
ATOM     25  C   UNL     1       5.065   3.764  13.929  0.00  0.00    +0.000 A 
ATOM     26  C   UNL     1       5.104   4.355  15.193  0.00  0.00    +0.000 A 
BRANCH  24  27
ATOM     27  O   UNL     1       6.046   3.357  11.824  0.00  0.00    +0.000 OA
ATOM     28  H   UNL     1       6.084   2.388  11.887  0.00  0.00    +0.000 HD
ENDBRANCH  24  27
ENDBRANCH  20  21
ENDBRANCH  15  20
TORSDOF 4
ENDMDL
MODEL 7
REMARK VINA RESULT:      -7.1      3.667      7.516
REMARK  Name = 
REMARK  4 active torsions:
REMARK  status: ('A' for Active; 'I' for Inactive)
REMARK    1  A    between atoms: C_9  and  S_10
REMARK    2  A    between atoms: N_19  and  C_20
REMARK    3  A    between atoms: C_20  and  C_21
REMARK    4  A    between atoms: C_24  and  O_25
REMARK                            x       y       z     vdW  Elec       q    Type
REMARK                         _______ _______ _______ _____ _____    ______ ____
ROOT
ATOM      1  O   UNL     1       5.550   2.727  18.874  0.00  0.00    +0.000 OA
ATOM      2  C   UNL     1       4.788   3.681  18.720  0.00  0.00    +0.000 C 
ATOM      3  C   UNL     1       3.529   3.690  19.498  0.00  0.00    +0.000 A 
ATOM      4  C   UNL     1       3.110   2.518  20.147  0.00  0.00    +0.000 A 
ATOM      5  C   UNL     1       2.064   2.562  21.063  0.00  0.00    +0.000 A 
ATOM      6  C   UNL     1       1.424   3.769  21.327  0.00  0.00    +0.000 A 
ATOM      7  C   UNL     1       1.806   4.939  20.655  0.00  0.00    +0.000 A 
ATOM      8  C   UNL     1       1.184   6.150  20.945  0.00  0.00    +0.000 A 
ATOM      9  C   UNL     1       1.619   7.315  20.312  0.00  0.00    +0.000 A 
ATOM     10  C   UNL     1       2.673   7.300  19.396  0.00  0.00    +0.000 A 
ATOM     11  C   UNL     1       3.302   6.088  19.105  0.00  0.00    +0.000 A 
ATOM     12  C   UNL     1       2.875   4.902  19.720  0.00  0.00    +0.000 A 
ATOM     13  C   UNL     1       4.538   6.076  18.284  0.00  0.00    +0.000 C 
ATOM     14  O   UNL     1       5.086   7.145  18.037  0.00  0.00    +0.000 OA
ATOM     15  N   UNL     1       5.144   4.843  18.042  0.00  0.00    +0.000 N 
ENDROOT
BRANCH   9  16
ATOM     16  S   UNL     1       0.909   8.917  20.769  0.00  0.00    +0.000 S 
ATOM     17  O   UNL     1       1.773   9.260  21.893  0.00  0.00    +0.000 OA
ATOM     18  O   UNL     1       1.096   9.669  19.536  0.00  0.00    +0.000 OA
ATOM     19  O   UNL     1      -0.472   8.578  21.116  0.00  0.00    +0.000 OA
ENDBRANCH   9  16
BRANCH  15  20
ATOM     20  C   UNL     1       6.454   4.865  17.367  0.00  0.00    +0.000 C 
BRANCH  20  21
ATOM     21  C   UNL     1       6.358   4.628  15.879  0.00  0.00    +0.000 A 
ATOM     22  C   UNL     1       5.222   4.007  15.335  0.00  0.00    +0.000 A 
ATOM     23  C   UNL     1       5.175   3.673  13.981  0.00  0.00    +0.000 A 
ATOM     24  C   UNL     1       6.256   3.980  13.164  0.00  0.00    +0.000 A 
ATOM     25  C   UNL     1       7.357   4.662  13.668  0.00  0.00    +0.000 A 
ATOM     26  C   UNL     1       7.411   4.986  15.024  0.00  0.00    +0.000 A 
BRANCH  24  27
ATOM     27  O   UNL     1       6.282   3.609  11.852  0.00  0.00    +0.000 OA
ATOM     28  H   UNL     1       5.491   3.969  11.416  0.00  0.00    +0.000 HD
ENDBRANCH  24  27
ENDBRANCH  20  21
ENDBRANCH  15  20
TORSDOF 4
ENDMDL
MODEL 8
REMARK VINA RESULT:      -7.1      3.471      6.910
REMARK  Name = 
REMARK  4 active torsions:
REMARK  status: ('A' for Active; 'I' for Inactive)
REMARK    1  A    between atoms: C_9  and  S_10
REMARK    2  A    between atoms: N_19  and  C_20
REMARK    3  A    between atoms: C_20  and  C_21
REMARK    4  A    between atoms: C_24  and  O_25
REMARK                            x       y       z     vdW  Elec       q    Type
REMARK                         _______ _______ _______ _____ _____    ______ ____
ROOT
ATOM      1  O   UNL     1       5.276   7.436  15.474  0.00  0.00    +0.000 OA
ATOM      2  C   UNL     1       5.272   6.799  16.527  0.00  0.00    +0.000 C 
ATOM      3  C   UNL     1       4.144   7.018  17.460  0.00  0.00    +0.000 A 
ATOM      4  C   UNL     1       3.293   8.117  17.268  0.00  0.00    +0.000 A 
ATOM      5  C   UNL     1       2.105   8.215  17.984  0.00  0.00    +0.000 A 
ATOM      6  C   UNL     1       1.766   7.226  18.903  0.00  0.00    +0.000 A 
ATOM      7  C   UNL     1       2.628   6.145  19.135  0.00  0.00    +0.000 A 
ATOM      8  C   UNL     1       2.271   5.142  20.032  0.00  0.00    +0.000 A 
ATOM      9  C   UNL     1       3.112   4.042  20.204  0.00  0.00    +0.000 A 
ATOM     10  C   UNL     1       4.306   3.915  19.490  0.00  0.00    +0.000 A 
ATOM     11  C   UNL     1       4.666   4.917  18.586  0.00  0.00    +0.000 A 
ATOM     12  C   UNL     1       3.842   6.038  18.404  0.00  0.00    +0.000 A 
ATOM     13  C   UNL     1       5.826   4.715  17.683  0.00  0.00    +0.000 C 
ATOM     14  O   UNL     1       6.328   3.598  17.618  0.00  0.00    +0.000 OA
ATOM     15  N   UNL     1       6.130   5.734  16.780  0.00  0.00    +0.000 N 
ENDROOT
BRANCH   9  16
ATOM     16  S   UNL     1       2.606   2.669  21.269  0.00  0.00    +0.000 S 
ATOM     17  O   UNL     1       1.613   2.037  20.406  0.00  0.00    +0.000 OA
ATOM     18  O   UNL     1       3.871   1.970  21.446  0.00  0.00    +0.000 OA
ATOM     19  O   UNL     1       2.072   3.348  22.450  0.00  0.00    +0.000 OA
ENDBRANCH   9  16
BRANCH  15  20
ATOM     20  C   UNL     1       7.180   5.450  15.784  0.00  0.00    +0.000 C 
BRANCH  20  21
ATOM     21  C   UNL     1       6.649   4.786  14.537  0.00  0.00    +0.000 A 
ATOM     22  C   UNL     1       5.379   4.188  14.542  0.00  0.00    +0.000 A 
ATOM     23  C   UNL     1       4.929   3.466  13.435  0.00  0.00    +0.000 A 
ATOM     24  C   UNL     1       5.741   3.361  12.313  0.00  0.00    +0.000 A 
ATOM     25  C   UNL     1       6.969   4.010  12.260  0.00  0.00    +0.000 A 
ATOM     26  C   UNL     1       7.426   4.722  13.370  0.00  0.00    +0.000 A 
BRANCH  24  27
ATOM     27  O   UNL     1       5.372   2.609  11.237  0.00  0.00    +0.000 OA
ATOM     28  H   UNL     1       4.412   2.702  11.112  0.00  0.00    +0.000 HD
ENDBRANCH  24  27
ENDBRANCH  20  21
ENDBRANCH  15  20
TORSDOF 4
ENDMDL
MODEL 9
REMARK VINA RESULT:      -7.0      3.450      8.792
REMARK  Name = 
REMARK  4 active torsions:
REMARK  status: ('A' for Active; 'I' for Inactive)
REMARK    1  A    between atoms: C_9  and  S_10
REMARK    2  A    between atoms: N_19  and  C_20
REMARK    3  A    between atoms: C_20  and  C_21
REMARK    4  A    between atoms: C_24  and  O_25
REMARK                            x       y       z     vdW  Elec       q    Type
REMARK                         _______ _______ _______ _____ _____    ______ ____
ROOT
ATOM      1  O   UNL     1       1.437  11.902  20.962  0.00  0.00    +0.000 OA
ATOM      2  C   UNL     1       0.343  11.525  20.542  0.00  0.00    +0.000 C 
ATOM      3  C   UNL     1      -0.870  12.080  21.184  0.00  0.00    +0.000 A 
ATOM      4  C   UNL     1      -0.752  12.770  22.401  0.00  0.00    +0.000 A 
ATOM      5  C   UNL     1      -1.831  13.492  22.902  0.00  0.00    +0.000 A 
ATOM      6  C   UNL     1      -3.033  13.518  22.200  0.00  0.00    +0.000 A 
ATOM      7  C   UNL     1      -3.176  12.798  21.006  0.00  0.00    +0.000 A 
ATOM      8  C   UNL     1      -4.370  12.853  20.292  0.00  0.00    +0.000 A 
ATOM      9  C   UNL     1      -4.473  12.180  19.074  0.00  0.00    +0.000 A 
ATOM     10  C   UNL     1      -3.402  11.457  18.544  0.00  0.00    +0.000 A 
ATOM     11  C   UNL     1      -2.202  11.403  19.255  0.00  0.00    +0.000 A 
ATOM     12  C   UNL     1      -2.077  12.062  20.487  0.00  0.00    +0.000 A 
ATOM     13  C   UNL     1      -0.998  10.804  18.627  0.00  0.00    +0.000 C 
ATOM     14  O   UNL     1      -1.033  10.539  17.430  0.00  0.00    +0.000 OA
ATOM     15  N   UNL     1       0.184  10.797  19.368  0.00  0.00    +0.000 N 
ENDROOT
BRANCH   9  16
ATOM     16  S   UNL     1      -5.972  12.342  18.071  0.00  0.00    +0.000 S 
ATOM     17  O   UNL     1      -6.716  11.180  18.545  0.00  0.00    +0.000 OA
ATOM     18  O   UNL     1      -6.450  13.652  18.491  0.00  0.00    +0.000 OA
ATOM     19  O   UNL     1      -5.463  12.249  16.702  0.00  0.00    +0.000 OA
ENDBRANCH   9  16
BRANCH  15  20
ATOM     20  C   UNL     1       1.404  10.348  18.672  0.00  0.00    +0.000 C 
BRANCH  20  21
ATOM     21  C   UNL     1       1.727   8.894  18.920  0.00  0.00    +0.000 A 
ATOM     22  C   UNL     1       1.458   8.315  20.170  0.00  0.00    +0.000 A 
ATOM     23  C   UNL     1       1.864   7.009  20.450  0.00  0.00    +0.000 A 
ATOM     24  C   UNL     1       2.520   6.273  19.471  0.00  0.00    +0.000 A 
ATOM     25  C   UNL     1       2.727   6.802  18.203  0.00  0.00    +0.000 A 
ATOM     26  C   UNL     1       2.333   8.112  17.925  0.00  0.00    +0.000 A 
BRANCH  24  27
ATOM     27  O   UNL     1       2.995   5.021  19.724  0.00  0.00    +0.000 OA
ATOM     28  H   UNL     1       3.245   4.970  20.662  0.00  0.00    +0.000 HD
ENDBRANCH  24  27
ENDBRANCH  20  21
ENDBRANCH  15  20
TORSDOF 4
ENDMDL
