MODEL 1
REMARK VINA RESULT:      -7.7      0.000      0.000
REMARK  Name = 
REMARK  8 active torsions:
REMARK  status: ('A' for Active; 'I' for Inactive)
REMARK    1  A    between atoms: C_1  and  C_2
REMARK    2  A    between atoms: C_2  and  C_3
REMARK    3  A    between atoms: C_3  and  N_4
REMARK    4  A    between atoms: C_9  and  O_10
REMARK    5  A    between atoms: O_10  and  C_11
REMARK    6  A    between atoms: C_21  and  O_22
REMARK    7  A    between atoms: O_22  and  C_23
REMARK    8  A    between atoms: C_23  and  C_24
REMARK                            x       y       z     vdW  Elec       q    Type
REMARK                         _______ _______ _______ _____ _____    ______ ____
ROOT
ATOM      1  N   UNL     1       5.156   5.293  16.667  0.00  0.00    +0.000 NA
ATOM      2  C   UNL     1       5.171   3.885  17.202  0.00  0.00    +0.000 C 
ATOM      3  C   UNL     1       3.795   3.286  17.416  0.00  0.00    +0.000 C 
ATOM      4  C   UNL     1       3.244   4.081  18.564  0.00  0.00    +0.000 A 
ATOM      5  C   UNL     1       2.792   3.446  19.707  0.00  0.00    +0.000 A 
ATOM      6  C   UNL     1       2.478   4.219  20.805  0.00  0.00    +0.000 A 
ATOM      7  C   UNL     1       2.430   5.609  20.682  0.00  0.00    +0.000 A 
ATOM      8  C   UNL     1       2.744   6.289  19.484  0.00  0.00    +0.000 A 
ATOM      9  C   UNL     1       3.314   5.494  18.471  0.00  0.00    +0.000 A 
ATOM     10  C   UNL     1       3.912   6.040  17.168  0.00  0.00    +0.000 C 
ATOM     11  C   UNL     1       3.649   7.559  16.965  0.00  0.00    +0.000 C 
ATOM     12  C   UNL     1       2.648   8.243  17.924  0.00  0.00    +0.000 A 
ATOM     13  C   UNL     1       2.052   9.436  17.505  0.00  0.00    +0.000 A 
ATOM     14  C   UNL     1       1.148  10.138  18.336  0.00  0.00    +0.000 A 
ATOM     15  C   UNL     1       0.882   9.678  19.618  0.00  0.00    +0.000 A 
ATOM     16  C   UNL     1       1.472   8.480  20.065  0.00  0.00    +0.000 A 
ATOM     17  C   UNL     1       2.339   7.701  19.196  0.00  0.00    +0.000 A 
ENDROOT
BRANCH   6  18
ATOM     18  O   UNL     1       2.160   3.700  22.030  0.00  0.00    +0.000 OA
ATOM     19  C   UNL     1       1.465   2.456  21.943  0.00  0.00    +0.000 C 
ENDBRANCH   6  18
BRANCH   1  20
ATOM     20  C   UNL     1       6.554   5.735  16.844  0.00  0.00    +0.000 C 
BRANCH  20  22
ATOM     21  C   UNL     1       7.739   7.874  17.668  0.00  0.00    +0.000 C 
ATOM     22  C   UNL     1       7.062   6.561  18.027  0.00  0.00    +0.000 C 
ENDBRANCH  20  22
ENDBRANCH   1  20
BRANCH  16  23
ATOM     23  O   UNL     1       1.239   8.012  21.338  0.00  0.00    +0.000 OA
BRANCH  23  24
ATOM     24  C   UNL     1       1.337   8.856  22.482  0.00  0.00    +0.000 C 
BRANCH  24  25
ATOM     25  C   UNL     1      -0.076   9.259  22.885  0.00  0.00    +0.000 C 
ATOM     26  F   UNL     1      -0.970   8.391  22.340  0.00  0.00    +0.000 F 
ENDBRANCH  24  25
ENDBRANCH  23  24
ENDBRANCH  16  23
TORSDOF 6
ENDMDL
MODEL 2
REMARK VINA RESULT:      -7.2      1.005      1.225
REMARK  Name = 
REMARK  8 active torsions:
REMARK  status: ('A' for Active; 'I' for Inactive)
REMARK    1  A    between atoms: C_1  and  C_2
REMARK    2  A    between atoms: C_2  and  C_3
REMARK    3  A    between atoms: C_3  and  N_4
REMARK    4  A    between atoms: C_9  and  O_10
REMARK    5  A    between atoms: O_10  and  C_11
REMARK    6  A    between atoms: C_21  and  O_22
REMARK    7  A    between atoms: O_22  and  C_23
REMARK    8  A    between atoms: C_23  and  C_24
REMARK                            x       y       z     vdW  Elec       q    Type
REMARK                         _______ _______ _______ _____ _____    ______ ____
ROOT
ATOM      1  N   UNL     1       4.749   5.007  16.729  0.00  0.00    +0.000 NA
ATOM      2  C   UNL     1       4.492   3.580  17.135  0.00  0.00    +0.000 C 
ATOM      3  C   UNL     1       3.025   3.202  17.188  0.00  0.00    +0.000 C 
ATOM      4  C   UNL     1       2.506   3.988  18.357  0.00  0.00    +0.000 A 
ATOM      5  C   UNL     1       1.858   3.351  19.400  0.00  0.00    +0.000 A 
ATOM      6  C   UNL     1       1.572   4.079  20.536  0.00  0.00    +0.000 A 
ATOM      7  C   UNL     1       1.756   5.464  20.534  0.00  0.00    +0.000 A 
ATOM      8  C   UNL     1       2.281   6.171  19.430  0.00  0.00    +0.000 A 
ATOM      9  C   UNL     1       2.807   5.372  18.396  0.00  0.00    +0.000 A 
ATOM     10  C   UNL     1       3.599   5.909  17.198  0.00  0.00    +0.000 C 
ATOM     11  C   UNL     1       3.600   7.462  17.112  0.00  0.00    +0.000 C 
ATOM     12  C   UNL     1       2.637   8.227  18.048  0.00  0.00    +0.000 A 
ATOM     13  C   UNL     1       2.278   9.530  17.694  0.00  0.00    +0.000 A 
ATOM     14  C   UNL     1       1.425  10.307  18.512  0.00  0.00    +0.000 A 
ATOM     15  C   UNL     1       0.975   9.802  19.724  0.00  0.00    +0.000 A 
ATOM     16  C   UNL     1       1.325   8.491  20.105  0.00  0.00    +0.000 A 
ATOM     17  C   UNL     1       2.132   7.648  19.239  0.00  0.00    +0.000 A 
ENDROOT
BRANCH   6  18
ATOM     18  O   UNL     1       1.066   3.528  21.681  0.00  0.00    +0.000 OA
ATOM     19  C   UNL     1       1.685   2.288  22.021  0.00  0.00    +0.000 C 
ENDBRANCH   6  18
BRANCH   1  20
ATOM     20  C   UNL     1       6.177   5.197  17.051  0.00  0.00    +0.000 C 
BRANCH  20  22
ATOM     21  C   UNL     1       7.019   4.834  14.639  0.00  0.00    +0.000 C 
ATOM     22  C   UNL     1       7.281   5.423  16.016  0.00  0.00    +0.000 C 
ENDBRANCH  20  22
ENDBRANCH   1  20
BRANCH  16  23
ATOM     23  O   UNL     1       0.906   7.974  21.310  0.00  0.00    +0.000 OA
BRANCH  23  24
ATOM     24  C   UNL     1      -0.298   8.404  21.939  0.00  0.00    +0.000 C 
BRANCH  24  25
ATOM     25  C   UNL     1       0.081   9.345  23.074  0.00  0.00    +0.000 C 
ATOM     26  F   UNL     1      -1.019  10.033  23.482  0.00  0.00    +0.000 F 
ENDBRANCH  24  25
ENDBRANCH  23  24
ENDBRANCH  16  23
TORSDOF 6
ENDMDL
MODEL 3
REMARK VINA RESULT:      -6.9      2.601      5.744
REMARK  Name = 
REMARK  8 active torsions:
REMARK  status: ('A' for Active; 'I' for Inactive)
REMARK    1  A    between atoms: C_1  and  C_2
REMARK    2  A    between atoms: C_2  and  C_3
REMARK    3  A    between atoms: C_3  and  N_4
REMARK    4  A    between atoms: C_9  and  O_10
REMARK    5  A    between atoms: O_10  and  C_11
REMARK    6  A    between atoms: C_21  and  O_22
REMARK    7  A    between atoms: O_22  and  C_23
REMARK    8  A    between atoms: C_23  and  C_24
REMARK                            x       y       z     vdW  Elec       q    Type
REMARK                         _______ _______ _______ _____ _____    ______ ____
ROOT
ATOM      1  N   UNL     1       1.686   9.191  18.877  0.00  0.00    +0.000 NA
ATOM      2  C   UNL     1       0.880   8.880  20.111  0.00  0.00    +0.000 C 
ATOM      3  C   UNL     1       1.621   8.061  21.149  0.00  0.00    +0.000 C 
ATOM      4  C   UNL     1       1.771   6.720  20.492  0.00  0.00    +0.000 A 
ATOM      5  C   UNL     1       1.311   5.575  21.118  0.00  0.00    +0.000 A 
ATOM      6  C   UNL     1       1.293   4.397  20.400  0.00  0.00    +0.000 A 
ATOM      7  C   UNL     1       1.912   4.341  19.149  0.00  0.00    +0.000 A 
ATOM      8  C   UNL     1       2.522   5.459  18.539  0.00  0.00    +0.000 A 
ATOM      9  C   UNL     1       2.290   6.694  19.173  0.00  0.00    +0.000 A 
ATOM     10  C   UNL     1       2.682   8.059  18.593  0.00  0.00    +0.000 C 
ATOM     11  C   UNL     1       3.557   7.949  17.312  0.00  0.00    +0.000 C 
ATOM     12  C   UNL     1       4.111   6.554  16.945  0.00  0.00    +0.000 A 
ATOM     13  C   UNL     1       5.232   6.493  16.112  0.00  0.00    +0.000 A 
ATOM     14  C   UNL     1       5.781   5.254  15.707  0.00  0.00    +0.000 A 
ATOM     15  C   UNL     1       5.172   4.067  16.087  0.00  0.00    +0.000 A 
ATOM     16  C   UNL     1       4.040   4.101  16.924  0.00  0.00    +0.000 A 
ATOM     17  C   UNL     1       3.510   5.361  17.418  0.00  0.00    +0.000 A 
ENDROOT
BRANCH   6  18
ATOM     18  O   UNL     1       0.731   3.238  20.860  0.00  0.00    +0.000 OA
ATOM     19  C   UNL     1       1.561   2.554  21.799  0.00  0.00    +0.000 C 
ENDBRANCH   6  18
BRANCH   1  20
ATOM     20  C   UNL     1       0.672   9.701  17.933  0.00  0.00    +0.000 C 
BRANCH  20  22
ATOM     21  C   UNL     1      -1.875  10.086  17.784  0.00  0.00    +0.000 C 
ATOM     22  C   UNL     1      -0.535  10.554  18.328  0.00  0.00    +0.000 C 
ENDBRANCH  20  22
ENDBRANCH   1  20
BRANCH  16  23
ATOM     23  O   UNL     1       3.407   2.937  17.300  0.00  0.00    +0.000 OA
BRANCH  23  24
ATOM     24  C   UNL     1       4.122   1.830  17.842  0.00  0.00    +0.000 C 
BRANCH  24  25
ATOM     25  C   UNL     1       4.178   2.007  19.353  0.00  0.00    +0.000 C 
ATOM     26  F   UNL     1       4.975   3.066  19.659  0.00  0.00    +0.000 F 
ENDBRANCH  24  25
ENDBRANCH  23  24
ENDBRANCH  16  23
TORSDOF 6
ENDMDL
MODEL 4
REMARK VINA RESULT:      -6.5      1.894      2.927
REMARK  Name = 
REMARK  8 active torsions:
REMARK  status: ('A' for Active; 'I' for Inactive)
REMARK    1  A    between atoms: C_1  and  C_2
REMARK    2  A    between atoms: C_2  and  C_3
REMARK    3  A    between atoms: C_3  and  N_4
REMARK    4  A    between atoms: C_9  and  O_10
REMARK    5  A    between atoms: O_10  and  C_11
REMARK    6  A    between atoms: C_21  and  O_22
REMARK    7  A    between atoms: O_22  and  C_23
REMARK    8  A    between atoms: C_23  and  C_24
REMARK                            x       y       z     vdW  Elec       q    Type
REMARK                         _______ _______ _______ _____ _____    ______ ____
ROOT
ATOM      1  N   UNL     1       6.220   6.431  15.832  0.00  0.00    +0.000 NA
ATOM      2  C   UNL     1       6.571   5.000  15.521  0.00  0.00    +0.000 C 
ATOM      3  C   UNL     1       5.374   4.111  15.247  0.00  0.00    +0.000 C 
ATOM      4  C   UNL     1       4.700   4.014  16.584  0.00  0.00    +0.000 A 
ATOM      5  C   UNL     1       4.445   2.780  17.155  0.00  0.00    +0.000 A 
ATOM      6  C   UNL     1       4.004   2.740  18.461  0.00  0.00    +0.000 A 
ATOM      7  C   UNL     1       3.639   3.925  19.104  0.00  0.00    +0.000 A 
ATOM      8  C   UNL     1       3.749   5.196  18.499  0.00  0.00    +0.000 A 
ATOM      9  C   UNL     1       4.446   5.225  17.276  0.00  0.00    +0.000 A 
ATOM     10  C   UNL     1       4.859   6.504  16.537  0.00  0.00    +0.000 C 
ATOM     11  C   UNL     1       4.253   7.793  17.163  0.00  0.00    +0.000 C 
ATOM     12  C   UNL     1       3.159   7.615  18.241  0.00  0.00    +0.000 A 
ATOM     13  C   UNL     1       2.295   8.687  18.478  0.00  0.00    +0.000 A 
ATOM     14  C   UNL     1       1.286   8.614  19.467  0.00  0.00    +0.000 A 
ATOM     15  C   UNL     1       1.177   7.485  20.266  0.00  0.00    +0.000 A 
ATOM     16  C   UNL     1       2.038   6.391  20.048  0.00  0.00    +0.000 A 
ATOM     17  C   UNL     1       3.026   6.415  18.982  0.00  0.00    +0.000 A 
ENDROOT
BRANCH   6  18
ATOM     18  O   UNL     1       3.855   1.583  19.176  0.00  0.00    +0.000 OA
ATOM     19  C   UNL     1       4.632   1.567  20.373  0.00  0.00    +0.000 C 
ENDBRANCH   6  18
BRANCH   1  20
ATOM     20  C   UNL     1       7.487   6.984  16.350  0.00  0.00    +0.000 C 
BRANCH  20  22
ATOM     21  C   UNL     1       8.118   8.908  17.949  0.00  0.00    +0.000 C 
ATOM     22  C   UNL     1       7.709   7.453  17.789  0.00  0.00    +0.000 C 
ENDBRANCH  20  22
ENDBRANCH   1  20
BRANCH  16  23
ATOM     23  O   UNL     1       1.962   5.267  20.839  0.00  0.00    +0.000 OA
BRANCH  23  24
ATOM     24  C   UNL     1       0.916   4.311  20.693  0.00  0.00    +0.000 C 
BRANCH  24  25
ATOM     25  C   UNL     1       1.365   3.023  21.370  0.00  0.00    +0.000 C 
ATOM     26  F   UNL     1       2.404   3.287  22.208  0.00  0.00    +0.000 F 
ENDBRANCH  24  25
ENDBRANCH  23  24
ENDBRANCH  16  23
TORSDOF 6
ENDMDL
MODEL 5
REMARK VINA RESULT:      -6.2      6.494     10.432
REMARK  Name = 
REMARK  8 active torsions:
REMARK  status: ('A' for Active; 'I' for Inactive)
REMARK    1  A    between atoms: C_1  and  C_2
REMARK    2  A    between atoms: C_2  and  C_3
REMARK    3  A    between atoms: C_3  and  N_4
REMARK    4  A    between atoms: C_9  and  O_10
REMARK    5  A    between atoms: O_10  and  C_11
REMARK    6  A    between atoms: C_21  and  O_22
REMARK    7  A    between atoms: O_22  and  C_23
REMARK    8  A    between atoms: C_23  and  C_24
REMARK                            x       y       z     vdW  Elec       q    Type
REMARK                         _______ _______ _______ _____ _____    ______ ____
ROOT
ATOM      1  N   UNL     1      -6.487  13.477  19.675  0.00  0.00    +0.000 NA
ATOM      2  C   UNL     1      -6.944  13.040  18.308  0.00  0.00    +0.000 C 
ATOM      3  C   UNL     1      -6.685  11.578  18.003  0.00  0.00    +0.000 C 
ATOM      4  C   UNL     1      -5.189  11.503  17.903  0.00  0.00    +0.000 A 
ATOM      5  C   UNL     1      -4.585  10.995  16.767  0.00  0.00    +0.000 A 
ATOM      6  C   UNL     1      -3.218  11.124  16.639  0.00  0.00    +0.000 A 
ATOM      7  C   UNL     1      -2.460  11.574  17.723  0.00  0.00    +0.000 A 
ATOM      8  C   UNL     1      -3.032  11.965  18.953  0.00  0.00    +0.000 A 
ATOM      9  C   UNL     1      -4.436  12.074  18.959  0.00  0.00    +0.000 A 
ATOM     10  C   UNL     1      -5.259  12.666  20.111  0.00  0.00    +0.000 C 
ATOM     11  C   UNL     1      -4.412  12.955  21.382  0.00  0.00    +0.000 C 
ATOM     12  C   UNL     1      -2.969  12.401  21.417  0.00  0.00    +0.000 A 
ATOM     13  C   UNL     1      -2.361  12.237  22.665  0.00  0.00    +0.000 A 
ATOM     14  C   UNL     1      -1.034  11.763  22.781  0.00  0.00    +0.000 A 
ATOM     15  C   UNL     1      -0.286  11.508  21.641  0.00  0.00    +0.000 A 
ATOM     16  C   UNL     1      -0.874  11.668  20.371  0.00  0.00    +0.000 A 
ATOM     17  C   UNL     1      -2.263  12.074  20.233  0.00  0.00    +0.000 A 
ENDROOT
BRANCH   6  18
ATOM     18  O   UNL     1      -2.528  10.791  15.505  0.00  0.00    +0.000 OA
ATOM     19  C   UNL     1      -3.340  10.127  14.537  0.00  0.00    +0.000 C 
ENDBRANCH   6  18
BRANCH   1  20
ATOM     20  C   UNL     1      -6.563  14.950  19.601  0.00  0.00    +0.000 C 
BRANCH  20  22
ATOM     21  C   UNL     1      -6.417  17.055  18.115  0.00  0.00    +0.000 C 
ATOM     22  C   UNL     1      -7.111  15.734  18.407  0.00  0.00    +0.000 C 
ENDBRANCH  20  22
ENDBRANCH   1  20
BRANCH  16  23
ATOM     23  O   UNL     1      -0.147  11.438  19.224  0.00  0.00    +0.000 OA
BRANCH  23  24
ATOM     24  C   UNL     1       1.182  10.926  19.263  0.00  0.00    +0.000 C 
BRANCH  24  25
ATOM     25  C   UNL     1       1.276   9.799  18.243  0.00  0.00    +0.000 C 
ATOM     26  F   UNL     1       0.062   9.610  17.659  0.00  0.00    +0.000 F 
ENDBRANCH  24  25
ENDBRANCH  23  24
ENDBRANCH  16  23
TORSDOF 6
ENDMDL
MODEL 6
REMARK VINA RESULT:      -6.0      2.052      3.379
REMARK  Name = 
REMARK  8 active torsions:
REMARK  status: ('A' for Active; 'I' for Inactive)
REMARK    1  A    between atoms: C_1  and  C_2
REMARK    2  A    between atoms: C_2  and  C_3
REMARK    3  A    between atoms: C_3  and  N_4
REMARK    4  A    between atoms: C_9  and  O_10
REMARK    5  A    between atoms: O_10  and  C_11
REMARK    6  A    between atoms: C_21  and  O_22
REMARK    7  A    between atoms: O_22  and  C_23
REMARK    8  A    between atoms: C_23  and  C_24
REMARK                            x       y       z     vdW  Elec       q    Type
REMARK                         _______ _______ _______ _____ _____    ______ ____
ROOT
ATOM      1  N   UNL     1       6.073   6.643  16.045  0.00  0.00    +0.000 NA
ATOM      2  C   UNL     1       6.474   5.313  15.463  0.00  0.00    +0.000 C 
ATOM      3  C   UNL     1       5.308   4.420  15.088  0.00  0.00    +0.000 C 
ATOM      4  C   UNL     1       4.715   4.047  16.416  0.00  0.00    +0.000 A 
ATOM      5  C   UNL     1       4.552   2.718  16.764  0.00  0.00    +0.000 A 
ATOM      6  C   UNL     1       4.188   2.420  18.060  0.00  0.00    +0.000 A 
ATOM      7  C   UNL     1       3.803   3.449  18.924  0.00  0.00    +0.000 A 
ATOM      8  C   UNL     1       3.817   4.811  18.555  0.00  0.00    +0.000 A 
ATOM      9  C   UNL     1       4.443   5.098  17.327  0.00  0.00    +0.000 A 
ATOM     10  C   UNL     1       4.751   6.510  16.814  0.00  0.00    +0.000 C 
ATOM     11  C   UNL     1       4.120   7.630  17.691  0.00  0.00    +0.000 C 
ATOM     12  C   UNL     1       3.097   7.199  18.767  0.00  0.00    +0.000 A 
ATOM     13  C   UNL     1       2.197   8.160  19.236  0.00  0.00    +0.000 A 
ATOM     14  C   UNL     1       1.250   7.853  20.241  0.00  0.00    +0.000 A 
ATOM     15  C   UNL     1       1.241   6.595  20.826  0.00  0.00    +0.000 A 
ATOM     16  C   UNL     1       2.140   5.610  20.373  0.00  0.00    +0.000 A 
ATOM     17  C   UNL     1       3.064   5.880  19.285  0.00  0.00    +0.000 A 
ENDROOT
BRANCH   6  18
ATOM     18  O   UNL     1       4.135   1.148  18.559  0.00  0.00    +0.000 OA
ATOM     19  C   UNL     1       4.646   1.051  19.889  0.00  0.00    +0.000 C 
ENDBRANCH   6  18
BRANCH   1  20
ATOM     20  C   UNL     1       7.339   7.166  16.595  0.00  0.00    +0.000 C 
BRANCH  20  22
ATOM     21  C   UNL     1       7.720   5.844  18.779  0.00  0.00    +0.000 C 
ATOM     22  C   UNL     1       7.695   7.196  18.083  0.00  0.00    +0.000 C 
ENDBRANCH  20  22
ENDBRANCH   1  20
BRANCH  16  23
ATOM     23  O   UNL     1       2.162   4.360  20.949  0.00  0.00    +0.000 OA
BRANCH  23  24
ATOM     24  C   UNL     1       0.990   3.558  21.060  0.00  0.00    +0.000 C 
BRANCH  24  25
ATOM     25  C   UNL     1       0.953   2.620  19.861  0.00  0.00    +0.000 C 
ATOM     26  F   UNL     1       0.605   3.319  18.746  0.00  0.00    +0.000 F 
ENDBRANCH  24  25
ENDBRANCH  23  24
ENDBRANCH  16  23
TORSDOF 6
ENDMDL
MODEL 7
REMARK VINA RESULT:      -6.0      0.941      1.087
REMARK  Name = 
REMARK  8 active torsions:
REMARK  status: ('A' for Active; 'I' for Inactive)
REMARK    1  A    between atoms: C_1  and  C_2
REMARK    2  A    between atoms: C_2  and  C_3
REMARK    3  A    between atoms: C_3  and  N_4
REMARK    4  A    between atoms: C_9  and  O_10
REMARK    5  A    between atoms: O_10  and  C_11
REMARK    6  A    between atoms: C_21  and  O_22
REMARK    7  A    between atoms: O_22  and  C_23
REMARK    8  A    between atoms: C_23  and  C_24
REMARK                            x       y       z     vdW  Elec       q    Type
REMARK                         _______ _______ _______ _____ _____    ______ ____
ROOT
ATOM      1  N   UNL     1       5.833   5.578  16.285  0.00  0.00    +0.000 NA
ATOM      2  C   UNL     1       5.765   4.090  16.509  0.00  0.00    +0.000 C 
ATOM      3  C   UNL     1       4.376   3.500  16.363  0.00  0.00    +0.000 C 
ATOM      4  C   UNL     1       3.636   4.057  17.544  0.00  0.00    +0.000 A 
ATOM      5  C   UNL     1       3.003   3.213  18.438  0.00  0.00    +0.000 A 
ATOM      6  C   UNL     1       2.504   3.751  19.606  0.00  0.00    +0.000 A 
ATOM      7  C   UNL     1       2.469   5.138  19.769  0.00  0.00    +0.000 A 
ATOM      8  C   UNL     1       2.976   6.040  18.809  0.00  0.00    +0.000 A 
ATOM      9  C   UNL     1       3.713   5.456  17.761  0.00  0.00    +0.000 A 
ATOM     10  C   UNL     1       4.518   6.241  16.718  0.00  0.00    +0.000 C 
ATOM     11  C   UNL     1       4.284   7.777  16.796  0.00  0.00    +0.000 C 
ATOM     12  C   UNL     1       3.132   8.277  17.697  0.00  0.00    +0.000 A 
ATOM     13  C   UNL     1       2.608   9.548  17.444  0.00  0.00    +0.000 A 
ATOM     14  C   UNL     1       1.574  10.089  18.242  0.00  0.00    +0.000 A 
ATOM     15  C   UNL     1       1.099   9.383  19.338  0.00  0.00    +0.000 A 
ATOM     16  C   UNL     1       1.612   8.101  19.616  0.00  0.00    +0.000 A 
ATOM     17  C   UNL     1       2.617   7.493  18.759  0.00  0.00    +0.000 A 
ENDROOT
BRANCH   6  18
ATOM     18  O   UNL     1       1.987   3.000  20.626  0.00  0.00    +0.000 OA
ATOM     19  C   UNL     1       2.218   3.576  21.911  0.00  0.00    +0.000 C 
ENDBRANCH   6  18
BRANCH   1  20
ATOM     20  C   UNL     1       7.178   5.932  16.779  0.00  0.00    +0.000 C 
BRANCH  20  22
ATOM     21  C   UNL     1       7.676   5.725  19.303  0.00  0.00    +0.000 C 
ATOM     22  C   UNL     1       7.460   6.638  18.107  0.00  0.00    +0.000 C 
ENDBRANCH  20  22
ENDBRANCH   1  20
BRANCH  16  23
ATOM     23  O   UNL     1       1.171   7.387  20.707  0.00  0.00    +0.000 OA
BRANCH  23  24
ATOM     24  C   UNL     1       0.885   8.015  21.954  0.00  0.00    +0.000 C 
BRANCH  24  25
ATOM     25  C   UNL     1      -0.583   8.421  21.944  0.00  0.00    +0.000 C 
ATOM     26  F   UNL     1      -0.687   9.758  22.173  0.00  0.00    +0.000 F 
ENDBRANCH  24  25
ENDBRANCH  23  24
ENDBRANCH  16  23
TORSDOF 6
ENDMDL
MODEL 8
REMARK VINA RESULT:      -6.0      7.362      9.491
REMARK  Name = 
REMARK  8 active torsions:
REMARK  status: ('A' for Active; 'I' for Inactive)
REMARK    1  A    between atoms: C_1  and  C_2
REMARK    2  A    between atoms: C_2  and  C_3
REMARK    3  A    between atoms: C_3  and  N_4
REMARK    4  A    between atoms: C_9  and  O_10
REMARK    5  A    between atoms: O_10  and  C_11
REMARK    6  A    between atoms: C_21  and  O_22
REMARK    7  A    between atoms: O_22  and  C_23
REMARK    8  A    between atoms: C_23  and  C_24
REMARK                            x       y       z     vdW  Elec       q    Type
REMARK                         _______ _______ _______ _____ _____    ______ ____
ROOT
ATOM      1  N   UNL     1       0.184  12.330  21.250  0.00  0.00    +0.000 NA
ATOM      2  C   UNL     1      -0.376  12.912  22.521  0.00  0.00    +0.000 C 
ATOM      3  C   UNL     1      -1.576  12.166  23.071  0.00  0.00    +0.000 C 
ATOM      4  C   UNL     1      -2.652  12.448  22.064  0.00  0.00    +0.000 A 
ATOM      5  C   UNL     1      -3.856  13.004  22.459  0.00  0.00    +0.000 A 
ATOM      6  C   UNL     1      -4.735  13.424  21.482  0.00  0.00    +0.000 A 
ATOM      7  C   UNL     1      -4.488  13.103  20.145  0.00  0.00    +0.000 A 
ATOM      8  C   UNL     1      -3.337  12.406  19.719  0.00  0.00    +0.000 A 
ATOM      9  C   UNL     1      -2.340  12.230  20.699  0.00  0.00    +0.000 A 
ATOM     10  C   UNL     1      -0.935  11.681  20.423  0.00  0.00    +0.000 C 
ATOM     11  C   UNL     1      -0.765  11.134  18.977  0.00  0.00    +0.000 C 
ATOM     12  C   UNL     1      -2.042  10.982  18.119  0.00  0.00    +0.000 A 
ATOM     13  C   UNL     1      -2.001  10.098  17.037  0.00  0.00    +0.000 A 
ATOM     14  C   UNL     1      -3.118   9.924  16.187  0.00  0.00    +0.000 A 
ATOM     15  C   UNL     1      -4.263  10.683  16.381  0.00  0.00    +0.000 A 
ATOM     16  C   UNL     1      -4.328  11.583  17.462  0.00  0.00    +0.000 A 
ATOM     17  C   UNL     1      -3.222  11.715  18.396  0.00  0.00    +0.000 A 
ENDROOT
BRANCH   6  18
ATOM     18  O   UNL     1      -5.886  14.114  21.746  0.00  0.00    +0.000 OA
ATOM     19  C   UNL     1      -6.558  14.545  20.562  0.00  0.00    +0.000 C 
ENDBRANCH   6  18
BRANCH   1  20
ATOM     20  C   UNL     1       1.104  13.382  20.775  0.00  0.00    +0.000 C 
BRANCH  20  22
ATOM     21  C   UNL     1      -0.316  15.161  19.558  0.00  0.00    +0.000 C 
ATOM     22  C   UNL     1       0.885  14.229  19.519  0.00  0.00    +0.000 C 
ENDBRANCH  20  22
ENDBRANCH   1  20
BRANCH  16  23
ATOM     23  O   UNL     1      -5.447  12.360  17.665  0.00  0.00    +0.000 OA
BRANCH  23  24
ATOM     24  C   UNL     1      -6.763  11.816  17.615  0.00  0.00    +0.000 C 
BRANCH  24  25
ATOM     25  C   UNL     1      -7.007  11.068  18.919  0.00  0.00    +0.000 C 
ATOM     26  F   UNL     1      -6.767   9.742  18.734  0.00  0.00    +0.000 F 
ENDBRANCH  24  25
ENDBRANCH  23  24
ENDBRANCH  16  23
TORSDOF 6
ENDMDL
MODEL 9
REMARK VINA RESULT:      -6.0      6.642      8.648
REMARK  Name = 
REMARK  8 active torsions:
REMARK  status: ('A' for Active; 'I' for Inactive)
REMARK    1  A    between atoms: C_1  and  C_2
REMARK    2  A    between atoms: C_2  and  C_3
REMARK    3  A    between atoms: C_3  and  N_4
REMARK    4  A    between atoms: C_9  and  O_10
REMARK    5  A    between atoms: O_10  and  C_11
REMARK    6  A    between atoms: C_21  and  O_22
REMARK    7  A    between atoms: O_22  and  C_23
REMARK    8  A    between atoms: C_23  and  C_24
REMARK                            x       y       z     vdW  Elec       q    Type
REMARK                         _______ _______ _______ _____ _____    ______ ____
ROOT
ATOM      1  N   UNL     1       0.667  11.297  19.384  0.00  0.00    +0.000 NA
ATOM      2  C   UNL     1       1.113  11.322  20.823  0.00  0.00    +0.000 C 
ATOM      3  C   UNL     1       0.233  10.520  21.761  0.00  0.00    +0.000 C 
ATOM      4  C   UNL     1      -1.049  11.300  21.788  0.00  0.00    +0.000 A 
ATOM      5  C   UNL     1      -1.582  11.735  22.988  0.00  0.00    +0.000 A 
ATOM      6  C   UNL     1      -2.649  12.608  22.953  0.00  0.00    +0.000 A 
ATOM      7  C   UNL     1      -3.285  12.874  21.738  0.00  0.00    +0.000 A 
ATOM      8  C   UNL     1      -2.857  12.330  20.508  0.00  0.00    +0.000 A 
ATOM      9  C   UNL     1      -1.617  11.664  20.541  0.00  0.00    +0.000 A 
ATOM     10  C   UNL     1      -0.860  11.167  19.303  0.00  0.00    +0.000 C 
ATOM     11  C   UNL     1      -1.691  11.283  17.993  0.00  0.00    +0.000 C 
ATOM     12  C   UNL     1      -3.192  11.626  18.129  0.00  0.00    +0.000 A 
ATOM     13  C   UNL     1      -4.038  11.293  17.068  0.00  0.00    +0.000 A 
ATOM     14  C   UNL     1      -5.418  11.600  17.104  0.00  0.00    +0.000 A 
ATOM     15  C   UNL     1      -5.948  12.298  18.180  0.00  0.00    +0.000 A 
ATOM     16  C   UNL     1      -5.115  12.647  19.261  0.00  0.00    +0.000 A 
ATOM     17  C   UNL     1      -3.712  12.268  19.281  0.00  0.00    +0.000 A 
ENDROOT
BRANCH   6  18
ATOM     18  O   UNL     1      -3.167  13.215  24.064  0.00  0.00    +0.000 OA
ATOM     19  C   UNL     1      -4.297  12.525  24.597  0.00  0.00    +0.000 C 
ENDBRANCH   6  18
BRANCH   1  20
ATOM     20  C   UNL     1       1.473  12.367  18.763  0.00  0.00    +0.000 C 
BRANCH  20  22
ATOM     21  C   UNL     1       0.104  14.554  18.809  0.00  0.00    +0.000 C 
ATOM     22  C   UNL     1       1.404  13.846  19.152  0.00  0.00    +0.000 C 
ENDBRANCH  20  22
ENDBRANCH   1  20
BRANCH  16  23
ATOM     23  O   UNL     1      -5.612  13.355  20.332  0.00  0.00    +0.000 OA
BRANCH  23  24
ATOM     24  C   UNL     1      -6.977  13.261  20.731  0.00  0.00    +0.000 C 
BRANCH  24  25
ATOM     25  C   UNL     1      -7.082  12.154  21.771  0.00  0.00    +0.000 C 
ATOM     26  F   UNL     1      -7.357  10.974  21.153  0.00  0.00    +0.000 F 
ENDBRANCH  24  25
ENDBRANCH  23  24
ENDBRANCH  16  23
TORSDOF 6
ENDMDL
