MODEL 1
REMARK VINA RESULT:      -7.7      0.000      0.000
REMARK  Name = 
REMARK  5 active torsions:
REMARK  status: ('A' for Active; 'I' for Inactive)
REMARK    1  A    between atoms: C_1  and  O_2
REMARK    2  A    between atoms: O_2  and  C_3
REMARK    3  A    between atoms: N_10  and  C_11
REMARK    4  A    between atoms: C_20  and  O_21
REMARK    5  A    between atoms: O_21  and  C_22
REMARK                            x       y       z     vdW  Elec       q    Type
REMARK                         _______ _______ _______ _____ _____    ______ ____
ROOT
ATOM      1  C   UNL     1       6.980   4.740  14.064  0.00  0.00    +0.000 A 
ATOM      2  C   UNL     1       7.545   5.187  15.273  0.00  0.00    +0.000 A 
ATOM      3  C   UNL     1       6.931   5.000  16.502  0.00  0.00    +0.000 A 
ATOM      4  N   UNL     1       7.575   5.388  17.608  0.00  0.00    +0.000 NA
ATOM      5  C   UNL     1       6.957   5.154  18.767  0.00  0.00    +0.000 A 
ATOM      6  N   UNL     1       5.769   4.574  18.920  0.00  0.00    +0.000 NA
ATOM      7  C   UNL     1       5.127   4.184  17.801  0.00  0.00    +0.000 A 
ATOM      8  N   UNL     1       3.882   3.514  17.930  0.00  0.00    +0.000 N 
ATOM      9  C   UNL     1       5.674   4.394  16.529  0.00  0.00    +0.000 A 
ATOM     10  C   UNL     1       5.047   4.046  15.314  0.00  0.00    +0.000 A 
ATOM     11  C   UNL     1       5.692   4.195  14.082  0.00  0.00    +0.000 A 
ATOM     12  H   UNL     1       3.950   2.589  17.506  0.00  0.00    +0.000 HD
ENDROOT
BRANCH   8  13
ATOM     13  C   UNL     1       3.151   3.458  19.140  0.00  0.00    +0.000 A 
ATOM     14  C   UNL     1       2.076   4.326  19.368  0.00  0.00    +0.000 A 
ATOM     15  C   UNL     1       1.411   4.331  20.593  0.00  0.00    +0.000 A 
ATOM     16  C   UNL     1       1.802   3.448  21.599  0.00  0.00    +0.000 A 
ATOM     17  C   UNL     1       2.843   2.547  21.371  0.00  0.00    +0.000 A 
ATOM     18  C   UNL     1       3.500   2.552  20.146  0.00  0.00    +0.000 A 
ATOM     19  F   UNL     1       4.504   1.690  19.940  0.00  0.00    +0.000 F 
ENDBRANCH   8  13
BRANCH   1  21
ATOM     20  C   UNL     1       8.626   5.904  12.818  0.00  0.00    +0.000 C 
ATOM     21  O   UNL     1       7.659   4.851  12.878  0.00  0.00    +0.000 OA
ENDBRANCH   1  21
BRANCH  11  22
ATOM     22  O   UNL     1       4.915   3.733  13.060  0.00  0.00    +0.000 OA
ATOM     23  C   UNL     1       5.487   2.980  12.007  0.00  0.00    +0.000 C 
ENDBRANCH  11  22
TORSDOF 3
ENDMDL
MODEL 2
REMARK VINA RESULT:      -7.7      1.017      1.445
REMARK  Name = 
REMARK  5 active torsions:
REMARK  status: ('A' for Active; 'I' for Inactive)
REMARK    1  A    between atoms: C_1  and  O_2
REMARK    2  A    between atoms: O_2  and  C_3
REMARK    3  A    between atoms: N_10  and  C_11
REMARK    4  A    between atoms: C_20  and  O_21
REMARK    5  A    between atoms: O_21  and  C_22
REMARK                            x       y       z     vdW  Elec       q    Type
REMARK                         _______ _______ _______ _____ _____    ______ ____
ROOT
ATOM      1  C   UNL     1       6.962   4.757  14.044  0.00  0.00    +0.000 A 
ATOM      2  C   UNL     1       7.535   5.207  15.248  0.00  0.00    +0.000 A 
ATOM      3  C   UNL     1       6.929   5.026  16.482  0.00  0.00    +0.000 A 
ATOM      4  N   UNL     1       7.580   5.416  17.583  0.00  0.00    +0.000 NA
ATOM      5  C   UNL     1       6.969   5.188  18.746  0.00  0.00    +0.000 A 
ATOM      6  N   UNL     1       5.780   4.611  18.908  0.00  0.00    +0.000 NA
ATOM      7  C   UNL     1       5.131   4.218  17.795  0.00  0.00    +0.000 A 
ATOM      8  N   UNL     1       3.885   3.551  17.934  0.00  0.00    +0.000 N 
ATOM      9  C   UNL     1       5.670   4.422  16.519  0.00  0.00    +0.000 A 
ATOM     10  C   UNL     1       5.035   4.072  15.309  0.00  0.00    +0.000 A 
ATOM     11  C   UNL     1       5.673   4.215  14.072  0.00  0.00    +0.000 A 
ATOM     12  H   UNL     1       3.948   2.625  17.513  0.00  0.00    +0.000 HD
ENDROOT
BRANCH   8  13
ATOM     13  C   UNL     1       3.161   3.502  19.148  0.00  0.00    +0.000 A 
ATOM     14  C   UNL     1       3.516   2.601  20.159  0.00  0.00    +0.000 A 
ATOM     15  C   UNL     1       2.751   2.491  21.319  0.00  0.00    +0.000 A 
ATOM     16  C   UNL     1       1.630   3.302  21.490  0.00  0.00    +0.000 A 
ATOM     17  C   UNL     1       1.288   4.236  20.511  0.00  0.00    +0.000 A 
ATOM     18  C   UNL     1       2.058   4.335  19.358  0.00  0.00    +0.000 A 
ATOM     19  F   UNL     1       1.716   5.229  18.419  0.00  0.00    +0.000 F 
ENDBRANCH   8  13
BRANCH   1  21
ATOM     20  C   UNL     1       8.598   5.916  12.782  0.00  0.00    +0.000 C 
ATOM     21  O   UNL     1       7.633   4.863  12.854  0.00  0.00    +0.000 OA
ENDBRANCH   1  21
BRANCH  11  22
ATOM     22  O   UNL     1       4.888   3.751  13.058  0.00  0.00    +0.000 OA
ATOM     23  C   UNL     1       5.456   3.013  11.991  0.00  0.00    +0.000 C 
ENDBRANCH  11  22
TORSDOF 3
ENDMDL
MODEL 3
REMARK VINA RESULT:      -7.6      3.800      5.075
REMARK  Name = 
REMARK  5 active torsions:
REMARK  status: ('A' for Active; 'I' for Inactive)
REMARK    1  A    between atoms: C_1  and  O_2
REMARK    2  A    between atoms: O_2  and  C_3
REMARK    3  A    between atoms: N_10  and  C_11
REMARK    4  A    between atoms: C_20  and  O_21
REMARK    5  A    between atoms: O_21  and  C_22
REMARK                            x       y       z     vdW  Elec       q    Type
REMARK                         _______ _______ _______ _____ _____    ______ ____
ROOT
ATOM      1  C   UNL     1       6.268   4.995  16.211  0.00  0.00    +0.000 A 
ATOM      2  C   UNL     1       5.118   4.235  16.493  0.00  0.00    +0.000 A 
ATOM      3  C   UNL     1       4.011   4.762  17.141  0.00  0.00    +0.000 A 
ATOM      4  N   UNL     1       2.930   3.991  17.300  0.00  0.00    +0.000 NA
ATOM      5  C   UNL     1       1.880   4.556  17.897  0.00  0.00    +0.000 A 
ATOM      6  N   UNL     1       1.811   5.808  18.344  0.00  0.00    +0.000 NA
ATOM      7  C   UNL     1       2.903   6.581  18.178  0.00  0.00    +0.000 A 
ATOM      8  N   UNL     1       2.845   7.936  18.595  0.00  0.00    +0.000 N 
ATOM      9  C   UNL     1       4.068   6.087  17.579  0.00  0.00    +0.000 A 
ATOM     10  C   UNL     1       5.259   6.823  17.404  0.00  0.00    +0.000 A 
ATOM     11  C   UNL     1       6.354   6.300  16.709  0.00  0.00    +0.000 A 
ATOM     12  H   UNL     1       3.019   8.544  17.795  0.00  0.00    +0.000 HD
ENDROOT
BRANCH   8  13
ATOM     13  C   UNL     1       1.809   8.458  19.405  0.00  0.00    +0.000 A 
ATOM     14  C   UNL     1       1.601   7.976  20.702  0.00  0.00    +0.000 A 
ATOM     15  C   UNL     1       0.528   8.426  21.468  0.00  0.00    +0.000 A 
ATOM     16  C   UNL     1      -0.341   9.387  20.949  0.00  0.00    +0.000 A 
ATOM     17  C   UNL     1      -0.122   9.909  19.674  0.00  0.00    +0.000 A 
ATOM     18  C   UNL     1       0.951   9.450  18.918  0.00  0.00    +0.000 A 
ATOM     19  F   UNL     1       1.148   9.951  17.691  0.00  0.00    +0.000 F 
ENDBRANCH   8  13
BRANCH   1  21
ATOM     20  C   UNL     1       7.084   4.387  14.071  0.00  0.00    +0.000 C 
ATOM     21  O   UNL     1       7.304   4.473  15.482  0.00  0.00    +0.000 OA
ENDBRANCH   1  21
BRANCH  11  22
ATOM     22  O   UNL     1       7.360   7.216  16.614  0.00  0.00    +0.000 OA
ATOM     23  C   UNL     1       7.779   7.942  17.755  0.00  0.00    +0.000 C 
ENDBRANCH  11  22
TORSDOF 3
ENDMDL
MODEL 4
REMARK VINA RESULT:      -7.4      3.732      4.971
REMARK  Name = 
REMARK  5 active torsions:
REMARK  status: ('A' for Active; 'I' for Inactive)
REMARK    1  A    between atoms: C_1  and  O_2
REMARK    2  A    between atoms: O_2  and  C_3
REMARK    3  A    between atoms: N_10  and  C_11
REMARK    4  A    between atoms: C_20  and  O_21
REMARK    5  A    between atoms: O_21  and  C_22
REMARK                            x       y       z     vdW  Elec       q    Type
REMARK                         _______ _______ _______ _____ _____    ______ ____
ROOT
ATOM      1  C   UNL     1       6.338   5.056  16.388  0.00  0.00    +0.000 A 
ATOM      2  C   UNL     1       5.184   4.300  16.668  0.00  0.00    +0.000 A 
ATOM      3  C   UNL     1       4.033   4.859  17.201  0.00  0.00    +0.000 A 
ATOM      4  N   UNL     1       2.956   4.083  17.364  0.00  0.00    +0.000 NA
ATOM      5  C   UNL     1       1.864   4.677  17.848  0.00  0.00    +0.000 A 
ATOM      6  N   UNL     1       1.750   5.961  18.178  0.00  0.00    +0.000 NA
ATOM      7  C   UNL     1       2.838   6.738  18.009  0.00  0.00    +0.000 A 
ATOM      8  N   UNL     1       2.736   8.124  18.301  0.00  0.00    +0.000 N 
ATOM      9  C   UNL     1       4.044   6.218  17.524  0.00  0.00    +0.000 A 
ATOM     10  C   UNL     1       5.232   6.959  17.355  0.00  0.00    +0.000 A 
ATOM     11  C   UNL     1       6.375   6.400  16.773  0.00  0.00    +0.000 A 
ATOM     12  H   UNL     1       2.948   8.663  17.463  0.00  0.00    +0.000 HD
ENDROOT
BRANCH   8  13
ATOM     13  C   UNL     1       1.646   8.692  19.001  0.00  0.00    +0.000 A 
ATOM     14  C   UNL     1       0.774   9.585  18.367  0.00  0.00    +0.000 A 
ATOM     15  C   UNL     1      -0.247  10.213  19.078  0.00  0.00    +0.000 A 
ATOM     16  C   UNL     1      -0.422   9.934  20.433  0.00  0.00    +0.000 A 
ATOM     17  C   UNL     1       0.411   9.014  21.069  0.00  0.00    +0.000 A 
ATOM     18  C   UNL     1       1.428   8.395  20.350  0.00  0.00    +0.000 A 
ATOM     19  F   UNL     1       2.229   7.519  20.972  0.00  0.00    +0.000 F 
ENDBRANCH   8  13
BRANCH   1  21
ATOM     20  C   UNL     1       7.424   4.564  14.340  0.00  0.00    +0.000 C 
ATOM     21  O   UNL     1       7.423   4.493  15.769  0.00  0.00    +0.000 OA
ENDBRANCH   1  21
BRANCH  11  22
ATOM     22  O   UNL     1       7.371   7.324  16.657  0.00  0.00    +0.000 OA
ATOM     23  C   UNL     1       7.817   8.046  17.791  0.00  0.00    +0.000 C 
ENDBRANCH  11  22
TORSDOF 3
ENDMDL
MODEL 5
REMARK VINA RESULT:      -7.2      5.397      7.308
REMARK  Name = 
REMARK  5 active torsions:
REMARK  status: ('A' for Active; 'I' for Inactive)
REMARK    1  A    between atoms: C_1  and  O_2
REMARK    2  A    between atoms: O_2  and  C_3
REMARK    3  A    between atoms: N_10  and  C_11
REMARK    4  A    between atoms: C_20  and  O_21
REMARK    5  A    between atoms: O_21  and  C_22
REMARK                            x       y       z     vdW  Elec       q    Type
REMARK                         _______ _______ _______ _____ _____    ______ ____
ROOT
ATOM      1  C   UNL     1       3.448   4.266  19.394  0.00  0.00    +0.000 A 
ATOM      2  C   UNL     1       3.483   5.309  18.449  0.00  0.00    +0.000 A 
ATOM      3  C   UNL     1       2.864   6.532  18.659  0.00  0.00    +0.000 A 
ATOM      4  N   UNL     1       3.013   7.494  17.743  0.00  0.00    +0.000 NA
ATOM      5  C   UNL     1       2.427   8.663  18.009  0.00  0.00    +0.000 A 
ATOM      6  N   UNL     1       1.714   8.954  19.095  0.00  0.00    +0.000 NA
ATOM      7  C   UNL     1       1.571   7.981  20.015  0.00  0.00    +0.000 A 
ATOM      8  N   UNL     1       0.863   8.274  21.210  0.00  0.00    +0.000 N 
ATOM      9  C   UNL     1       2.129   6.709  19.833  0.00  0.00    +0.000 A 
ATOM     10  C   UNL     1       1.991   5.632  20.733  0.00  0.00    +0.000 A 
ATOM     11  C   UNL     1       2.657   4.417  20.537  0.00  0.00    +0.000 A 
ATOM     12  H   UNL     1       1.475   8.128  22.011  0.00  0.00    +0.000 HD
ENDROOT
BRANCH   8  13
ATOM     13  C   UNL     1       0.079   9.440  21.384  0.00  0.00    +0.000 A 
ATOM     14  C   UNL     1      -0.372  10.171  20.280  0.00  0.00    +0.000 A 
ATOM     15  C   UNL     1      -1.069  11.366  20.451  0.00  0.00    +0.000 A 
ATOM     16  C   UNL     1      -1.342  11.832  21.737  0.00  0.00    +0.000 A 
ATOM     17  C   UNL     1      -0.937  11.092  22.848  0.00  0.00    +0.000 A 
ATOM     18  C   UNL     1      -0.241   9.902  22.665  0.00  0.00    +0.000 A 
ATOM     19  F   UNL     1       0.152   9.203  23.737  0.00  0.00    +0.000 F 
ENDBRANCH   8  13
BRANCH   1  21
ATOM     20  C   UNL     1       3.494   2.108  18.416  0.00  0.00    +0.000 C 
ATOM     21  O   UNL     1       4.153   3.107  19.199  0.00  0.00    +0.000 OA
ENDBRANCH   1  21
BRANCH  11  22
ATOM     22  O   UNL     1       2.421   3.555  21.568  0.00  0.00    +0.000 OA
ATOM     23  C   UNL     1       1.358   2.622  21.494  0.00  0.00    +0.000 C 
ENDBRANCH  11  22
TORSDOF 3
ENDMDL
MODEL 6
REMARK VINA RESULT:      -7.1      3.934      5.317
REMARK  Name = 
REMARK  5 active torsions:
REMARK  status: ('A' for Active; 'I' for Inactive)
REMARK    1  A    between atoms: C_1  and  O_2
REMARK    2  A    between atoms: O_2  and  C_3
REMARK    3  A    between atoms: N_10  and  C_11
REMARK    4  A    between atoms: C_20  and  O_21
REMARK    5  A    between atoms: O_21  and  C_22
REMARK                            x       y       z     vdW  Elec       q    Type
REMARK                         _______ _______ _______ _____ _____    ______ ____
ROOT
ATOM      1  C   UNL     1       5.544   4.553  16.939  0.00  0.00    +0.000 A 
ATOM      2  C   UNL     1       4.567   3.851  17.670  0.00  0.00    +0.000 A 
ATOM      3  C   UNL     1       3.565   4.489  18.386  0.00  0.00    +0.000 A 
ATOM      4  N   UNL     1       2.632   3.745  18.989  0.00  0.00    +0.000 NA
ATOM      5  C   UNL     1       1.671   4.406  19.635  0.00  0.00    +0.000 A 
ATOM      6  N   UNL     1       1.558   5.729  19.732  0.00  0.00    +0.000 NA
ATOM      7  C   UNL     1       2.500   6.473  19.120  0.00  0.00    +0.000 A 
ATOM      8  N   UNL     1       2.381   7.887  19.158  0.00  0.00    +0.000 N 
ATOM      9  C   UNL     1       3.565   5.884  18.427  0.00  0.00    +0.000 A 
ATOM     10  C   UNL     1       4.606   6.595  17.794  0.00  0.00    +0.000 A 
ATOM     11  C   UNL     1       5.586   5.947  17.034  0.00  0.00    +0.000 A 
ATOM     12  H   UNL     1       2.319   8.247  18.207  0.00  0.00    +0.000 HD
ENDROOT
BRANCH   8  13
ATOM     13  C   UNL     1       1.482   8.568  20.012  0.00  0.00    +0.000 A 
ATOM     14  C   UNL     1       1.511   8.362  21.396  0.00  0.00    +0.000 A 
ATOM     15  C   UNL     1       0.570   8.966  22.228  0.00  0.00    +0.000 A 
ATOM     16  C   UNL     1      -0.401   9.806  21.683  0.00  0.00    +0.000 A 
ATOM     17  C   UNL     1      -0.417  10.056  20.311  0.00  0.00    +0.000 A 
ATOM     18  C   UNL     1       0.526   9.447  19.490  0.00  0.00    +0.000 A 
ATOM     19  F   UNL     1       0.498   9.686  18.172  0.00  0.00    +0.000 F 
ENDBRANCH   8  13
BRANCH   1  21
ATOM     20  C   UNL     1       6.176   3.871  14.759  0.00  0.00    +0.000 C 
ATOM     21  O   UNL     1       6.460   3.893  16.161  0.00  0.00    +0.000 OA
ENDBRANCH   1  21
BRANCH  11  22
ATOM     22  O   UNL     1       6.444   6.845  16.469  0.00  0.00    +0.000 OA
ATOM     23  C   UNL     1       7.478   7.432  17.239  0.00  0.00    +0.000 C 
ENDBRANCH  11  22
TORSDOF 3
ENDMDL
MODEL 7
REMARK VINA RESULT:      -7.0      5.941      8.086
REMARK  Name = 
REMARK  5 active torsions:
REMARK  status: ('A' for Active; 'I' for Inactive)
REMARK    1  A    between atoms: C_1  and  O_2
REMARK    2  A    between atoms: O_2  and  C_3
REMARK    3  A    between atoms: N_10  and  C_11
REMARK    4  A    between atoms: C_20  and  O_21
REMARK    5  A    between atoms: O_21  and  C_22
REMARK                            x       y       z     vdW  Elec       q    Type
REMARK                         _______ _______ _______ _____ _____    ______ ____
ROOT
ATOM      1  C   UNL     1       0.588  11.154  20.564  0.00  0.00    +0.000 A 
ATOM      2  C   UNL     1       1.084  10.856  19.281  0.00  0.00    +0.000 A 
ATOM      3  C   UNL     1       1.581   9.607  18.940  0.00  0.00    +0.000 A 
ATOM      4  N   UNL     1       1.961   9.389  17.677  0.00  0.00    +0.000 NA
ATOM      5  C   UNL     1       2.399   8.162  17.392  0.00  0.00    +0.000 A 
ATOM      6  N   UNL     1       2.490   7.144  18.245  0.00  0.00    +0.000 NA
ATOM      7  C   UNL     1       2.103   7.370  19.516  0.00  0.00    +0.000 A 
ATOM      8  N   UNL     1       2.136   6.292  20.438  0.00  0.00    +0.000 N 
ATOM      9  C   UNL     1       1.642   8.625  19.931  0.00  0.00    +0.000 A 
ATOM     10  C   UNL     1       1.255   8.947  21.248  0.00  0.00    +0.000 A 
ATOM     11  C   UNL     1       0.711  10.194  21.574  0.00  0.00    +0.000 A 
ATOM     12  H   UNL     1       1.199   6.131  20.805  0.00  0.00    +0.000 HD
ENDROOT
BRANCH   8  13
ATOM     13  C   UNL     1       2.791   5.065  20.177  0.00  0.00    +0.000 A 
ATOM     14  C   UNL     1       4.103   5.041  19.694  0.00  0.00    +0.000 A 
ATOM     15  C   UNL     1       4.718   3.836  19.354  0.00  0.00    +0.000 A 
ATOM     16  C   UNL     1       4.028   2.635  19.518  0.00  0.00    +0.000 A 
ATOM     17  C   UNL     1       2.734   2.639  20.039  0.00  0.00    +0.000 A 
ATOM     18  C   UNL     1       2.131   3.847  20.373  0.00  0.00    +0.000 A 
ATOM     19  F   UNL     1       0.885   3.841  20.865  0.00  0.00    +0.000 F 
ENDBRANCH   8  13
BRANCH   1  21
ATOM     20  C   UNL     1       0.809  13.513  20.529  0.00  0.00    +0.000 C 
ATOM     21  O   UNL     1       0.012  12.366  20.840  0.00  0.00    +0.000 OA
ENDBRANCH   1  21
BRANCH  11  22
ATOM     22  O   UNL     1       0.355  10.247  22.890  0.00  0.00    +0.000 OA
ATOM     23  C   UNL     1      -1.002  10.410  23.260  0.00  0.00    +0.000 C 
ENDBRANCH  11  22
TORSDOF 3
ENDMDL
MODEL 8
REMARK VINA RESULT:      -6.8      4.204      7.365
REMARK  Name = 
REMARK  5 active torsions:
REMARK  status: ('A' for Active; 'I' for Inactive)
REMARK    1  A    between atoms: C_1  and  O_2
REMARK    2  A    between atoms: O_2  and  C_3
REMARK    3  A    between atoms: N_10  and  C_11
REMARK    4  A    between atoms: C_20  and  O_21
REMARK    5  A    between atoms: O_21  and  C_22
REMARK                            x       y       z     vdW  Elec       q    Type
REMARK                         _______ _______ _______ _____ _____    ______ ____
ROOT
ATOM      1  C   UNL     1       1.108   7.850  20.653  0.00  0.00    +0.000 A 
ATOM      2  C   UNL     1       1.472   6.507  20.866  0.00  0.00    +0.000 A 
ATOM      3  C   UNL     1       2.392   5.844  20.069  0.00  0.00    +0.000 A 
ATOM      4  N   UNL     1       2.738   4.593  20.390  0.00  0.00    +0.000 NA
ATOM      5  C   UNL     1       3.653   4.011  19.613  0.00  0.00    +0.000 A 
ATOM      6  N   UNL     1       4.248   4.560  18.557  0.00  0.00    +0.000 NA
ATOM      7  C   UNL     1       3.897   5.822  18.241  0.00  0.00    +0.000 A 
ATOM      8  N   UNL     1       4.551   6.457  17.153  0.00  0.00    +0.000 N 
ATOM      9  C   UNL     1       2.934   6.523  18.977  0.00  0.00    +0.000 A 
ATOM     10  C   UNL     1       2.491   7.830  18.685  0.00  0.00    +0.000 A 
ATOM     11  C   UNL     1       1.597   8.510  19.521  0.00  0.00    +0.000 A 
ATOM     12  H   UNL     1       5.021   7.298  17.484  0.00  0.00    +0.000 HD
ENDROOT
BRANCH   8  13
ATOM     13  C   UNL     1       5.360   5.765  16.221  0.00  0.00    +0.000 A 
ATOM     14  C   UNL     1       4.786   5.059  15.158  0.00  0.00    +0.000 A 
ATOM     15  C   UNL     1       5.576   4.305  14.291  0.00  0.00    +0.000 A 
ATOM     16  C   UNL     1       6.959   4.270  14.466  0.00  0.00    +0.000 A 
ATOM     17  C   UNL     1       7.551   5.004  15.495  0.00  0.00    +0.000 A 
ATOM     18  C   UNL     1       6.753   5.750  16.354  0.00  0.00    +0.000 A 
ATOM     19  F   UNL     1       7.329   6.445  17.344  0.00  0.00    +0.000 F 
ENDBRANCH   8  13
BRANCH   1  21
ATOM     20  C   UNL     1       0.917   9.285  22.529  0.00  0.00    +0.000 C 
ATOM     21  O   UNL     1       0.271   8.506  21.518  0.00  0.00    +0.000 OA
ENDBRANCH   1  21
BRANCH  11  22
ATOM     22  O   UNL     1       1.367   9.776  19.069  0.00  0.00    +0.000 OA
ATOM     23  C   UNL     1       0.213  10.066  18.302  0.00  0.00    +0.000 C 
ENDBRANCH  11  22
TORSDOF 3
ENDMDL
MODEL 9
REMARK VINA RESULT:      -6.7      1.349      1.744
REMARK  Name = 
REMARK  5 active torsions:
REMARK  status: ('A' for Active; 'I' for Inactive)
REMARK    1  A    between atoms: C_1  and  O_2
REMARK    2  A    between atoms: O_2  and  C_3
REMARK    3  A    between atoms: N_10  and  C_11
REMARK    4  A    between atoms: C_20  and  O_21
REMARK    5  A    between atoms: O_21  and  C_22
REMARK                            x       y       z     vdW  Elec       q    Type
REMARK                         _______ _______ _______ _____ _____    ______ ____
ROOT
ATOM      1  C   UNL     1       6.733   4.066  12.696  0.00  0.00    +0.000 A 
ATOM      2  C   UNL     1       7.384   4.823  13.688  0.00  0.00    +0.000 A 
ATOM      3  C   UNL     1       6.856   5.010  14.956  0.00  0.00    +0.000 A 
ATOM      4  N   UNL     1       7.577   5.679  15.862  0.00  0.00    +0.000 NA
ATOM      5  C   UNL     1       7.040   5.801  17.077  0.00  0.00    +0.000 A 
ATOM      6  N   UNL     1       5.861   5.321  17.465  0.00  0.00    +0.000 NA
ATOM      7  C   UNL     1       5.140   4.645  16.548  0.00  0.00    +0.000 A 
ATOM      8  N   UNL     1       3.902   4.074  16.943  0.00  0.00    +0.000 N 
ATOM      9  C   UNL     1       5.599   4.471  15.236  0.00  0.00    +0.000 A 
ATOM     10  C   UNL     1       4.887   3.809  14.214  0.00  0.00    +0.000 A 
ATOM     11  C   UNL     1       5.446   3.583  12.952  0.00  0.00    +0.000 A 
ATOM     12  H   UNL     1       3.933   3.065  16.797  0.00  0.00    +0.000 HD
ENDROOT
BRANCH   8  13
ATOM     13  C   UNL     1       3.256   4.384  18.162  0.00  0.00    +0.000 A 
ATOM     14  C   UNL     1       2.653   5.632  18.357  0.00  0.00    +0.000 A 
ATOM     15  C   UNL     1       2.093   5.971  19.587  0.00  0.00    +0.000 A 
ATOM     16  C   UNL     1       2.110   5.050  20.635  0.00  0.00    +0.000 A 
ATOM     17  C   UNL     1       2.670   3.786  20.444  0.00  0.00    +0.000 A 
ATOM     18  C   UNL     1       3.227   3.460  19.212  0.00  0.00    +0.000 A 
ATOM     19  F   UNL     1       3.769   2.247  19.041  0.00  0.00    +0.000 F 
ENDBRANCH   8  13
BRANCH   1  21
ATOM     20  C   UNL     1       7.561   2.438  11.186  0.00  0.00    +0.000 C 
ATOM     21  O   UNL     1       7.329   3.817  11.487  0.00  0.00    +0.000 OA
ENDBRANCH   1  21
BRANCH  11  22
ATOM     22  O   UNL     1       4.596   2.871  12.157  0.00  0.00    +0.000 OA
ATOM     23  C   UNL     1       3.933   3.497  11.074  0.00  0.00    +0.000 C 
ENDBRANCH  11  22
TORSDOF 3
ENDMDL
