MODEL 1
REMARK VINA RESULT:      -7.3      0.000      0.000
REMARK  Name = 
REMARK  2 active torsions:
REMARK  status: ('A' for Active; 'I' for Inactive)
REMARK    1  A    between atoms: N_13  and  C_14
REMARK    2  A    between atoms: C_14  and  C_15
REMARK                            x       y       z     vdW  Elec       q    Type
REMARK                         _______ _______ _______ _____ _____    ______ ____
ROOT
ATOM      1  O   UNL     1       7.423   6.477  16.814  0.00  0.00    +0.000 OA
ATOM      2  C   UNL     1       7.028   5.746  15.919  0.00  0.00    +0.000 C 
ATOM      3  N   UNL     1       7.828   5.286  14.887  0.00  0.00    +0.000 N 
ATOM      4  C   UNL     1       7.085   4.623  13.951  0.00  0.00    +0.000 A 
ATOM      5  C   UNL     1       7.538   4.217  12.716  0.00  0.00    +0.000 A 
ATOM      6  C   UNL     1       6.599   3.680  11.841  0.00  0.00    +0.000 A 
ATOM      7  C   UNL     1       5.258   3.543  12.241  0.00  0.00    +0.000 A 
ATOM      8  C   UNL     1       4.828   3.939  13.522  0.00  0.00    +0.000 A 
ATOM      9  C   UNL     1       5.761   4.491  14.385  0.00  0.00    +0.000 A 
ATOM     10  C   UNL     1       5.632   5.112  15.771  0.00  0.00    +0.000 C 
ATOM     11  C   UNL     1       4.542   6.188  15.862  0.00  0.00    +0.000 C 
ATOM     12  C   UNL     1       4.378   6.731  17.287  0.00  0.00    +0.000 C 
ATOM     13  N   UNL     1       4.213   5.684  18.309  0.00  0.00    +0.000 NA
ATOM     14  C   UNL     1       5.352   4.758  18.276  0.00  0.00    +0.000 C 
ATOM     15  C   UNL     1       5.546   4.077  16.910  0.00  0.00    +0.000 C 
ATOM     16  H   UNL     1       8.797   5.530  14.781  0.00  0.00    +0.000 HD
ENDROOT
BRANCH  13  17
ATOM     17  C   UNL     1       2.940   4.942  18.205  0.00  0.00    +0.000 C 
BRANCH  17  18
ATOM     18  C   UNL     1       2.555   4.200  19.454  0.00  0.00    +0.000 A 
ATOM     19  N   UNL     1       2.576   4.732  20.662  0.00  0.00    +0.000 NA
ATOM     20  C   UNL     1       2.187   3.790  21.589  0.00  0.00    +0.000 A 
ATOM     21  C   UNL     1       1.830   2.567  21.076  0.00  0.00    +0.000 A 
ATOM     22  S   UNL     1       2.015   2.569  19.373  0.00  0.00    +0.000 S 
ENDBRANCH  17  18
ENDBRANCH  13  17
TORSDOF 2
ENDMDL
MODEL 2
REMARK VINA RESULT:      -7.3      2.238      6.788
REMARK  Name = 
REMARK  2 active torsions:
REMARK  status: ('A' for Active; 'I' for Inactive)
REMARK    1  A    between atoms: N_13  and  C_14
REMARK    2  A    between atoms: C_14  and  C_15
REMARK                            x       y       z     vdW  Elec       q    Type
REMARK                         _______ _______ _______ _____ _____    ______ ____
ROOT
ATOM      1  O   UNL     1       3.494   7.614  18.407  0.00  0.00    +0.000 OA
ATOM      2  C   UNL     1       3.390   6.462  18.797  0.00  0.00    +0.000 C 
ATOM      3  N   UNL     1       2.332   5.997  19.558  0.00  0.00    +0.000 N 
ATOM      4  C   UNL     1       2.560   4.717  19.981  0.00  0.00    +0.000 A 
ATOM      5  C   UNL     1       1.803   4.039  20.911  0.00  0.00    +0.000 A 
ATOM      6  C   UNL     1       2.269   2.794  21.321  0.00  0.00    +0.000 A 
ATOM      7  C   UNL     1       3.449   2.264  20.769  0.00  0.00    +0.000 A 
ATOM      8  C   UNL     1       4.187   2.967  19.798  0.00  0.00    +0.000 A 
ATOM      9  C   UNL     1       3.731   4.215  19.405  0.00  0.00    +0.000 A 
ATOM     10  C   UNL     1       4.319   5.275  18.480  0.00  0.00    +0.000 C 
ATOM     11  C   UNL     1       5.776   5.632  18.804  0.00  0.00    +0.000 C 
ATOM     12  C   UNL     1       6.364   6.635  17.804  0.00  0.00    +0.000 C 
ATOM     13  N   UNL     1       6.188   6.247  16.395  0.00  0.00    +0.000 NA
ATOM     14  C   UNL     1       4.763   6.053  16.097  0.00  0.00    +0.000 C 
ATOM     15  C   UNL     1       4.094   4.986  16.983  0.00  0.00    +0.000 C 
ATOM     16  H   UNL     1       1.570   6.574  19.867  0.00  0.00    +0.000 HD
ENDROOT
BRANCH  13  17
ATOM     17  C   UNL     1       6.966   5.055  16.001  0.00  0.00    +0.000 C 
BRANCH  17  18
ATOM     18  C   UNL     1       7.103   4.872  14.515  0.00  0.00    +0.000 A 
ATOM     19  N   UNL     1       7.952   5.549  13.765  0.00  0.00    +0.000 NA
ATOM     20  C   UNL     1       7.818   5.163  12.450  0.00  0.00    +0.000 A 
ATOM     21  C   UNL     1       6.905   4.164  12.217  0.00  0.00    +0.000 A 
ATOM     22  S   UNL     1       6.150   3.705  13.685  0.00  0.00    +0.000 S 
ENDBRANCH  17  18
ENDBRANCH  13  17
TORSDOF 2
ENDMDL
MODEL 3
REMARK VINA RESULT:      -6.8      2.963      6.758
REMARK  Name = 
REMARK  2 active torsions:
REMARK  status: ('A' for Active; 'I' for Inactive)
REMARK    1  A    between atoms: N_13  and  C_14
REMARK    2  A    between atoms: C_14  and  C_15
REMARK                            x       y       z     vdW  Elec       q    Type
REMARK                         _______ _______ _______ _____ _____    ______ ____
ROOT
ATOM      1  O   UNL     1       4.342   3.558  19.554  0.00  0.00    +0.000 OA
ATOM      2  C   UNL     1       3.959   4.700  19.358  0.00  0.00    +0.000 C 
ATOM      3  N   UNL     1       3.184   5.420  20.251  0.00  0.00    +0.000 N 
ATOM      4  C   UNL     1       2.774   6.602  19.701  0.00  0.00    +0.000 A 
ATOM      5  C   UNL     1       1.837   7.452  20.245  0.00  0.00    +0.000 A 
ATOM      6  C   UNL     1       1.445   8.541  19.474  0.00  0.00    +0.000 A 
ATOM      7  C   UNL     1       2.020   8.755  18.208  0.00  0.00    +0.000 A 
ATOM      8  C   UNL     1       2.999   7.885  17.689  0.00  0.00    +0.000 A 
ATOM      9  C   UNL     1       3.374   6.791  18.451  0.00  0.00    +0.000 A 
ATOM     10  C   UNL     1       4.301   5.614  18.166  0.00  0.00    +0.000 C 
ATOM     11  C   UNL     1       3.998   4.903  16.840  0.00  0.00    +0.000 C 
ATOM     12  C   UNL     1       5.001   3.781  16.541  0.00  0.00    +0.000 C 
ATOM     13  N   UNL     1       6.409   4.197  16.641  0.00  0.00    +0.000 NA
ATOM     14  C   UNL     1       6.685   4.742  17.975  0.00  0.00    +0.000 C 
ATOM     15  C   UNL     1       5.796   5.946  18.338  0.00  0.00    +0.000 C 
ATOM     16  H   UNL     1       2.858   5.054  21.128  0.00  0.00    +0.000 HD
ENDROOT
BRANCH  13  17
ATOM     17  C   UNL     1       6.825   5.153  15.595  0.00  0.00    +0.000 C 
BRANCH  17  18
ATOM     18  C   UNL     1       6.776   4.599  14.198  0.00  0.00    +0.000 A 
ATOM     19  N   UNL     1       5.886   3.714  13.788  0.00  0.00    +0.000 NA
ATOM     20  C   UNL     1       6.121   3.398  12.469  0.00  0.00    +0.000 A 
ATOM     21  C   UNL     1       7.156   4.077  11.873  0.00  0.00    +0.000 A 
ATOM     22  S   UNL     1       7.895   5.130  13.005  0.00  0.00    +0.000 S 
ENDBRANCH  17  18
ENDBRANCH  13  17
TORSDOF 2
ENDMDL
MODEL 4
REMARK VINA RESULT:      -6.8      3.494      6.635
REMARK  Name = 
REMARK  2 active torsions:
REMARK  status: ('A' for Active; 'I' for Inactive)
REMARK    1  A    between atoms: N_13  and  C_14
REMARK    2  A    between atoms: C_14  and  C_15
REMARK                            x       y       z     vdW  Elec       q    Type
REMARK                         _______ _______ _______ _____ _____    ______ ____
ROOT
ATOM      1  O   UNL     1       1.804   4.389  20.970  0.00  0.00    +0.000 OA
ATOM      2  C   UNL     1       1.916   5.484  20.443  0.00  0.00    +0.000 C 
ATOM      3  N   UNL     1       1.512   6.670  21.031  0.00  0.00    +0.000 N 
ATOM      4  C   UNL     1       1.612   7.712  20.152  0.00  0.00    +0.000 A 
ATOM      5  C   UNL     1       1.108   8.977  20.355  0.00  0.00    +0.000 A 
ATOM      6  C   UNL     1       1.183   9.868  19.289  0.00  0.00    +0.000 A 
ATOM      7  C   UNL     1       1.779   9.473  18.078  0.00  0.00    +0.000 A 
ATOM      8  C   UNL     1       2.312   8.181  17.908  0.00  0.00    +0.000 A 
ATOM      9  C   UNL     1       2.221   7.290  18.965  0.00  0.00    +0.000 A 
ATOM     10  C   UNL     1       2.585   5.815  19.094  0.00  0.00    +0.000 C 
ATOM     11  C   UNL     1       2.002   4.939  17.977  0.00  0.00    +0.000 C 
ATOM     12  C   UNL     1       2.458   3.478  18.088  0.00  0.00    +0.000 C 
ATOM     13  N   UNL     1       3.915   3.316  18.219  0.00  0.00    +0.000 NA
ATOM     14  C   UNL     1       4.405   4.060  19.386  0.00  0.00    +0.000 C 
ATOM     15  C   UNL     1       4.088   5.565  19.328  0.00  0.00    +0.000 C 
ATOM     16  H   UNL     1       1.077   6.725  21.935  0.00  0.00    +0.000 HD
ENDROOT
BRANCH  13  17
ATOM     17  C   UNL     1       4.670   3.695  17.008  0.00  0.00    +0.000 C 
BRANCH  17  18
ATOM     18  C   UNL     1       5.812   4.638  17.264  0.00  0.00    +0.000 A 
ATOM     19  N   UNL     1       6.876   4.329  17.981  0.00  0.00    +0.000 NA
ATOM     20  C   UNL     1       7.725   5.412  18.041  0.00  0.00    +0.000 A 
ATOM     21  C   UNL     1       7.324   6.518  17.333  0.00  0.00    +0.000 A 
ATOM     22  S   UNL     1       5.810   6.220  16.587  0.00  0.00    +0.000 S 
ENDBRANCH  17  18
ENDBRANCH  13  17
TORSDOF 2
ENDMDL
MODEL 5
REMARK VINA RESULT:      -6.7      1.369      1.480
REMARK  Name = 
REMARK  2 active torsions:
REMARK  status: ('A' for Active; 'I' for Inactive)
REMARK    1  A    between atoms: N_13  and  C_14
REMARK    2  A    between atoms: C_14  and  C_15
REMARK                            x       y       z     vdW  Elec       q    Type
REMARK                         _______ _______ _______ _____ _____    ______ ____
ROOT
ATOM      1  O   UNL     1       7.084   7.167  17.092  0.00  0.00    +0.000 OA
ATOM      2  C   UNL     1       7.002   6.301  16.236  0.00  0.00    +0.000 C 
ATOM      3  N   UNL     1       7.740   6.300  15.064  0.00  0.00    +0.000 N 
ATOM      4  C   UNL     1       7.328   5.301  14.227  0.00  0.00    +0.000 A 
ATOM      5  C   UNL     1       7.716   5.151  12.915  0.00  0.00    +0.000 A 
ATOM      6  C   UNL     1       7.084   4.155  12.177  0.00  0.00    +0.000 A 
ATOM      7  C   UNL     1       6.115   3.334  12.782  0.00  0.00    +0.000 A 
ATOM      8  C   UNL     1       5.760   3.491  14.135  0.00  0.00    +0.000 A 
ATOM      9  C   UNL     1       6.377   4.495  14.863  0.00  0.00    +0.000 A 
ATOM     10  C   UNL     1       6.165   5.008  16.283  0.00  0.00    +0.000 C 
ATOM     11  C   UNL     1       4.700   5.329  16.607  0.00  0.00    +0.000 C 
ATOM     12  C   UNL     1       4.510   5.760  18.068  0.00  0.00    +0.000 C 
ATOM     13  N   UNL     1       5.106   4.834  19.045  0.00  0.00    +0.000 NA
ATOM     14  C   UNL     1       6.540   4.668  18.778  0.00  0.00    +0.000 C 
ATOM     15  C   UNL     1       6.840   4.140  17.363  0.00  0.00    +0.000 C 
ATOM     16  H   UNL     1       8.392   7.023  14.815  0.00  0.00    +0.000 HD
ENDROOT
BRANCH  13  17
ATOM     17  C   UNL     1       4.436   3.520  19.109  0.00  0.00    +0.000 C 
BRANCH  17  18
ATOM     18  C   UNL     1       2.965   3.591  19.413  0.00  0.00    +0.000 A 
ATOM     19  N   UNL     1       2.025   3.122  18.615  0.00  0.00    +0.000 NA
ATOM     20  C   UNL     1       0.787   3.358  19.169  0.00  0.00    +0.000 A 
ATOM     21  C   UNL     1       0.796   3.962  20.402  0.00  0.00    +0.000 A 
ATOM     22  S   UNL     1       2.408   4.285  20.886  0.00  0.00    +0.000 S 
ENDBRANCH  17  18
ENDBRANCH  13  17
TORSDOF 2
ENDMDL
MODEL 6
REMARK VINA RESULT:      -6.7      2.157      6.596
REMARK  Name = 
REMARK  2 active torsions:
REMARK  status: ('A' for Active; 'I' for Inactive)
REMARK    1  A    between atoms: N_13  and  C_14
REMARK    2  A    between atoms: C_14  and  C_15
REMARK                            x       y       z     vdW  Elec       q    Type
REMARK                         _______ _______ _______ _____ _____    ______ ____
ROOT
ATOM      1  O   UNL     1       5.942   5.461  19.705  0.00  0.00    +0.000 OA
ATOM      2  C   UNL     1       4.805   5.078  19.479  0.00  0.00    +0.000 C 
ATOM      3  N   UNL     1       3.847   4.882  20.459  0.00  0.00    +0.000 N 
ATOM      4  C   UNL     1       2.725   4.302  19.937  0.00  0.00    +0.000 A 
ATOM      5  C   UNL     1       1.675   3.798  20.671  0.00  0.00    +0.000 A 
ATOM      6  C   UNL     1       0.682   3.117  19.972  0.00  0.00    +0.000 A 
ATOM      7  C   UNL     1       0.763   2.991  18.574  0.00  0.00    +0.000 A 
ATOM      8  C   UNL     1       1.834   3.543  17.846  0.00  0.00    +0.000 A 
ATOM      9  C   UNL     1       2.830   4.204  18.546  0.00  0.00    +0.000 A 
ATOM     10  C   UNL     1       4.156   4.815  18.107  0.00  0.00    +0.000 C 
ATOM     11  C   UNL     1       5.026   3.862  17.276  0.00  0.00    +0.000 C 
ATOM     12  C   UNL     1       6.312   4.535  16.778  0.00  0.00    +0.000 C 
ATOM     13  N   UNL     1       6.088   5.820  16.097  0.00  0.00    +0.000 NA
ATOM     14  C   UNL     1       5.375   6.747  16.983  0.00  0.00    +0.000 C 
ATOM     15  C   UNL     1       4.015   6.209  17.464  0.00  0.00    +0.000 C 
ATOM     16  H   UNL     1       4.015   5.024  21.440  0.00  0.00    +0.000 HD
ENDROOT
BRANCH  13  17
ATOM     17  C   UNL     1       5.385   5.696  14.804  0.00  0.00    +0.000 C 
BRANCH  17  18
ATOM     18  C   UNL     1       6.173   4.987  13.738  0.00  0.00    +0.000 A 
ATOM     19  N   UNL     1       7.387   5.342  13.363  0.00  0.00    +0.000 NA
ATOM     20  C   UNL     1       7.823   4.507  12.358  0.00  0.00    +0.000 A 
ATOM     21  C   UNL     1       6.959   3.497  12.010  0.00  0.00    +0.000 A 
ATOM     22  S   UNL     1       5.526   3.605  12.943  0.00  0.00    +0.000 S 
ENDBRANCH  17  18
ENDBRANCH  13  17
TORSDOF 2
ENDMDL
MODEL 7
REMARK VINA RESULT:      -6.6      2.698      6.894
REMARK  Name = 
REMARK  2 active torsions:
REMARK  status: ('A' for Active; 'I' for Inactive)
REMARK    1  A    between atoms: N_13  and  C_14
REMARK    2  A    between atoms: C_14  and  C_15
REMARK                            x       y       z     vdW  Elec       q    Type
REMARK                         _______ _______ _______ _____ _____    ______ ____
ROOT
ATOM      1  O   UNL     1       4.003   3.405  19.593  0.00  0.00    +0.000 OA
ATOM      2  C   UNL     1       3.640   4.569  19.528  0.00  0.00    +0.000 C 
ATOM      3  N   UNL     1       2.859   5.190  20.487  0.00  0.00    +0.000 N 
ATOM      4  C   UNL     1       2.477   6.436  20.075  0.00  0.00    +0.000 A 
ATOM      5  C   UNL     1       1.542   7.230  20.701  0.00  0.00    +0.000 A 
ATOM      6  C   UNL     1       1.180   8.410  20.059  0.00  0.00    +0.000 A 
ATOM      7  C   UNL     1       1.782   8.763  18.838  0.00  0.00    +0.000 A 
ATOM      8  C   UNL     1       2.757   7.946  18.235  0.00  0.00    +0.000 A 
ATOM      9  C   UNL     1       3.103   6.763  18.868  0.00  0.00    +0.000 A 
ATOM     10  C   UNL     1       4.017   5.613  18.459  0.00  0.00    +0.000 C 
ATOM     11  C   UNL     1       3.730   5.070  17.053  0.00  0.00    +0.000 C 
ATOM     12  C   UNL     1       4.721   3.975  16.640  0.00  0.00    +0.000 C 
ATOM     13  N   UNL     1       6.133   4.353  16.812  0.00  0.00    +0.000 NA
ATOM     14  C   UNL     1       6.392   4.730  18.207  0.00  0.00    +0.000 C 
ATOM     15  C   UNL     1       5.514   5.897  18.696  0.00  0.00    +0.000 C 
ATOM     16  H   UNL     1       2.511   4.728  21.309  0.00  0.00    +0.000 HD
ENDROOT
BRANCH  13  17
ATOM     17  C   UNL     1       6.583   5.419  15.895  0.00  0.00    +0.000 C 
BRANCH  17  18
ATOM     18  C   UNL     1       6.825   4.959  14.484  0.00  0.00    +0.000 A 
ATOM     19  N   UNL     1       7.780   5.435  13.708  0.00  0.00    +0.000 NA
ATOM     20  C   UNL     1       7.723   4.823  12.475  0.00  0.00    +0.000 A 
ATOM     21  C   UNL     1       6.758   3.854  12.339  0.00  0.00    +0.000 A 
ATOM     22  S   UNL     1       5.856   3.718  13.789  0.00  0.00    +0.000 S 
ENDBRANCH  17  18
ENDBRANCH  13  17
TORSDOF 2
ENDMDL
MODEL 8
REMARK VINA RESULT:      -6.5      1.124      1.215
REMARK  Name = 
REMARK  2 active torsions:
REMARK  status: ('A' for Active; 'I' for Inactive)
REMARK    1  A    between atoms: N_13  and  C_14
REMARK    2  A    between atoms: C_14  and  C_15
REMARK                            x       y       z     vdW  Elec       q    Type
REMARK                         _______ _______ _______ _____ _____    ______ ____
ROOT
ATOM      1  O   UNL     1       7.722   6.611  16.238  0.00  0.00    +0.000 OA
ATOM      2  C   UNL     1       7.340   5.804  15.405  0.00  0.00    +0.000 C 
ATOM      3  N   UNL     1       8.008   5.540  14.222  0.00  0.00    +0.000 N 
ATOM      4  C   UNL     1       7.271   4.718  13.416  0.00  0.00    +0.000 A 
ATOM      5  C   UNL     1       7.557   4.425  12.102  0.00  0.00    +0.000 A 
ATOM      6  C   UNL     1       6.616   3.679  11.399  0.00  0.00    +0.000 A 
ATOM      7  C   UNL     1       5.446   3.233  12.040  0.00  0.00    +0.000 A 
ATOM      8  C   UNL     1       5.193   3.523  13.395  0.00  0.00    +0.000 A 
ATOM      9  C   UNL     1       6.124   4.281  14.087  0.00  0.00    +0.000 A 
ATOM     10  C   UNL     1       6.126   4.860  15.497  0.00  0.00    +0.000 C 
ATOM     11  C   UNL     1       4.856   5.650  15.838  0.00  0.00    +0.000 C 
ATOM     12  C   UNL     1       4.852   6.145  17.291  0.00  0.00    +0.000 C 
ATOM     13  N   UNL     1       5.134   5.093  18.280  0.00  0.00    +0.000 NA
ATOM     14  C   UNL     1       6.427   4.460  17.993  0.00  0.00    +0.000 C 
ATOM     15  C   UNL     1       6.504   3.837  16.587  0.00  0.00    +0.000 C 
ATOM     16  H   UNL     1       8.855   6.004  13.944  0.00  0.00    +0.000 HD
ENDROOT
BRANCH  13  17
ATOM     17  C   UNL     1       4.071   4.073  18.388  0.00  0.00    +0.000 C 
BRANCH  17  18
ATOM     18  C   UNL     1       3.089   4.321  19.499  0.00  0.00    +0.000 A 
ATOM     19  N   UNL     1       2.740   3.412  20.390  0.00  0.00    +0.000 NA
ATOM     20  C   UNL     1       1.812   3.946  21.257  0.00  0.00    +0.000 A 
ATOM     21  C   UNL     1       1.498   5.267  21.048  0.00  0.00    +0.000 A 
ATOM     22  S   UNL     1       2.362   5.868  19.696  0.00  0.00    +0.000 S 
ENDBRANCH  17  18
ENDBRANCH  13  17
TORSDOF 2
ENDMDL
