MODEL 1
REMARK VINA RESULT:      -7.5      0.000      0.000
REMARK  Name = 
REMARK  12 active torsions:
REMARK  status: ('A' for Active; 'I' for Inactive)
REMARK    1  A    between atoms: C_1  and  O_2
REMARK    2  A    between atoms: O_2  and  C_3
REMARK    3  A    between atoms: C_3  and  C_4
REMARK    4  A    between atoms: C_4  and  C_5
REMARK    5  A    between atoms: C_5  and  N_6
REMARK    6  A    between atoms: C_7  and  C_9
REMARK    7  A    between atoms: C_9  and  C_10
REMARK    8  A    between atoms: C_14  and  C_15
REMARK    9  A    between atoms: N_25  and  C_26
REMARK   10  A    between atoms: C_26  and  C_27
REMARK   11  A    between atoms: C_32  and  O_33
REMARK   12  A    between atoms: O_33  and  C_34
REMARK                            x       y       z     vdW  Elec       q    Type
REMARK                         _______ _______ _______ _____ _____    ______ ____
ROOT
ATOM      1  C   UNL     1       5.234   5.074  18.711  0.00  0.00    +0.000 C 
ATOM      2  C   UNL     1       6.527   5.019  19.570  0.00  0.00    +0.000 C 
ATOM      3  C   UNL     1       4.224   5.869  19.580  0.00  0.00    +0.000 C 
ATOM      4  N   UNL     1       3.463   6.828  18.827  0.00  0.00    +0.000 N 
ATOM      5  N   UNL     1       2.389   7.406  19.376  0.00  0.00    +0.000 NA
ATOM      6  C   UNL     1       2.002   8.323  18.472  0.00  0.00    +0.000 A 
ATOM      7  C   UNL     1       2.866   8.285  17.343  0.00  0.00    +0.000 A 
ATOM      8  C   UNL     1       3.775   7.277  17.596  0.00  0.00    +0.000 A 
ATOM      9  C   UNL     1       4.856   6.777  16.814  0.00  0.00    +0.000 C 
ATOM     10  O   UNL     1       5.159   7.286  15.736  0.00  0.00    +0.000 OA
ATOM     11  N   UNL     1       5.537   5.680  17.358  0.00  0.00    +0.000 N 
ENDROOT
BRANCH   6  12
ATOM     12  C   UNL     1       0.823   9.159  18.706  0.00  0.00    +0.000 A 
ATOM     13  C   UNL     1      -0.034   9.473  17.639  0.00  0.00    +0.000 A 
ATOM     14  C   UNL     1      -1.123  10.326  17.819  0.00  0.00    +0.000 A 
ATOM     15  C   UNL     1      -1.374  10.872  19.072  0.00  0.00    +0.000 A 
ATOM     16  C   UNL     1      -0.548  10.554  20.148  0.00  0.00    +0.000 A 
ATOM     17  C   UNL     1       0.544   9.699  19.968  0.00  0.00    +0.000 A 
ENDBRANCH   6  12
BRANCH   1  19
ATOM     18  N   UNL     1       3.491   3.457  17.875  0.00  0.00    +0.000 N 
ATOM     19  C   UNL     1       4.647   3.621  18.620  0.00  0.00    +0.000 C 
ATOM     20  O   UNL     1       5.143   2.689  19.254  0.00  0.00    +0.000 OA
ATOM     21  H   UNL     1       3.116   4.224  17.332  0.00  0.00    +0.000 HD
BRANCH  18  22
ATOM     22  C   UNL     1       2.755   2.191  17.855  0.00  0.00    +0.000 C 
BRANCH  22  23
ATOM     23  C   UNL     1       1.740   2.098  19.000  0.00  0.00    +0.000 C 
BRANCH  23  24
ATOM     24  C   UNL     1       1.126   3.455  19.353  0.00  0.00    +0.000 C 
BRANCH  24  26
ATOM     25  C   UNL     1       2.153   3.373  21.481  0.00  0.00    +0.000 C 
ATOM     26  O   UNL     1       0.938   3.544  20.762  0.00  0.00    +0.000 OA
ENDBRANCH  24  26
ENDBRANCH  23  24
ENDBRANCH  22  23
ENDBRANCH  18  22
ENDBRANCH   1  19
BRANCH  11  27
ATOM     27  C   UNL     1       6.681   5.196  16.555  0.00  0.00    +0.000 C 
BRANCH  27  28
ATOM     28  C   UNL     1       6.370   4.600  15.200  0.00  0.00    +0.000 A 
ATOM     29  C   UNL     1       5.204   3.835  15.010  0.00  0.00    +0.000 A 
ATOM     30  C   UNL     1       4.815   3.366  13.757  0.00  0.00    +0.000 A 
ATOM     31  C   UNL     1       5.592   3.655  12.647  0.00  0.00    +0.000 A 
ATOM     32  C   UNL     1       6.768   4.393  12.806  0.00  0.00    +0.000 A 
ATOM     33  C   UNL     1       7.175   4.847  14.071  0.00  0.00    +0.000 A 
BRANCH  33  34
ATOM     34  O   UNL     1       8.285   5.653  14.023  0.00  0.00    +0.000 OA
ATOM     35  C   UNL     1       8.767   6.025  12.738  0.00  0.00    +0.000 C 
ENDBRANCH  33  34
ENDBRANCH  27  28
ENDBRANCH  11  27
TORSDOF 9
ENDMDL
MODEL 2
REMARK VINA RESULT:      -7.4      4.810     10.274
REMARK  Name = 
REMARK  12 active torsions:
REMARK  status: ('A' for Active; 'I' for Inactive)
REMARK    1  A    between atoms: C_1  and  O_2
REMARK    2  A    between atoms: O_2  and  C_3
REMARK    3  A    between atoms: C_3  and  C_4
REMARK    4  A    between atoms: C_4  and  C_5
REMARK    5  A    between atoms: C_5  and  N_6
REMARK    6  A    between atoms: C_7  and  C_9
REMARK    7  A    between atoms: C_9  and  C_10
REMARK    8  A    between atoms: C_14  and  C_15
REMARK    9  A    between atoms: N_25  and  C_26
REMARK   10  A    between atoms: C_26  and  C_27
REMARK   11  A    between atoms: C_32  and  O_33
REMARK   12  A    between atoms: O_33  and  C_34
REMARK                            x       y       z     vdW  Elec       q    Type
REMARK                         _______ _______ _______ _____ _____    ______ ____
ROOT
ATOM      1  C   UNL     1       0.534  11.652  19.513  0.00  0.00    +0.000 C 
ATOM      2  C   UNL     1       1.413  12.896  19.208  0.00  0.00    +0.000 C 
ATOM      3  C   UNL     1       1.294  10.468  18.861  0.00  0.00    +0.000 C 
ATOM      4  N   UNL     1       1.329   9.294  19.689  0.00  0.00    +0.000 N 
ATOM      5  N   UNL     1       1.723   8.125  19.172  0.00  0.00    +0.000 NA
ATOM      6  C   UNL     1       1.763   7.288  20.223  0.00  0.00    +0.000 A 
ATOM      7  C   UNL     1       1.371   7.976  21.404  0.00  0.00    +0.000 A 
ATOM      8  C   UNL     1       1.062   9.262  21.008  0.00  0.00    +0.000 A 
ATOM      9  C   UNL     1       0.595  10.383  21.756  0.00  0.00    +0.000 C 
ATOM     10  O   UNL     1       0.457  10.329  22.976  0.00  0.00    +0.000 OA
ATOM     11  N   UNL     1       0.310  11.531  21.005  0.00  0.00    +0.000 N 
ENDROOT
BRANCH   6  12
ATOM     12  C   UNL     1       2.134   5.882  20.052  0.00  0.00    +0.000 A 
ATOM     13  C   UNL     1       3.273   5.547  19.301  0.00  0.00    +0.000 A 
ATOM     14  C   UNL     1       3.609   4.215  19.062  0.00  0.00    +0.000 A 
ATOM     15  C   UNL     1       2.815   3.198  19.578  0.00  0.00    +0.000 A 
ATOM     16  C   UNL     1       1.694   3.511  20.345  0.00  0.00    +0.000 A 
ATOM     17  C   UNL     1       1.356   4.846  20.585  0.00  0.00    +0.000 A 
ENDBRANCH   6  12
BRANCH   1  19
ATOM     18  N   UNL     1      -1.707  10.744  18.802  0.00  0.00    +0.000 N 
ATOM     19  C   UNL     1      -0.801  11.786  18.698  0.00  0.00    +0.000 C 
ATOM     20  O   UNL     1      -0.993  12.732  17.933  0.00  0.00    +0.000 OA
ATOM     21  H   UNL     1      -1.552   9.992  19.461  0.00  0.00    +0.000 HD
BRANCH  18  22
ATOM     22  C   UNL     1      -2.904  10.671  17.962  0.00  0.00    +0.000 C 
BRANCH  22  23
ATOM     23  C   UNL     1      -2.625   9.980  16.622  0.00  0.00    +0.000 C 
BRANCH  23  24
ATOM     24  C   UNL     1      -3.001  10.852  15.422  0.00  0.00    +0.000 C 
BRANCH  24  26
ATOM     25  C   UNL     1      -3.088   9.716  13.351  0.00  0.00    +0.000 C 
ATOM     26  O   UNL     1      -3.804  10.101  14.518  0.00  0.00    +0.000 OA
ENDBRANCH  24  26
ENDBRANCH  23  24
ENDBRANCH  22  23
ENDBRANCH  18  22
ENDBRANCH   1  19
BRANCH  11  27
ATOM     27  C   UNL     1      -0.135  12.699  21.797  0.00  0.00    +0.000 C 
BRANCH  27  28
ATOM     28  C   UNL     1      -1.626  12.877  21.983  0.00  0.00    +0.000 A 
ATOM     29  C   UNL     1      -2.316  12.125  22.953  0.00  0.00    +0.000 A 
ATOM     30  C   UNL     1      -3.663  12.337  23.242  0.00  0.00    +0.000 A 
ATOM     31  C   UNL     1      -4.362  13.320  22.561  0.00  0.00    +0.000 A 
ATOM     32  C   UNL     1      -3.711  14.067  21.576  0.00  0.00    +0.000 A 
ATOM     33  C   UNL     1      -2.361  13.840  21.266  0.00  0.00    +0.000 A 
BRANCH  33  34
ATOM     34  O   UNL     1      -1.856  14.742  20.363  0.00  0.00    +0.000 OA
ATOM     35  C   UNL     1      -1.777  16.102  20.772  0.00  0.00    +0.000 C 
ENDBRANCH  33  34
ENDBRANCH  27  28
ENDBRANCH  11  27
TORSDOF 9
ENDMDL
MODEL 3
REMARK VINA RESULT:      -7.3      4.984     10.316
REMARK  Name = 
REMARK  12 active torsions:
REMARK  status: ('A' for Active; 'I' for Inactive)
REMARK    1  A    between atoms: C_1  and  O_2
REMARK    2  A    between atoms: O_2  and  C_3
REMARK    3  A    between atoms: C_3  and  C_4
REMARK    4  A    between atoms: C_4  and  C_5
REMARK    5  A    between atoms: C_5  and  N_6
REMARK    6  A    between atoms: C_7  and  C_9
REMARK    7  A    between atoms: C_9  and  C_10
REMARK    8  A    between atoms: C_14  and  C_15
REMARK    9  A    between atoms: N_25  and  C_26
REMARK   10  A    between atoms: C_26  and  C_27
REMARK   11  A    between atoms: C_32  and  O_33
REMARK   12  A    between atoms: O_33  and  C_34
REMARK                            x       y       z     vdW  Elec       q    Type
REMARK                         _______ _______ _______ _____ _____    ______ ____
ROOT
ATOM      1  C   UNL     1       0.743  11.606  19.080  0.00  0.00    +0.000 C 
ATOM      2  C   UNL     1       1.690  12.780  18.709  0.00  0.00    +0.000 C 
ATOM      3  C   UNL     1       1.477  10.337  18.573  0.00  0.00    +0.000 C 
ATOM      4  N   UNL     1       1.423   9.242  19.502  0.00  0.00    +0.000 N 
ATOM      5  N   UNL     1       1.786   8.016  19.110  0.00  0.00    +0.000 NA
ATOM      6  C   UNL     1       1.740   7.277  20.232  0.00  0.00    +0.000 A 
ATOM      7  C   UNL     1       1.328   8.085  21.327  0.00  0.00    +0.000 A 
ATOM      8  C   UNL     1       1.095   9.341  20.804  0.00  0.00    +0.000 A 
ATOM      9  C   UNL     1       0.646  10.543  21.426  0.00  0.00    +0.000 C 
ATOM     10  O   UNL     1       0.452  10.605  22.639  0.00  0.00    +0.000 OA
ATOM     11  N   UNL     1       0.448  11.629  20.564  0.00  0.00    +0.000 N 
ENDROOT
BRANCH   6  12
ATOM     12  C   UNL     1       2.056   5.847  20.204  0.00  0.00    +0.000 A 
ATOM     13  C   UNL     1       3.313   5.418  19.748  0.00  0.00    +0.000 A 
ATOM     14  C   UNL     1       3.614   4.061  19.644  0.00  0.00    +0.000 A 
ATOM     15  C   UNL     1       2.663   3.111  20.000  0.00  0.00    +0.000 A 
ATOM     16  C   UNL     1       1.418   3.519  20.476  0.00  0.00    +0.000 A 
ATOM     17  C   UNL     1       1.116   4.880  20.582  0.00  0.00    +0.000 A 
ENDBRANCH   6  12
BRANCH   1  19
ATOM     18  N   UNL     1      -1.093  10.536  17.724  0.00  0.00    +0.000 N 
ATOM     19  C   UNL     1      -0.547  11.719  18.192  0.00  0.00    +0.000 C 
ATOM     20  O   UNL     1      -0.999  12.815  17.857  0.00  0.00    +0.000 OA
ATOM     21  H   UNL     1      -0.732   9.645  18.037  0.00  0.00    +0.000 HD
BRANCH  18  22
ATOM     22  C   UNL     1      -2.188  10.519  16.752  0.00  0.00    +0.000 C 
BRANCH  22  23
ATOM     23  C   UNL     1      -3.534  10.195  17.409  0.00  0.00    +0.000 C 
BRANCH  23  24
ATOM     24  C   UNL     1      -4.332  11.451  17.764  0.00  0.00    +0.000 C 
BRANCH  24  26
ATOM     25  C   UNL     1      -6.656  11.731  18.097  0.00  0.00    +0.000 C 
ATOM     26  O   UNL     1      -5.629  11.377  17.179  0.00  0.00    +0.000 OA
ENDBRANCH  24  26
ENDBRANCH  23  24
ENDBRANCH  22  23
ENDBRANCH  18  22
ENDBRANCH   1  19
BRANCH  11  27
ATOM     27  C   UNL     1       0.020  12.881  21.227  0.00  0.00    +0.000 C 
BRANCH  27  28
ATOM     28  C   UNL     1      -1.421  12.963  21.682  0.00  0.00    +0.000 A 
ATOM     29  C   UNL     1      -2.455  12.487  20.855  0.00  0.00    +0.000 A 
ATOM     30  C   UNL     1      -3.782  12.433  21.277  0.00  0.00    +0.000 A 
ATOM     31  C   UNL     1      -4.112  12.859  22.553  0.00  0.00    +0.000 A 
ATOM     32  C   UNL     1      -3.111  13.359  23.390  0.00  0.00    +0.000 A 
ATOM     33  C   UNL     1      -1.777  13.436  22.960  0.00  0.00    +0.000 A 
BRANCH  33  34
ATOM     34  O   UNL     1      -0.914  13.838  23.949  0.00  0.00    +0.000 OA
ATOM     35  C   UNL     1      -1.060  15.163  24.445  0.00  0.00    +0.000 C 
ENDBRANCH  33  34
ENDBRANCH  27  28
ENDBRANCH  11  27
TORSDOF 9
ENDMDL
MODEL 4
REMARK VINA RESULT:      -7.2      4.846     10.722
REMARK  Name = 
REMARK  12 active torsions:
REMARK  status: ('A' for Active; 'I' for Inactive)
REMARK    1  A    between atoms: C_1  and  O_2
REMARK    2  A    between atoms: O_2  and  C_3
REMARK    3  A    between atoms: C_3  and  C_4
REMARK    4  A    between atoms: C_4  and  C_5
REMARK    5  A    between atoms: C_5  and  N_6
REMARK    6  A    between atoms: C_7  and  C_9
REMARK    7  A    between atoms: C_9  and  C_10
REMARK    8  A    between atoms: C_14  and  C_15
REMARK    9  A    between atoms: N_25  and  C_26
REMARK   10  A    between atoms: C_26  and  C_27
REMARK   11  A    between atoms: C_32  and  O_33
REMARK   12  A    between atoms: O_33  and  C_34
REMARK                            x       y       z     vdW  Elec       q    Type
REMARK                         _______ _______ _______ _____ _____    ______ ____
ROOT
ATOM      1  C   UNL     1       0.436  12.178  19.763  0.00  0.00    +0.000 C 
ATOM      2  C   UNL     1       1.317  13.455  19.678  0.00  0.00    +0.000 C 
ATOM      3  C   UNL     1       1.285  11.073  19.083  0.00  0.00    +0.000 C 
ATOM      4  N   UNL     1       1.256   9.822  19.789  0.00  0.00    +0.000 N 
ATOM      5  N   UNL     1       1.726   8.715  19.205  0.00  0.00    +0.000 NA
ATOM      6  C   UNL     1       1.671   7.777  20.167  0.00  0.00    +0.000 A 
ATOM      7  C   UNL     1       1.143   8.339  21.361  0.00  0.00    +0.000 A 
ATOM      8  C   UNL     1       0.851   9.656  21.063  0.00  0.00    +0.000 A 
ATOM      9  C   UNL     1       0.285  10.691  21.863  0.00  0.00    +0.000 C 
ATOM     10  O   UNL     1       0.020  10.513  23.051  0.00  0.00    +0.000 OA
ATOM     11  N   UNL     1       0.059  11.906  21.204  0.00  0.00    +0.000 N 
ENDROOT
BRANCH   6  12
ATOM     12  C   UNL     1       2.087   6.399  19.899  0.00  0.00    +0.000 A 
ATOM     13  C   UNL     1       2.913   6.120  18.797  0.00  0.00    +0.000 A 
ATOM     14  C   UNL     1       3.265   4.810  18.477  0.00  0.00    +0.000 A 
ATOM     15  C   UNL     1       2.801   3.758  19.258  0.00  0.00    +0.000 A 
ATOM     16  C   UNL     1       2.000   4.017  20.369  0.00  0.00    +0.000 A 
ATOM     17  C   UNL     1       1.647   5.331  20.690  0.00  0.00    +0.000 A 
ENDBRANCH   6  12
BRANCH   1  19
ATOM     18  N   UNL     1      -1.869  11.508  18.996  0.00  0.00    +0.000 N 
ATOM     19  C   UNL     1      -0.807  12.380  18.827  0.00  0.00    +0.000 C 
ATOM     20  O   UNL     1      -0.801  13.220  17.925  0.00  0.00    +0.000 OA
ATOM     21  H   UNL     1      -1.875  10.848  19.763  0.00  0.00    +0.000 HD
BRANCH  18  22
ATOM     22  C   UNL     1      -3.007  11.484  18.076  0.00  0.00    +0.000 C 
BRANCH  22  23
ATOM     23  C   UNL     1      -4.328  11.797  18.787  0.00  0.00    +0.000 C 
BRANCH  23  24
ATOM     24  C   UNL     1      -5.550  11.501  17.914  0.00  0.00    +0.000 C 
BRANCH  24  26
ATOM     25  C   UNL     1      -6.639  13.417  17.058  0.00  0.00    +0.000 C 
ATOM     26  O   UNL     1      -5.620  12.447  16.852  0.00  0.00    +0.000 OA
ENDBRANCH  24  26
ENDBRANCH  23  24
ENDBRANCH  22  23
ENDBRANCH  18  22
ENDBRANCH   1  19
BRANCH  11  27
ATOM     27  C   UNL     1      -0.492  12.984  22.055  0.00  0.00    +0.000 C 
BRANCH  27  28
ATOM     28  C   UNL     1      -1.973  13.270  21.932  0.00  0.00    +0.000 A 
ATOM     29  C   UNL     1      -2.910  12.470  22.612  0.00  0.00    +0.000 A 
ATOM     30  C   UNL     1      -4.272  12.765  22.625  0.00  0.00    +0.000 A 
ATOM     31  C   UNL     1      -4.737  13.882  21.951  0.00  0.00    +0.000 A 
ATOM     32  C   UNL     1      -3.833  14.684  21.248  0.00  0.00    +0.000 A 
ATOM     33  C   UNL     1      -2.465  14.377  21.213  0.00  0.00    +0.000 A 
BRANCH  33  34
ATOM     34  O   UNL     1      -1.713  15.334  20.578  0.00  0.00    +0.000 OA
ATOM     35  C   UNL     1      -2.315  16.606  20.370  0.00  0.00    +0.000 C 
ENDBRANCH  33  34
ENDBRANCH  27  28
ENDBRANCH  11  27
TORSDOF 9
ENDMDL
MODEL 5
REMARK VINA RESULT:      -7.0      3.912      7.336
REMARK  Name = 
REMARK  12 active torsions:
REMARK  status: ('A' for Active; 'I' for Inactive)
REMARK    1  A    between atoms: C_1  and  O_2
REMARK    2  A    between atoms: O_2  and  C_3
REMARK    3  A    between atoms: C_3  and  C_4
REMARK    4  A    between atoms: C_4  and  C_5
REMARK    5  A    between atoms: C_5  and  N_6
REMARK    6  A    between atoms: C_7  and  C_9
REMARK    7  A    between atoms: C_9  and  C_10
REMARK    8  A    between atoms: C_14  and  C_15
REMARK    9  A    between atoms: N_25  and  C_26
REMARK   10  A    between atoms: C_26  and  C_27
REMARK   11  A    between atoms: C_32  and  O_33
REMARK   12  A    between atoms: O_33  and  C_34
REMARK                            x       y       z     vdW  Elec       q    Type
REMARK                         _______ _______ _______ _____ _____    ______ ____
ROOT
ATOM      1  C   UNL     1       5.869   6.125  16.757  0.00  0.00    +0.000 C 
ATOM      2  C   UNL     1       4.320   6.165  16.655  0.00  0.00    +0.000 C 
ATOM      3  C   UNL     1       6.306   7.608  16.631  0.00  0.00    +0.000 C 
ATOM      4  N   UNL     1       7.339   7.974  17.559  0.00  0.00    +0.000 N 
ATOM      5  N   UNL     1       7.992   9.132  17.408  0.00  0.00    +0.000 NA
ATOM      6  C   UNL     1       8.779   9.219  18.495  0.00  0.00    +0.000 A 
ATOM      7  C   UNL     1       8.598   8.072  19.316  0.00  0.00    +0.000 A 
ATOM      8  C   UNL     1       7.686   7.273  18.656  0.00  0.00    +0.000 A 
ATOM      9  C   UNL     1       7.145   5.998  18.993  0.00  0.00    +0.000 C 
ATOM     10  O   UNL     1       7.422   5.443  20.054  0.00  0.00    +0.000 OA
ATOM     11  N   UNL     1       6.285   5.438  18.040  0.00  0.00    +0.000 N 
ENDROOT
BRANCH   6  12
ATOM     12  C   UNL     1       9.679  10.358  18.682  0.00  0.00    +0.000 A 
ATOM     13  C   UNL     1      10.236  11.000  17.563  0.00  0.00    +0.000 A 
ATOM     14  C   UNL     1      11.152  12.040  17.715  0.00  0.00    +0.000 A 
ATOM     15  C   UNL     1      11.520  12.459  18.988  0.00  0.00    +0.000 A 
ATOM     16  C   UNL     1      10.961  11.849  20.110  0.00  0.00    +0.000 A 
ATOM     17  C   UNL     1      10.043  10.806  19.959  0.00  0.00    +0.000 A 
ENDBRANCH   6  12
BRANCH   1  19
ATOM     18  N   UNL     1       5.573   4.547  14.815  0.00  0.00    +0.000 N 
ATOM     19  C   UNL     1       6.425   5.420  15.470  0.00  0.00    +0.000 C 
ATOM     20  O   UNL     1       7.594   5.569  15.112  0.00  0.00    +0.000 OA
ATOM     21  H   UNL     1       4.606   4.462  15.099  0.00  0.00    +0.000 HD
BRANCH  18  22
ATOM     22  C   UNL     1       6.029   3.702  13.709  0.00  0.00    +0.000 C 
BRANCH  22  23
ATOM     23  C   UNL     1       5.295   4.021  12.402  0.00  0.00    +0.000 C 
BRANCH  23  24
ATOM     24  C   UNL     1       5.001   2.769  11.572  0.00  0.00    +0.000 C 
BRANCH  24  26
ATOM     25  C   UNL     1       3.410   3.834  10.186  0.00  0.00    +0.000 C 
ATOM     26  O   UNL     1       3.648   2.796  11.128  0.00  0.00    +0.000 OA
ENDBRANCH  24  26
ENDBRANCH  23  24
ENDBRANCH  22  23
ENDBRANCH  18  22
ENDBRANCH   1  19
BRANCH  11  27
ATOM     27  C   UNL     1       5.699   4.134  18.420  0.00  0.00    +0.000 C 
BRANCH  27  28
ATOM     28  C   UNL     1       4.301   4.149  18.998  0.00  0.00    +0.000 A 
ATOM     29  C   UNL     1       3.886   5.209  19.826  0.00  0.00    +0.000 A 
ATOM     30  C   UNL     1       2.575   5.327  20.286  0.00  0.00    +0.000 A 
ATOM     31  C   UNL     1       1.635   4.376  19.924  0.00  0.00    +0.000 A 
ATOM     32  C   UNL     1       2.022   3.299  19.123  0.00  0.00    +0.000 A 
ATOM     33  C   UNL     1       3.346   3.164  18.677  0.00  0.00    +0.000 A 
BRANCH  33  34
ATOM     34  O   UNL     1       3.519   2.117  17.806  0.00  0.00    +0.000 OA
ATOM     35  C   UNL     1       3.999   0.892  18.344  0.00  0.00    +0.000 C 
ENDBRANCH  33  34
ENDBRANCH  27  28
ENDBRANCH  11  27
TORSDOF 9
ENDMDL
MODEL 6
REMARK VINA RESULT:      -6.9      4.282      9.748
REMARK  Name = 
REMARK  12 active torsions:
REMARK  status: ('A' for Active; 'I' for Inactive)
REMARK    1  A    between atoms: C_1  and  O_2
REMARK    2  A    between atoms: O_2  and  C_3
REMARK    3  A    between atoms: C_3  and  C_4
REMARK    4  A    between atoms: C_4  and  C_5
REMARK    5  A    between atoms: C_5  and  N_6
REMARK    6  A    between atoms: C_7  and  C_9
REMARK    7  A    between atoms: C_9  and  C_10
REMARK    8  A    between atoms: C_14  and  C_15
REMARK    9  A    between atoms: N_25  and  C_26
REMARK   10  A    between atoms: C_26  and  C_27
REMARK   11  A    between atoms: C_32  and  O_33
REMARK   12  A    between atoms: O_33  and  C_34
REMARK                            x       y       z     vdW  Elec       q    Type
REMARK                         _______ _______ _______ _____ _____    ______ ____
ROOT
ATOM      1  C   UNL     1       0.992  10.386  19.006  0.00  0.00    +0.000 C 
ATOM      2  C   UNL     1       1.809  11.613  18.517  0.00  0.00    +0.000 C 
ATOM      3  C   UNL     1       1.526   9.200  18.160  0.00  0.00    +0.000 C 
ATOM      4  N   UNL     1       1.727   8.002  18.928  0.00  0.00    +0.000 N 
ATOM      5  N   UNL     1       1.939   6.838  18.305  0.00  0.00    +0.000 NA
ATOM      6  C   UNL     1       2.211   5.971  19.295  0.00  0.00    +0.000 A 
ATOM      7  C   UNL     1       2.150   6.635  20.551  0.00  0.00    +0.000 A 
ATOM      8  C   UNL     1       1.795   7.940  20.272  0.00  0.00    +0.000 A 
ATOM      9  C   UNL     1       1.567   9.051  21.136  0.00  0.00    +0.000 C 
ATOM     10  O   UNL     1       1.736   8.966  22.350  0.00  0.00    +0.000 OA
ATOM     11  N   UNL     1       1.144  10.228  20.504  0.00  0.00    +0.000 N 
ENDROOT
BRANCH   6  12
ATOM     12  C   UNL     1       2.481   4.561  19.008  0.00  0.00    +0.000 A 
ATOM     13  C   UNL     1       3.808   4.104  18.937  0.00  0.00    +0.000 A 
ATOM     14  C   UNL     1       4.095   2.783  18.594  0.00  0.00    +0.000 A 
ATOM     15  C   UNL     1       3.058   1.897  18.323  0.00  0.00    +0.000 A 
ATOM     16  C   UNL     1       1.735   2.327  18.411  0.00  0.00    +0.000 A 
ATOM     17  C   UNL     1       1.447   3.651  18.755  0.00  0.00    +0.000 A 
ENDBRANCH   6  12
BRANCH   1  19
ATOM     18  N   UNL     1      -0.765  11.644  17.710  0.00  0.00    +0.000 N 
ATOM     19  C   UNL     1      -0.498  10.579  18.553  0.00  0.00    +0.000 C 
ATOM     20  O   UNL     1      -1.400   9.868  18.999  0.00  0.00    +0.000 OA
ATOM     21  H   UNL     1      -0.010  12.196  17.325  0.00  0.00    +0.000 HD
BRANCH  18  22
ATOM     22  C   UNL     1      -2.132  12.030  17.357  0.00  0.00    +0.000 C 
BRANCH  22  23
ATOM     23  C   UNL     1      -2.711  11.144  16.248  0.00  0.00    +0.000 C 
BRANCH  23  24
ATOM     24  C   UNL     1      -4.240  11.101  16.267  0.00  0.00    +0.000 C 
BRANCH  24  26
ATOM     25  C   UNL     1      -5.974  12.424  17.181  0.00  0.00    +0.000 C 
ATOM     26  O   UNL     1      -4.724  11.787  17.418  0.00  0.00    +0.000 OA
ENDBRANCH  24  26
ENDBRANCH  23  24
ENDBRANCH  22  23
ENDBRANCH  18  22
ENDBRANCH   1  19
BRANCH  11  27
ATOM     27  C   UNL     1       0.949  11.384  21.406  0.00  0.00    +0.000 C 
BRANCH  27  28
ATOM     28  C   UNL     1      -0.474  11.728  21.789  0.00  0.00    +0.000 A 
ATOM     29  C   UNL     1      -1.096  11.076  22.871  0.00  0.00    +0.000 A 
ATOM     30  C   UNL     1      -2.359  11.440  23.334  0.00  0.00    +0.000 A 
ATOM     31  C   UNL     1      -3.040  12.479  22.721  0.00  0.00    +0.000 A 
ATOM     32  C   UNL     1      -2.458  13.130  21.629  0.00  0.00    +0.000 A 
ATOM     33  C   UNL     1      -1.197  12.751  21.145  0.00  0.00    +0.000 A 
BRANCH  33  34
ATOM     34  O   UNL     1      -0.732  13.573  20.149  0.00  0.00    +0.000 OA
ATOM     35  C   UNL     1      -1.221  14.908  20.123  0.00  0.00    +0.000 C 
ENDBRANCH  33  34
ENDBRANCH  27  28
ENDBRANCH  11  27
TORSDOF 9
ENDMDL
MODEL 7
REMARK VINA RESULT:      -6.9      4.311     10.077
REMARK  Name = 
REMARK  12 active torsions:
REMARK  status: ('A' for Active; 'I' for Inactive)
REMARK    1  A    between atoms: C_1  and  O_2
REMARK    2  A    between atoms: O_2  and  C_3
REMARK    3  A    between atoms: C_3  and  C_4
REMARK    4  A    between atoms: C_4  and  C_5
REMARK    5  A    between atoms: C_5  and  N_6
REMARK    6  A    between atoms: C_7  and  C_9
REMARK    7  A    between atoms: C_9  and  C_10
REMARK    8  A    between atoms: C_14  and  C_15
REMARK    9  A    between atoms: N_25  and  C_26
REMARK   10  A    between atoms: C_26  and  C_27
REMARK   11  A    between atoms: C_32  and  O_33
REMARK   12  A    between atoms: O_33  and  C_34
REMARK                            x       y       z     vdW  Elec       q    Type
REMARK                         _______ _______ _______ _____ _____    ______ ____
ROOT
ATOM      1  C   UNL     1       0.889  11.724  19.125  0.00  0.00    +0.000 C 
ATOM      2  C   UNL     1       1.722  13.032  19.209  0.00  0.00    +0.000 C 
ATOM      3  C   UNL     1       1.727  10.786  18.219  0.00  0.00    +0.000 C 
ATOM      4  N   UNL     1       1.783   9.434  18.702  0.00  0.00    +0.000 N 
ATOM      5  N   UNL     1       2.249   8.461  17.911  0.00  0.00    +0.000 NA
ATOM      6  C   UNL     1       2.286   7.374  18.700  0.00  0.00    +0.000 A 
ATOM      7  C   UNL     1       1.817   7.704  20.002  0.00  0.00    +0.000 A 
ATOM      8  C   UNL     1       1.466   9.038  19.950  0.00  0.00    +0.000 A 
ATOM      9  C   UNL     1       0.919   9.899  20.946  0.00  0.00    +0.000 C 
ATOM     10  O   UNL     1       0.736   9.514  22.099  0.00  0.00    +0.000 OA
ATOM     11  N   UNL     1       0.613  11.197  20.517  0.00  0.00    +0.000 N 
ENDROOT
BRANCH   6  12
ATOM     12  C   UNL     1       2.727   6.079  18.178  0.00  0.00    +0.000 A 
ATOM     13  C   UNL     1       4.019   5.946  17.642  0.00  0.00    +0.000 A 
ATOM     14  C   UNL     1       4.439   4.745  17.072  0.00  0.00    +0.000 A 
ATOM     15  C   UNL     1       3.576   3.656  17.036  0.00  0.00    +0.000 A 
ATOM     16  C   UNL     1       2.299   3.762  17.584  0.00  0.00    +0.000 A 
ATOM     17  C   UNL     1       1.877   4.966  18.156  0.00  0.00    +0.000 A 
ENDBRANCH   6  12
BRANCH   1  19
ATOM     18  N   UNL     1      -1.175  10.941  17.910  0.00  0.00    +0.000 N 
ATOM     19  C   UNL     1      -0.417  12.028  18.310  0.00  0.00    +0.000 C 
ATOM     20  O   UNL     1      -0.706  13.176  17.968  0.00  0.00    +0.000 OA
ATOM     21  H   UNL     1      -0.945  10.009  18.229  0.00  0.00    +0.000 HD
BRANCH  18  22
ATOM     22  C   UNL     1      -2.316  11.082  17.003  0.00  0.00    +0.000 C 
BRANCH  22  23
ATOM     23  C   UNL     1      -3.643  10.744  17.692  0.00  0.00    +0.000 C 
BRANCH  23  24
ATOM     24  C   UNL     1      -4.816  11.556  17.139  0.00  0.00    +0.000 C 
BRANCH  24  26
ATOM     25  C   UNL     1      -6.990  12.184  17.824  0.00  0.00    +0.000 C 
ATOM     26  O   UNL     1      -6.025  11.140  17.767  0.00  0.00    +0.000 OA
ENDBRANCH  24  26
ENDBRANCH  23  24
ENDBRANCH  22  23
ENDBRANCH  18  22
ENDBRANCH   1  19
BRANCH  11  27
ATOM     27  C   UNL     1       0.084  12.093  21.570  0.00  0.00    +0.000 C 
BRANCH  27  28
ATOM     28  C   UNL     1      -1.192  12.845  21.258  0.00  0.00    +0.000 A 
ATOM     29  C   UNL     1      -2.411  12.154  21.127  0.00  0.00    +0.000 A 
ATOM     30  C   UNL     1      -3.627  12.812  20.958  0.00  0.00    +0.000 A 
ATOM     31  C   UNL     1      -3.655  14.197  20.916  0.00  0.00    +0.000 A 
ATOM     32  C   UNL     1      -2.459  14.911  21.020  0.00  0.00    +0.000 A 
ATOM     33  C   UNL     1      -1.229  14.250  21.166  0.00  0.00    +0.000 A 
BRANCH  33  34
ATOM     34  O   UNL     1      -0.177  15.107  21.372  0.00  0.00    +0.000 OA
ATOM     35  C   UNL     1      -0.248  16.388  20.758  0.00  0.00    +0.000 C 
ENDBRANCH  33  34
ENDBRANCH  27  28
ENDBRANCH  11  27
TORSDOF 9
ENDMDL
MODEL 8
REMARK VINA RESULT:      -6.9      3.746      7.137
REMARK  Name = 
REMARK  12 active torsions:
REMARK  status: ('A' for Active; 'I' for Inactive)
REMARK    1  A    between atoms: C_1  and  O_2
REMARK    2  A    between atoms: O_2  and  C_3
REMARK    3  A    between atoms: C_3  and  C_4
REMARK    4  A    between atoms: C_4  and  C_5
REMARK    5  A    between atoms: C_5  and  N_6
REMARK    6  A    between atoms: C_7  and  C_9
REMARK    7  A    between atoms: C_9  and  C_10
REMARK    8  A    between atoms: C_14  and  C_15
REMARK    9  A    between atoms: N_25  and  C_26
REMARK   10  A    between atoms: C_26  and  C_27
REMARK   11  A    between atoms: C_32  and  O_33
REMARK   12  A    between atoms: O_33  and  C_34
REMARK                            x       y       z     vdW  Elec       q    Type
REMARK                         _______ _______ _______ _____ _____    ______ ____
ROOT
ATOM      1  C   UNL     1       5.916   5.727  16.547  0.00  0.00    +0.000 C 
ATOM      2  C   UNL     1       4.374   5.685  16.364  0.00  0.00    +0.000 C 
ATOM      3  C   UNL     1       6.279   7.232  16.449  0.00  0.00    +0.000 C 
ATOM      4  N   UNL     1       7.242   7.647  17.431  0.00  0.00    +0.000 N 
ATOM      5  N   UNL     1       7.839   8.839  17.318  0.00  0.00    +0.000 NA
ATOM      6  C   UNL     1       8.563   8.961  18.445  0.00  0.00    +0.000 A 
ATOM      7  C   UNL     1       8.400   7.802  19.252  0.00  0.00    +0.000 A 
ATOM      8  C   UNL     1       7.568   6.959  18.542  0.00  0.00    +0.000 A 
ATOM      9  C   UNL     1       7.078   5.656  18.847  0.00  0.00    +0.000 C 
ATOM     10  O   UNL     1       7.329   5.109  19.920  0.00  0.00    +0.000 OA
ATOM     11  N   UNL     1       6.301   5.056  17.848  0.00  0.00    +0.000 N 
ENDROOT
BRANCH   6  12
ATOM     12  C   UNL     1       9.390  10.145  18.683  0.00  0.00    +0.000 A 
ATOM     13  C   UNL     1       9.631  10.576  19.998  0.00  0.00    +0.000 A 
ATOM     14  C   UNL     1      10.354  11.741  20.250  0.00  0.00    +0.000 A 
ATOM     15  C   UNL     1      10.856  12.488  19.191  0.00  0.00    +0.000 A 
ATOM     16  C   UNL     1      10.647  12.063  17.880  0.00  0.00    +0.000 A 
ATOM     17  C   UNL     1       9.921  10.895  17.626  0.00  0.00    +0.000 A 
ENDBRANCH   6  12
BRANCH   1  19
ATOM     18  N   UNL     1       5.796   4.172  14.568  0.00  0.00    +0.000 N 
ATOM     19  C   UNL     1       6.576   5.060  15.290  0.00  0.00    +0.000 C 
ATOM     20  O   UNL     1       7.760   5.251  15.010  0.00  0.00    +0.000 OA
ATOM     21  H   UNL     1       4.815   4.053  14.789  0.00  0.00    +0.000 HD
BRANCH  18  22
ATOM     22  C   UNL     1       6.348   3.359  13.482  0.00  0.00    +0.000 C 
BRANCH  22  23
ATOM     23  C   UNL     1       5.874   3.841  12.106  0.00  0.00    +0.000 C 
BRANCH  23  24
ATOM     24  C   UNL     1       4.545   3.207  11.688  0.00  0.00    +0.000 C 
BRANCH  24  26
ATOM     25  C   UNL     1       3.002   3.432   9.912  0.00  0.00    +0.000 C 
ATOM     26  O   UNL     1       3.826   4.108  10.853  0.00  0.00    +0.000 OA
ENDBRANCH  24  26
ENDBRANCH  23  24
ENDBRANCH  22  23
ENDBRANCH  18  22
ENDBRANCH   1  19
BRANCH  11  27
ATOM     27  C   UNL     1       5.765   3.720  18.193  0.00  0.00    +0.000 C 
BRANCH  27  28
ATOM     28  C   UNL     1       4.260   3.567  18.221  0.00  0.00    +0.000 A 
ATOM     29  C   UNL     1       3.646   2.468  17.590  0.00  0.00    +0.000 A 
ATOM     30  C   UNL     1       2.278   2.221  17.689  0.00  0.00    +0.000 A 
ATOM     31  C   UNL     1       1.480   3.077  18.430  0.00  0.00    +0.000 A 
ATOM     32  C   UNL     1       2.056   4.190  19.049  0.00  0.00    +0.000 A 
ATOM     33  C   UNL     1       3.430   4.454  18.932  0.00  0.00    +0.000 A 
BRANCH  33  34
ATOM     34  O   UNL     1       3.841   5.516  19.699  0.00  0.00    +0.000 OA
ATOM     35  C   UNL     1       3.020   6.677  19.702  0.00  0.00    +0.000 C 
ENDBRANCH  33  34
ENDBRANCH  27  28
ENDBRANCH  11  27
TORSDOF 9
ENDMDL
MODEL 9
REMARK VINA RESULT:      -6.8      4.499      9.789
REMARK  Name = 
REMARK  12 active torsions:
REMARK  status: ('A' for Active; 'I' for Inactive)
REMARK    1  A    between atoms: C_1  and  O_2
REMARK    2  A    between atoms: O_2  and  C_3
REMARK    3  A    between atoms: C_3  and  C_4
REMARK    4  A    between atoms: C_4  and  C_5
REMARK    5  A    between atoms: C_5  and  N_6
REMARK    6  A    between atoms: C_7  and  C_9
REMARK    7  A    between atoms: C_9  and  C_10
REMARK    8  A    between atoms: C_14  and  C_15
REMARK    9  A    between atoms: N_25  and  C_26
REMARK   10  A    between atoms: C_26  and  C_27
REMARK   11  A    between atoms: C_32  and  O_33
REMARK   12  A    between atoms: O_33  and  C_34
REMARK                            x       y       z     vdW  Elec       q    Type
REMARK                         _______ _______ _______ _____ _____    ______ ____
ROOT
ATOM      1  C   UNL     1       0.820  10.515  19.130  0.00  0.00    +0.000 C 
ATOM      2  C   UNL     1       1.603  11.726  18.554  0.00  0.00    +0.000 C 
ATOM      3  C   UNL     1       1.442   9.279  18.427  0.00  0.00    +0.000 C 
ATOM      4  N   UNL     1       1.661   8.172  19.317  0.00  0.00    +0.000 N 
ATOM      5  N   UNL     1       1.950   6.965  18.821  0.00  0.00    +0.000 NA
ATOM      6  C   UNL     1       2.217   6.212  19.902  0.00  0.00    +0.000 A 
ATOM      7  C   UNL     1       2.072   6.991  21.082  0.00  0.00    +0.000 A 
ATOM      8  C   UNL     1       1.674   8.244  20.662  0.00  0.00    +0.000 A 
ATOM      9  C   UNL     1       1.360   9.422  21.402  0.00  0.00    +0.000 C 
ATOM     10  O   UNL     1       1.480   9.463  22.625  0.00  0.00    +0.000 OA
ATOM     11  N   UNL     1       0.913  10.510  20.641  0.00  0.00    +0.000 N 
ENDROOT
BRANCH   6  12
ATOM     12  C   UNL     1       2.560   4.795  19.766  0.00  0.00    +0.000 A 
ATOM     13  C   UNL     1       3.857   4.425  19.372  0.00  0.00    +0.000 A 
ATOM     14  C   UNL     1       4.190   3.087  19.165  0.00  0.00    +0.000 A 
ATOM     15  C   UNL     1       3.233   2.097  19.356  0.00  0.00    +0.000 A 
ATOM     16  C   UNL     1       1.947   2.444  19.768  0.00  0.00    +0.000 A 
ATOM     17  C   UNL     1       1.612   3.785  19.976  0.00  0.00    +0.000 A 
ENDBRANCH   6  12
BRANCH   1  19
ATOM     18  N   UNL     1      -0.936  11.566  17.660  0.00  0.00    +0.000 N 
ATOM     19  C   UNL     1      -0.656  10.592  18.603  0.00  0.00    +0.000 C 
ATOM     20  O   UNL     1      -1.542   9.876  19.072  0.00  0.00    +0.000 OA
ATOM     21  H   UNL     1      -0.191  12.122  17.259  0.00  0.00    +0.000 HD
BRANCH  18  22
ATOM     22  C   UNL     1      -2.303  11.850  17.220  0.00  0.00    +0.000 C 
BRANCH  22  23
ATOM     23  C   UNL     1      -2.598  11.252  15.840  0.00  0.00    +0.000 C 
BRANCH  23  24
ATOM     24  C   UNL     1      -3.270   9.879  15.925  0.00  0.00    +0.000 C 
BRANCH  24  26
ATOM     25  C   UNL     1      -3.435   9.995  13.570  0.00  0.00    +0.000 C 
ATOM     26  O   UNL     1      -4.101   9.681  14.786  0.00  0.00    +0.000 OA
ENDBRANCH  24  26
ENDBRANCH  23  24
ENDBRANCH  22  23
ENDBRANCH  18  22
ENDBRANCH   1  19
BRANCH  11  27
ATOM     27  C   UNL     1       0.629  11.738  21.416  0.00  0.00    +0.000 C 
BRANCH  27  28
ATOM     28  C   UNL     1      -0.816  12.008  21.775  0.00  0.00    +0.000 A 
ATOM     29  C   UNL     1      -1.384  11.426  22.924  0.00  0.00    +0.000 A 
ATOM     30  C   UNL     1      -2.671  11.738  23.359  0.00  0.00    +0.000 A 
ATOM     31  C   UNL     1      -3.431  12.651  22.647  0.00  0.00    +0.000 A 
ATOM     32  C   UNL     1      -2.903  13.228  21.489  0.00  0.00    +0.000 A 
ATOM     33  C   UNL     1      -1.617  12.899  21.035  0.00  0.00    +0.000 A 
BRANCH  33  34
ATOM     34  O   UNL     1      -1.218  13.647  19.955  0.00  0.00    +0.000 OA
ATOM     35  C   UNL     1      -1.100  15.052  20.141  0.00  0.00    +0.000 C 
ENDBRANCH  33  34
ENDBRANCH  27  28
ENDBRANCH  11  27
TORSDOF 9
ENDMDL
