MODEL 1
REMARK VINA RESULT:      -8.5      0.000      0.000
REMARK  Name = 
REMARK  5 active torsions:
REMARK  status: ('A' for Active; 'I' for Inactive)
REMARK    1  A    between atoms: C_1  and  C_2
REMARK    2  A    between atoms: C_5  and  N_6
REMARK    3  A    between atoms: C_7  and  C_9
REMARK    4  A    between atoms: C_11  and  N_12
REMARK    5  A    between atoms: C_15  and  N_16
REMARK                            x       y       z     vdW  Elec       q    Type
REMARK                         _______ _______ _______ _____ _____    ______ ____
ROOT
ATOM      1  C   UNL     1       2.803   5.273  19.957  0.00  0.00    +0.000 A 
ATOM      2  C   UNL     1       2.083   4.497  20.904  0.00  0.00    +0.000 A 
ATOM      3  C   UNL     1       2.410   3.169  21.194  0.00  0.00    +0.000 A 
ATOM      4  C   UNL     1       3.363   2.544  20.415  0.00  0.00    +0.000 A 
ATOM      5  C   UNL     1       4.106   3.286  19.501  0.00  0.00    +0.000 A 
ATOM      6  C   UNL     1       3.919   4.676  19.297  0.00  0.00    +0.000 A 
ENDROOT
BRANCH   6   7
ATOM      7  N   UNL     1       4.884   5.380  18.538  0.00  0.00    +0.000 N 
ATOM      8  C   UNL     1       6.271   5.311  19.043  0.00  0.00    +0.000 C 
ATOM      9  C   UNL     1       7.164   6.355  18.384  0.00  0.00    +0.000 C 
ATOM     10  C   UNL     1       7.095   6.246  16.867  0.00  0.00    +0.000 C 
ATOM     11  C   UNL     1       5.642   6.331  16.402  0.00  0.00    +0.000 C 
ATOM     12  C   UNL     1       4.773   5.257  17.074  0.00  0.00    +0.000 C 
ENDBRANCH   6   7
BRANCH   1  14
ATOM     13  N   UNL     1       1.816   7.360  20.874  0.00  0.00    +0.000 N 
ATOM     14  C   UNL     1       2.376   6.722  19.757  0.00  0.00    +0.000 C 
ATOM     15  O   UNL     1       2.544   7.276  18.676  0.00  0.00    +0.000 OA
ATOM     16  H   UNL     1       1.793   6.867  21.751  0.00  0.00    +0.000 HD
BRANCH  13  21
ATOM     17  C   UNL     1      -1.350  12.135  21.135  0.00  0.00    +0.000 C 
ATOM     18  C   UNL     1      -0.398  10.977  21.072  0.00  0.00    +0.000 A 
ATOM     19  C   UNL     1       0.116  10.540  19.847  0.00  0.00    +0.000 A 
ATOM     20  C   UNL     1       0.904   9.389  19.766  0.00  0.00    +0.000 A 
ATOM     21  C   UNL     1       1.171   8.626  20.908  0.00  0.00    +0.000 A 
ATOM     22  C   UNL     1       0.699   9.091  22.144  0.00  0.00    +0.000 A 
ATOM     23  C   UNL     1      -0.067  10.264  22.227  0.00  0.00    +0.000 A 
ENDBRANCH  13  21
ENDBRANCH   1  14
BRANCH   3  24
ATOM     24  N   UNL     1       1.651   2.424  22.103  0.00  0.00    +0.000 N 
ATOM     25  H   UNL     1       2.020   1.494  22.280  0.00  0.00    +0.000 HD
ATOM     26  H   UNL     1       0.665   2.382  21.851  0.00  0.00    +0.000 HD
ENDBRANCH   3  24
TORSDOF 4
ENDMDL
MODEL 2
REMARK VINA RESULT:      -8.2      0.308      1.044
REMARK  Name = 
REMARK  5 active torsions:
REMARK  status: ('A' for Active; 'I' for Inactive)
REMARK    1  A    between atoms: C_1  and  C_2
REMARK    2  A    between atoms: C_5  and  N_6
REMARK    3  A    between atoms: C_7  and  C_9
REMARK    4  A    between atoms: C_11  and  N_12
REMARK    5  A    between atoms: C_15  and  N_16
REMARK                            x       y       z     vdW  Elec       q    Type
REMARK                         _______ _______ _______ _____ _____    ______ ____
ROOT
ATOM      1  C   UNL     1       2.803   5.268  19.991  0.00  0.00    +0.000 A 
ATOM      2  C   UNL     1       2.083   4.484  20.932  0.00  0.00    +0.000 A 
ATOM      3  C   UNL     1       2.416   3.157  21.218  0.00  0.00    +0.000 A 
ATOM      4  C   UNL     1       3.376   2.540  20.440  0.00  0.00    +0.000 A 
ATOM      5  C   UNL     1       4.119   3.290  19.532  0.00  0.00    +0.000 A 
ATOM      6  C   UNL     1       3.924   4.679  19.333  0.00  0.00    +0.000 A 
ENDROOT
BRANCH   6   7
ATOM      7  N   UNL     1       4.889   5.392  18.581  0.00  0.00    +0.000 N 
ATOM      8  C   UNL     1       6.280   5.304  19.076  0.00  0.00    +0.000 C 
ATOM      9  C   UNL     1       7.174   6.355  18.431  0.00  0.00    +0.000 C 
ATOM     10  C   UNL     1       7.094   6.276  16.913  0.00  0.00    +0.000 C 
ATOM     11  C   UNL     1       5.639   6.378  16.459  0.00  0.00    +0.000 C 
ATOM     12  C   UNL     1       4.768   5.298  17.117  0.00  0.00    +0.000 C 
ENDBRANCH   6   7
BRANCH   1  14
ATOM     13  N   UNL     1       1.756   7.330  20.897  0.00  0.00    +0.000 N 
ATOM     14  C   UNL     1       2.369   6.716  19.796  0.00  0.00    +0.000 C 
ATOM     15  O   UNL     1       2.576   7.288  18.731  0.00  0.00    +0.000 OA
ATOM     16  H   UNL     1       1.702   6.823  21.765  0.00  0.00    +0.000 HD
BRANCH  13  21
ATOM     17  C   UNL     1      -0.302  12.683  20.951  0.00  0.00    +0.000 C 
ATOM     18  C   UNL     1       0.092  11.235  20.916  0.00  0.00    +0.000 A 
ATOM     19  C   UNL     1       0.063  10.459  22.079  0.00  0.00    +0.000 A 
ATOM     20  C   UNL     1       0.543   9.147  22.081  0.00  0.00    +0.000 A 
ATOM     21  C   UNL     1       1.097   8.589  20.924  0.00  0.00    +0.000 A 
ATOM     22  C   UNL     1       1.079   9.348  19.745  0.00  0.00    +0.000 A 
ATOM     23  C   UNL     1       0.569  10.656  19.738  0.00  0.00    +0.000 A 
ENDBRANCH  13  21
ENDBRANCH   1  14
BRANCH   3  24
ATOM     24  N   UNL     1       1.657   2.404  22.120  0.00  0.00    +0.000 N 
ATOM     25  H   UNL     1       0.773   2.838  22.374  0.00  0.00    +0.000 HD
ATOM     26  H   UNL     1       2.182   2.136  22.951  0.00  0.00    +0.000 HD
ENDBRANCH   3  24
TORSDOF 4
ENDMDL
MODEL 3
REMARK VINA RESULT:      -8.2      1.483      1.549
REMARK  Name = 
REMARK  5 active torsions:
REMARK  status: ('A' for Active; 'I' for Inactive)
REMARK    1  A    between atoms: C_1  and  C_2
REMARK    2  A    between atoms: C_5  and  N_6
REMARK    3  A    between atoms: C_7  and  C_9
REMARK    4  A    between atoms: C_11  and  N_12
REMARK    5  A    between atoms: C_15  and  N_16
REMARK                            x       y       z     vdW  Elec       q    Type
REMARK                         _______ _______ _______ _____ _____    ______ ____
ROOT
ATOM      1  C   UNL     1       2.756   5.322  18.512  0.00  0.00    +0.000 A 
ATOM      2  C   UNL     1       1.707   4.376  18.661  0.00  0.00    +0.000 A 
ATOM      3  C   UNL     1       1.888   3.009  18.437  0.00  0.00    +0.000 A 
ATOM      4  C   UNL     1       3.086   2.587  17.894  0.00  0.00    +0.000 A 
ATOM      5  C   UNL     1       4.142   3.486  17.765  0.00  0.00    +0.000 A 
ATOM      6  C   UNL     1       4.050   4.848  18.141  0.00  0.00    +0.000 A 
ENDROOT
BRANCH   6   7
ATOM      7  N   UNL     1       5.242   5.610  18.206  0.00  0.00    +0.000 N 
ATOM      8  C   UNL     1       6.382   4.958  18.885  0.00  0.00    +0.000 C 
ATOM      9  C   UNL     1       7.487   5.954  19.211  0.00  0.00    +0.000 C 
ATOM     10  C   UNL     1       7.915   6.716  17.964  0.00  0.00    +0.000 C 
ATOM     11  C   UNL     1       6.701   7.372  17.309  0.00  0.00    +0.000 C 
ATOM     12  C   UNL     1       5.612   6.340  16.982  0.00  0.00    +0.000 C 
ENDBRANCH   6   7
BRANCH   1  14
ATOM     13  N   UNL     1       1.967   7.046  20.117  0.00  0.00    +0.000 N 
ATOM     14  C   UNL     1       2.445   6.781  18.825  0.00  0.00    +0.000 C 
ATOM     15  O   UNL     1       2.630   7.651  17.981  0.00  0.00    +0.000 OA
ATOM     16  H   UNL     1       1.926   6.291  20.782  0.00  0.00    +0.000 HD
BRANCH  13  21
ATOM     17  C   UNL     1      -0.740  11.632  22.247  0.00  0.00    +0.000 C 
ATOM     18  C   UNL     1       0.096  10.519  21.686  0.00  0.00    +0.000 A 
ATOM     19  C   UNL     1       0.279  10.388  20.305  0.00  0.00    +0.000 A 
ATOM     20  C   UNL     1       0.951   9.287  19.769  0.00  0.00    +0.000 A 
ATOM     21  C   UNL     1       1.430   8.269  20.602  0.00  0.00    +0.000 A 
ATOM     22  C   UNL     1       1.292   8.425  21.988  0.00  0.00    +0.000 A 
ATOM     23  C   UNL     1       0.642   9.546  22.527  0.00  0.00    +0.000 A 
ENDBRANCH  13  21
ENDBRANCH   1  14
BRANCH   3  24
ATOM     24  N   UNL     1       0.820   2.113  18.554  0.00  0.00    +0.000 N 
ATOM     25  H   UNL     1      -0.014   2.402  18.049  0.00  0.00    +0.000 HD
ATOM     26  H   UNL     1       0.598   1.888  19.522  0.00  0.00    +0.000 HD
ENDBRANCH   3  24
TORSDOF 4
ENDMDL
MODEL 4
REMARK VINA RESULT:      -8.1      2.316      4.555
REMARK  Name = 
REMARK  5 active torsions:
REMARK  status: ('A' for Active; 'I' for Inactive)
REMARK    1  A    between atoms: C_1  and  C_2
REMARK    2  A    between atoms: C_5  and  N_6
REMARK    3  A    between atoms: C_7  and  C_9
REMARK    4  A    between atoms: C_11  and  N_12
REMARK    5  A    between atoms: C_15  and  N_16
REMARK                            x       y       z     vdW  Elec       q    Type
REMARK                         _______ _______ _______ _____ _____    ______ ____
ROOT
ATOM      1  C   UNL     1       3.599   6.243  17.865  0.00  0.00    +0.000 A 
ATOM      2  C   UNL     1       4.395   6.589  16.741  0.00  0.00    +0.000 A 
ATOM      3  C   UNL     1       5.213   5.665  16.084  0.00  0.00    +0.000 A 
ATOM      4  C   UNL     1       5.375   4.415  16.649  0.00  0.00    +0.000 A 
ATOM      5  C   UNL     1       4.585   4.038  17.732  0.00  0.00    +0.000 A 
ATOM      6  C   UNL     1       3.621   4.891  18.323  0.00  0.00    +0.000 A 
ENDROOT
BRANCH   6   7
ATOM      7  N   UNL     1       2.704   4.333  19.245  0.00  0.00    +0.000 N 
ATOM      8  C   UNL     1       1.807   3.289  18.704  0.00  0.00    +0.000 C 
ATOM      9  C   UNL     1       0.647   2.998  19.649  0.00  0.00    +0.000 C 
ATOM     10  C   UNL     1       1.157   2.657  21.043  0.00  0.00    +0.000 C 
ATOM     11  C   UNL     1       2.071   3.770  21.552  0.00  0.00    +0.000 C 
ATOM     12  C   UNL     1       3.235   4.029  20.585  0.00  0.00    +0.000 C 
ENDBRANCH   6   7
BRANCH   1  14
ATOM     13  N   UNL     1       2.221   8.289  17.577  0.00  0.00    +0.000 N 
ATOM     14  C   UNL     1       2.717   7.329  18.470  0.00  0.00    +0.000 C 
ATOM     15  O   UNL     1       2.459   7.323  19.669  0.00  0.00    +0.000 OA
ATOM     16  H   UNL     1       2.404   8.176  16.594  0.00  0.00    +0.000 HD
BRANCH  13  21
ATOM     17  C   UNL     1      -0.267  13.088  19.494  0.00  0.00    +0.000 C 
ATOM     18  C   UNL     1       0.348  11.880  18.851  0.00  0.00    +0.000 A 
ATOM     19  C   UNL     1      -0.429  10.755  18.555  0.00  0.00    +0.000 A 
ATOM     20  C   UNL     1       0.157   9.583  18.070  0.00  0.00    +0.000 A 
ATOM     21  C   UNL     1       1.544   9.496  17.900  0.00  0.00    +0.000 A 
ATOM     22  C   UNL     1       2.317  10.640  18.147  0.00  0.00    +0.000 A 
ATOM     23  C   UNL     1       1.722  11.826  18.606  0.00  0.00    +0.000 A 
ENDBRANCH  13  21
ENDBRANCH   1  14
BRANCH   3  24
ATOM     24  N   UNL     1       6.015   6.054  15.006  0.00  0.00    +0.000 N 
ATOM     25  H   UNL     1       6.652   5.330  14.687  0.00  0.00    +0.000 HD
ATOM     26  H   UNL     1       6.512   6.926  15.179  0.00  0.00    +0.000 HD
ENDBRANCH   3  24
TORSDOF 4
ENDMDL
MODEL 5
REMARK VINA RESULT:      -8.0      1.707      4.365
REMARK  Name = 
REMARK  5 active torsions:
REMARK  status: ('A' for Active; 'I' for Inactive)
REMARK    1  A    between atoms: C_1  and  C_2
REMARK    2  A    between atoms: C_5  and  N_6
REMARK    3  A    between atoms: C_7  and  C_9
REMARK    4  A    between atoms: C_11  and  N_12
REMARK    5  A    between atoms: C_15  and  N_16
REMARK                            x       y       z     vdW  Elec       q    Type
REMARK                         _______ _______ _______ _____ _____    ______ ____
ROOT
ATOM      1  C   UNL     1       3.854   6.216  17.502  0.00  0.00    +0.000 A 
ATOM      2  C   UNL     1       4.751   6.462  16.428  0.00  0.00    +0.000 A 
ATOM      3  C   UNL     1       5.585   5.472  15.902  0.00  0.00    +0.000 A 
ATOM      4  C   UNL     1       5.655   4.257  16.556  0.00  0.00    +0.000 A 
ATOM      5  C   UNL     1       4.767   3.977  17.592  0.00  0.00    +0.000 A 
ATOM      6  C   UNL     1       3.789   4.897  18.044  0.00  0.00    +0.000 A 
ENDROOT
BRANCH   6   7
ATOM      7  N   UNL     1       2.780   4.430  18.920  0.00  0.00    +0.000 N 
ATOM      8  C   UNL     1       1.928   3.342  18.393  0.00  0.00    +0.000 C 
ATOM      9  C   UNL     1       0.679   3.143  19.243  0.00  0.00    +0.000 C 
ATOM     10  C   UNL     1       1.047   2.933  20.705  0.00  0.00    +0.000 C 
ATOM     11  C   UNL     1       1.920   4.087  21.196  0.00  0.00    +0.000 C 
ATOM     12  C   UNL     1       3.175   4.251  20.328  0.00  0.00    +0.000 C 
ENDBRANCH   6   7
BRANCH   1  14
ATOM     13  N   UNL     1       2.600   7.362  19.315  0.00  0.00    +0.000 N 
ATOM     14  C   UNL     1       2.966   7.366  17.961  0.00  0.00    +0.000 C 
ATOM     15  O   UNL     1       2.624   8.240  17.171  0.00  0.00    +0.000 OA
ATOM     16  H   UNL     1       2.993   6.659  19.919  0.00  0.00    +0.000 HD
BRANCH  13  21
ATOM     17  C   UNL     1      -0.773  11.159  21.979  0.00  0.00    +0.000 C 
ATOM     18  C   UNL     1      -0.019  10.093  21.238  0.00  0.00    +0.000 A 
ATOM     19  C   UNL     1       0.310   8.886  21.862  0.00  0.00    +0.000 A 
ATOM     20  C   UNL     1       1.115   7.940  21.222  0.00  0.00    +0.000 A 
ATOM     21  C   UNL     1       1.641   8.196  19.950  0.00  0.00    +0.000 A 
ATOM     22  C   UNL     1       1.270   9.384  19.303  0.00  0.00    +0.000 A 
ATOM     23  C   UNL     1       0.436  10.319  19.937  0.00  0.00    +0.000 A 
ENDBRANCH  13  21
ENDBRANCH   1  14
BRANCH   3  24
ATOM     24  N   UNL     1       6.486   5.764  14.872  0.00  0.00    +0.000 N 
ATOM     25  H   UNL     1       7.459   5.609  15.122  0.00  0.00    +0.000 HD
ATOM     26  H   UNL     1       6.354   6.697  14.485  0.00  0.00    +0.000 HD
ENDBRANCH   3  24
TORSDOF 4
ENDMDL
MODEL 6
REMARK VINA RESULT:      -8.0      2.314      4.557
REMARK  Name = 
REMARK  5 active torsions:
REMARK  status: ('A' for Active; 'I' for Inactive)
REMARK    1  A    between atoms: C_1  and  C_2
REMARK    2  A    between atoms: C_5  and  N_6
REMARK    3  A    between atoms: C_7  and  C_9
REMARK    4  A    between atoms: C_11  and  N_12
REMARK    5  A    between atoms: C_15  and  N_16
REMARK                            x       y       z     vdW  Elec       q    Type
REMARK                         _______ _______ _______ _____ _____    ______ ____
ROOT
ATOM      1  C   UNL     1       3.540   6.328  17.937  0.00  0.00    +0.000 A 
ATOM      2  C   UNL     1       4.295   6.686  16.788  0.00  0.00    +0.000 A 
ATOM      3  C   UNL     1       5.088   5.769  16.093  0.00  0.00    +0.000 A 
ATOM      4  C   UNL     1       5.270   4.514  16.638  0.00  0.00    +0.000 A 
ATOM      5  C   UNL     1       4.520   4.125  17.745  0.00  0.00    +0.000 A 
ATOM      6  C   UNL     1       3.578   4.972  18.379  0.00  0.00    +0.000 A 
ENDROOT
BRANCH   6   7
ATOM      7  N   UNL     1       2.694   4.404  19.328  0.00  0.00    +0.000 N 
ATOM      8  C   UNL     1       1.644   3.521  18.777  0.00  0.00    +0.000 C 
ATOM      9  C   UNL     1       0.552   3.238  19.801  0.00  0.00    +0.000 C 
ATOM     10  C   UNL     1       1.148   2.693  21.092  0.00  0.00    +0.000 C 
ATOM     11  C   UNL     1       2.219   3.647  21.617  0.00  0.00    +0.000 C 
ATOM     12  C   UNL     1       3.311   3.900  20.567  0.00  0.00    +0.000 C 
ENDBRANCH   6   7
BRANCH   1  14
ATOM     13  N   UNL     1       2.267   8.453  17.746  0.00  0.00    +0.000 N 
ATOM     14  C   UNL     1       2.680   7.408  18.584  0.00  0.00    +0.000 C 
ATOM     15  O   UNL     1       2.370   7.328  19.768  0.00  0.00    +0.000 OA
ATOM     16  H   UNL     1       2.488   8.402  16.765  0.00  0.00    +0.000 HD
BRANCH  13  21
ATOM     17  C   UNL     1      -0.561  13.354  18.682  0.00  0.00    +0.000 C 
ATOM     18  C   UNL     1       0.203  12.065  18.589  0.00  0.00    +0.000 A 
ATOM     19  C   UNL     1       1.597  12.068  18.483  0.00  0.00    +0.000 A 
ATOM     20  C   UNL     1       2.305  10.882  18.273  0.00  0.00    +0.000 A 
ATOM     21  C   UNL     1       1.630   9.664  18.130  0.00  0.00    +0.000 A 
ATOM     22  C   UNL     1       0.237   9.654  18.287  0.00  0.00    +0.000 A 
ATOM     23  C   UNL     1      -0.470  10.843  18.528  0.00  0.00    +0.000 A 
ENDBRANCH  13  21
ENDBRANCH   1  14
BRANCH   3  24
ATOM     24  N   UNL     1       5.850   6.170  14.990  0.00  0.00    +0.000 N 
ATOM     25  H   UNL     1       5.300   6.570  14.235  0.00  0.00    +0.000 HD
ATOM     26  H   UNL     1       6.461   5.432  14.643  0.00  0.00    +0.000 HD
ENDBRANCH   3  24
TORSDOF 4
ENDMDL
MODEL 7
REMARK VINA RESULT:      -8.0      1.547      4.250
REMARK  Name = 
REMARK  5 active torsions:
REMARK  status: ('A' for Active; 'I' for Inactive)
REMARK    1  A    between atoms: C_1  and  C_2
REMARK    2  A    between atoms: C_5  and  N_6
REMARK    3  A    between atoms: C_7  and  C_9
REMARK    4  A    between atoms: C_11  and  N_12
REMARK    5  A    between atoms: C_15  and  N_16
REMARK                            x       y       z     vdW  Elec       q    Type
REMARK                         _______ _______ _______ _____ _____    ______ ____
ROOT
ATOM      1  C   UNL     1       4.166   6.008  18.137  0.00  0.00    +0.000 A 
ATOM      2  C   UNL     1       5.176   6.551  17.298  0.00  0.00    +0.000 A 
ATOM      3  C   UNL     1       6.446   5.979  17.182  0.00  0.00    +0.000 A 
ATOM      4  C   UNL     1       6.781   4.946  18.036  0.00  0.00    +0.000 A 
ATOM      5  C   UNL     1       5.803   4.374  18.846  0.00  0.00    +0.000 A 
ATOM      6  C   UNL     1       4.458   4.818  18.868  0.00  0.00    +0.000 A 
ENDROOT
BRANCH   6   7
ATOM      7  N   UNL     1       3.496   4.017  19.529  0.00  0.00    +0.000 N 
ATOM      8  C   UNL     1       2.756   4.679  20.625  0.00  0.00    +0.000 C 
ATOM      9  C   UNL     1       2.009   3.671  21.489  0.00  0.00    +0.000 C 
ATOM     10  C   UNL     1       1.111   2.786  20.636  0.00  0.00    +0.000 C 
ATOM     11  C   UNL     1       1.929   2.125  19.527  0.00  0.00    +0.000 C 
ATOM     12  C   UNL     1       2.656   3.168  18.667  0.00  0.00    +0.000 C 
ENDBRANCH   6   7
BRANCH   1  14
ATOM     13  N   UNL     1       2.758   7.954  18.768  0.00  0.00    +0.000 N 
ATOM     14  C   UNL     1       2.808   6.698  18.147  0.00  0.00    +0.000 C 
ATOM     15  O   UNL     1       1.837   6.168  17.616  0.00  0.00    +0.000 OA
ATOM     16  H   UNL     1       3.615   8.363  19.102  0.00  0.00    +0.000 HD
BRANCH  13  21
ATOM     17  C   UNL     1      -1.542  11.564  19.940  0.00  0.00    +0.000 C 
ATOM     18  C   UNL     1      -0.523  10.509  19.625  0.00  0.00    +0.000 A 
ATOM     19  C   UNL     1       0.042   9.734  20.643  0.00  0.00    +0.000 A 
ATOM     20  C   UNL     1       1.078   8.837  20.374  0.00  0.00    +0.000 A 
ATOM     21  C   UNL     1       1.599   8.715  19.080  0.00  0.00    +0.000 A 
ATOM     22  C   UNL     1       0.998   9.452  18.050  0.00  0.00    +0.000 A 
ATOM     23  C   UNL     1      -0.063  10.332  18.318  0.00  0.00    +0.000 A 
ENDBRANCH  13  21
ENDBRANCH   1  14
BRANCH   3  24
ATOM     24  N   UNL     1       7.429   6.567  16.378  0.00  0.00    +0.000 N 
ATOM     25  H   UNL     1       7.948   7.308  16.841  0.00  0.00    +0.000 HD
ATOM     26  H   UNL     1       7.066   6.884  15.480  0.00  0.00    +0.000 HD
ENDBRANCH   3  24
TORSDOF 4
ENDMDL
MODEL 8
REMARK VINA RESULT:      -7.9      1.572      1.919
REMARK  Name = 
REMARK  5 active torsions:
REMARK  status: ('A' for Active; 'I' for Inactive)
REMARK    1  A    between atoms: C_1  and  C_2
REMARK    2  A    between atoms: C_5  and  N_6
REMARK    3  A    between atoms: C_7  and  C_9
REMARK    4  A    between atoms: C_11  and  N_12
REMARK    5  A    between atoms: C_15  and  N_16
REMARK                            x       y       z     vdW  Elec       q    Type
REMARK                         _______ _______ _______ _____ _____    ______ ____
ROOT
ATOM      1  C   UNL     1       2.862   4.876  18.322  0.00  0.00    +0.000 A 
ATOM      2  C   UNL     1       1.719   4.060  18.533  0.00  0.00    +0.000 A 
ATOM      3  C   UNL     1       1.749   2.670  18.387  0.00  0.00    +0.000 A 
ATOM      4  C   UNL     1       2.887   2.090  17.862  0.00  0.00    +0.000 A 
ATOM      5  C   UNL     1       4.033   2.860  17.675  0.00  0.00    +0.000 A 
ATOM      6  C   UNL     1       4.092   4.244  17.972  0.00  0.00    +0.000 A 
ENDROOT
BRANCH   6   7
ATOM      7  N   UNL     1       5.360   4.875  17.985  0.00  0.00    +0.000 N 
ATOM      8  C   UNL     1       5.639   5.776  16.847  0.00  0.00    +0.000 C 
ATOM      9  C   UNL     1       7.118   6.132  16.759  0.00  0.00    +0.000 C 
ATOM     10  C   UNL     1       7.618   6.698  18.081  0.00  0.00    +0.000 C 
ATOM     11  C   UNL     1       7.309   5.724  19.217  0.00  0.00    +0.000 C 
ATOM     12  C   UNL     1       5.810   5.397  19.286  0.00  0.00    +0.000 C 
ENDBRANCH   6   7
BRANCH   1  14
ATOM     13  N   UNL     1       2.121   6.758  19.765  0.00  0.00    +0.000 N 
ATOM     14  C   UNL     1       2.714   6.375  18.553  0.00  0.00    +0.000 C 
ATOM     15  O   UNL     1       3.118   7.176  17.716  0.00  0.00    +0.000 OA
ATOM     16  H   UNL     1       1.897   6.045  20.439  0.00  0.00    +0.000 HD
BRANCH  13  21
ATOM     17  C   UNL     1      -0.178  11.742  21.427  0.00  0.00    +0.000 C 
ATOM     18  C   UNL     1       0.560  10.509  20.996  0.00  0.00    +0.000 A 
ATOM     19  C   UNL     1       0.845  10.281  19.646  0.00  0.00    +0.000 A 
ATOM     20  C   UNL     1       1.422   9.081  19.224  0.00  0.00    +0.000 A 
ATOM     21  C   UNL     1       1.697   8.061  20.142  0.00  0.00    +0.000 A 
ATOM     22  C   UNL     1       1.460   8.308  21.502  0.00  0.00    +0.000 A 
ATOM     23  C   UNL     1       0.908   9.527  21.927  0.00  0.00    +0.000 A 
ENDBRANCH  13  21
ENDBRANCH   1  14
BRANCH   3  24
ATOM     24  N   UNL     1       0.591   1.904  18.562  0.00  0.00    +0.000 N 
ATOM     25  H   UNL     1       0.756   0.901  18.537  0.00  0.00    +0.000 HD
ATOM     26  H   UNL     1      -0.156   2.166  17.922  0.00  0.00    +0.000 HD
ENDBRANCH   3  24
TORSDOF 4
ENDMDL
MODEL 9
REMARK VINA RESULT:      -7.9      1.197      1.719
REMARK  Name = 
REMARK  5 active torsions:
REMARK  status: ('A' for Active; 'I' for Inactive)
REMARK    1  A    between atoms: C_1  and  C_2
REMARK    2  A    between atoms: C_5  and  N_6
REMARK    3  A    between atoms: C_7  and  C_9
REMARK    4  A    between atoms: C_11  and  N_12
REMARK    5  A    between atoms: C_15  and  N_16
REMARK                            x       y       z     vdW  Elec       q    Type
REMARK                         _______ _______ _______ _____ _____    ______ ____
ROOT
ATOM      1  C   UNL     1       3.032   4.486  19.694  0.00  0.00    +0.000 A 
ATOM      2  C   UNL     1       2.169   3.963  20.694  0.00  0.00    +0.000 A 
ATOM      3  C   UNL     1       2.444   2.777  21.381  0.00  0.00    +0.000 A 
ATOM      4  C   UNL     1       3.508   2.006  20.957  0.00  0.00    +0.000 A 
ATOM      5  C   UNL     1       4.389   2.507  20.001  0.00  0.00    +0.000 A 
ATOM      6  C   UNL     1       4.238   3.781  19.402  0.00  0.00    +0.000 A 
ENDROOT
BRANCH   6   7
ATOM      7  N   UNL     1       5.313   4.296  18.638  0.00  0.00    +0.000 N 
ATOM      8  C   UNL     1       5.156   4.207  17.170  0.00  0.00    +0.000 C 
ATOM      9  C   UNL     1       6.473   4.457  16.447  0.00  0.00    +0.000 C 
ATOM     10  C   UNL     1       7.088   5.780  16.883  0.00  0.00    +0.000 C 
ATOM     11  C   UNL     1       7.232   5.813  18.404  0.00  0.00    +0.000 C 
ATOM     12  C   UNL     1       5.885   5.572  19.101  0.00  0.00    +0.000 C 
ENDBRANCH   6   7
BRANCH   1  14
ATOM     13  N   UNL     1       2.446   6.890  19.918  0.00  0.00    +0.000 N 
ATOM     14  C   UNL     1       2.645   5.810  19.046  0.00  0.00    +0.000 C 
ATOM     15  O   UNL     1       2.540   5.897  17.827  0.00  0.00    +0.000 OA
ATOM     16  H   UNL     1       2.637   6.761  20.898  0.00  0.00    +0.000 HD
BRANCH  13  21
ATOM     17  C   UNL     1      -0.338  11.734  18.623  0.00  0.00    +0.000 C 
ATOM     18  C   UNL     1       0.512  10.554  18.993  0.00  0.00    +0.000 A 
ATOM     19  C   UNL     1       1.335   9.940  18.042  0.00  0.00    +0.000 A 
ATOM     20  C   UNL     1       2.035   8.769  18.345  0.00  0.00    +0.000 A 
ATOM     21  C   UNL     1       1.903   8.164  19.600  0.00  0.00    +0.000 A 
ATOM     22  C   UNL     1       1.120   8.807  20.570  0.00  0.00    +0.000 A 
ATOM     23  C   UNL     1       0.441   9.999  20.272  0.00  0.00    +0.000 A 
ENDBRANCH  13  21
ENDBRANCH   1  14
BRANCH   3  24
ATOM     24  N   UNL     1       1.548   2.272  22.329  0.00  0.00    +0.000 N 
ATOM     25  H   UNL     1       1.479   1.257  22.328  0.00  0.00    +0.000 HD
ATOM     26  H   UNL     1       0.625   2.698  22.267  0.00  0.00    +0.000 HD
ENDBRANCH   3  24
TORSDOF 4
ENDMDL
