MODEL 1
REMARK VINA RESULT:      -7.5      0.000      0.000
REMARK  Name = 
REMARK  7 active torsions:
REMARK  status: ('A' for Active; 'I' for Inactive)
REMARK    1  A    between atoms: C_1  and  C_2
REMARK    2  A    between atoms: C_3  and  C_4
REMARK    3  A    between atoms: C_4  and  O_6
REMARK    4  A    between atoms: C_12  and  O_13
REMARK    5  A    between atoms: O_13  and  C_14
REMARK    6  A    between atoms: C_14  and  C_15
REMARK    7  A    between atoms: C_15  and  N_16
REMARK                            x       y       z     vdW  Elec       q    Type
REMARK                         _______ _______ _______ _____ _____    ______ ____
ROOT
ATOM      1  C   UNL     1       5.043   3.777  13.684  0.00  0.00    +0.000 C 
ATOM      2  C   UNL     1       5.914   4.486  14.661  0.00  0.00    +0.000 A 
ATOM      3  C   UNL     1       7.118   5.088  14.304  0.00  0.00    +0.000 A 
ATOM      4  O   UNL     1       7.708   5.636  15.401  0.00  0.00    +0.000 OA
ATOM      5  C   UNL     1       6.910   5.392  16.467  0.00  0.00    +0.000 A 
ATOM      6  C   UNL     1       7.243   5.800  17.759  0.00  0.00    +0.000 A 
ATOM      7  C   UNL     1       6.345   5.494  18.775  0.00  0.00    +0.000 A 
ATOM      8  C   UNL     1       5.166   4.819  18.480  0.00  0.00    +0.000 A 
ATOM      9  C   UNL     1       4.853   4.389  17.171  0.00  0.00    +0.000 A 
ATOM     10  C   UNL     1       5.760   4.686  16.099  0.00  0.00    +0.000 A 
ENDROOT
BRANCH   3  11
ATOM     11  C   UNL     1       7.821   5.210  13.040  0.00  0.00    +0.000 C 
ATOM     12  O   UNL     1       7.541   4.661  11.988  0.00  0.00    +0.000 OA
BRANCH  11  13
ATOM     13  O   UNL     1       8.894   6.038  13.158  0.00  0.00    +0.000 OA
ATOM     14  H   UNL     1       9.545   5.651  13.780  0.00  0.00    +0.000 HD
ENDBRANCH  11  13
ENDBRANCH   3  11
BRANCH   9  15
ATOM     15  O   UNL     1       3.622   3.721  17.153  0.00  0.00    +0.000 OA
BRANCH  15  16
ATOM     16  C   UNL     1       3.588   2.503  17.867  0.00  0.00    +0.000 C 
BRANCH  16  17
ATOM     17  C   UNL     1       2.182   2.077  18.327  0.00  0.00    +0.000 C 
BRANCH  17  18
ATOM     18  N   UNL     1       1.867   2.185  19.763  0.00  0.00    +0.000 NA
ATOM     19  C   UNL     1       0.683   3.043  19.964  0.00  0.00    +0.000 C 
ATOM     20  C   UNL     1       1.240   4.434  20.195  0.00  0.00    +0.000 C 
ATOM     21  C   UNL     1       2.468   4.157  21.034  0.00  0.00    +0.000 C 
ATOM     22  C   UNL     1       2.940   2.782  20.577  0.00  0.00    +0.000 C 
ENDBRANCH  17  18
ENDBRANCH  16  17
ENDBRANCH  15  16
ENDBRANCH   9  15
TORSDOF 6
ENDMDL
MODEL 2
REMARK VINA RESULT:      -7.1      3.321      6.888
REMARK  Name = 
REMARK  7 active torsions:
REMARK  status: ('A' for Active; 'I' for Inactive)
REMARK    1  A    between atoms: C_1  and  C_2
REMARK    2  A    between atoms: C_3  and  C_4
REMARK    3  A    between atoms: C_4  and  O_6
REMARK    4  A    between atoms: C_12  and  O_13
REMARK    5  A    between atoms: O_13  and  C_14
REMARK    6  A    between atoms: C_14  and  C_15
REMARK    7  A    between atoms: C_15  and  N_16
REMARK                            x       y       z     vdW  Elec       q    Type
REMARK                         _______ _______ _______ _____ _____    ______ ____
ROOT
ATOM      1  C   UNL     1       2.971   7.614  17.924  0.00  0.00    +0.000 C 
ATOM      2  C   UNL     1       2.456   6.683  18.967  0.00  0.00    +0.000 A 
ATOM      3  C   UNL     1       1.842   7.123  20.137  0.00  0.00    +0.000 A 
ATOM      4  O   UNL     1       1.497   6.059  20.911  0.00  0.00    +0.000 OA
ATOM      5  C   UNL     1       1.884   4.933  20.266  0.00  0.00    +0.000 A 
ATOM      6  C   UNL     1       1.701   3.661  20.806  0.00  0.00    +0.000 A 
ATOM      7  C   UNL     1       2.139   2.578  20.051  0.00  0.00    +0.000 A 
ATOM      8  C   UNL     1       2.720   2.790  18.807  0.00  0.00    +0.000 A 
ATOM      9  C   UNL     1       2.924   4.087  18.282  0.00  0.00    +0.000 A 
ATOM     10  C   UNL     1       2.485   5.226  19.036  0.00  0.00    +0.000 A 
ENDROOT
BRANCH   3  11
ATOM     11  C   UNL     1       1.540   8.446  20.654  0.00  0.00    +0.000 C 
ATOM     12  O   UNL     1       1.095   9.395  20.029  0.00  0.00    +0.000 OA
BRANCH  11  13
ATOM     13  O   UNL     1       1.830   8.529  21.980  0.00  0.00    +0.000 OA
ATOM     14  H   UNL     1       2.627   9.084  22.111  0.00  0.00    +0.000 HD
ENDBRANCH  11  13
ENDBRANCH   3  11
BRANCH   9  15
ATOM     15  O   UNL     1       3.540   4.018  17.026  0.00  0.00    +0.000 OA
BRANCH  15  16
ATOM     16  C   UNL     1       4.952   4.082  17.045  0.00  0.00    +0.000 C 
BRANCH  16  17
ATOM     17  C   UNL     1       5.525   5.489  16.798  0.00  0.00    +0.000 C 
BRANCH  17  18
ATOM     18  N   UNL     1       6.990   5.653  16.847  0.00  0.00    +0.000 NA
ATOM     19  C   UNL     1       7.563   4.813  17.916  0.00  0.00    +0.000 C 
ATOM     20  C   UNL     1       7.630   5.718  19.132  0.00  0.00    +0.000 C 
ATOM     21  C   UNL     1       8.041   7.043  18.529  0.00  0.00    +0.000 C 
ATOM     22  C   UNL     1       7.438   7.028  17.129  0.00  0.00    +0.000 C 
ENDBRANCH  17  18
ENDBRANCH  16  17
ENDBRANCH  15  16
ENDBRANCH   9  15
TORSDOF 6
ENDMDL
MODEL 3
REMARK VINA RESULT:      -6.9      3.234      6.848
REMARK  Name = 
REMARK  7 active torsions:
REMARK  status: ('A' for Active; 'I' for Inactive)
REMARK    1  A    between atoms: C_1  and  C_2
REMARK    2  A    between atoms: C_3  and  C_4
REMARK    3  A    between atoms: C_4  and  O_6
REMARK    4  A    between atoms: C_12  and  O_13
REMARK    5  A    between atoms: O_13  and  C_14
REMARK    6  A    between atoms: C_14  and  C_15
REMARK    7  A    between atoms: C_15  and  N_16
REMARK                            x       y       z     vdW  Elec       q    Type
REMARK                         _______ _______ _______ _____ _____    ______ ____
ROOT
ATOM      1  C   UNL     1       2.662   7.568  18.004  0.00  0.00    +0.000 C 
ATOM      2  C   UNL     1       2.206   6.655  19.089  0.00  0.00    +0.000 A 
ATOM      3  C   UNL     1       1.686   7.115  20.296  0.00  0.00    +0.000 A 
ATOM      4  O   UNL     1       1.377   6.063  21.102  0.00  0.00    +0.000 OA
ATOM      5  C   UNL     1       1.697   4.926  20.440  0.00  0.00    +0.000 A 
ATOM      6  C   UNL     1       1.529   3.661  21.002  0.00  0.00    +0.000 A 
ATOM      7  C   UNL     1       1.891   2.565  20.227  0.00  0.00    +0.000 A 
ATOM      8  C   UNL     1       2.385   2.756  18.942  0.00  0.00    +0.000 A 
ATOM      9  C   UNL     1       2.575   4.046  18.393  0.00  0.00    +0.000 A 
ATOM     10  C   UNL     1       2.213   5.198  19.168  0.00  0.00    +0.000 A 
ENDROOT
BRANCH   3  11
ATOM     11  C   UNL     1       1.446   8.447  20.822  0.00  0.00    +0.000 C 
ATOM     12  O   UNL     1       0.950   9.392  20.231  0.00  0.00    +0.000 OA
BRANCH  11  13
ATOM     13  O   UNL     1       1.866   8.544  22.112  0.00  0.00    +0.000 OA
ATOM     14  H   UNL     1       1.709   9.453  22.444  0.00  0.00    +0.000 HD
ENDBRANCH  11  13
ENDBRANCH   3  11
BRANCH   9  15
ATOM     15  O   UNL     1       3.098   3.956  17.098  0.00  0.00    +0.000 OA
BRANCH  15  16
ATOM     16  C   UNL     1       4.490   3.720  17.026  0.00  0.00    +0.000 C 
BRANCH  16  17
ATOM     17  C   UNL     1       5.331   4.977  16.742  0.00  0.00    +0.000 C 
BRANCH  17  18
ATOM     18  N   UNL     1       5.563   5.914  17.857  0.00  0.00    +0.000 NA
ATOM     19  C   UNL     1       6.283   7.109  17.379  0.00  0.00    +0.000 C 
ATOM     20  C   UNL     1       7.751   6.802  17.605  0.00  0.00    +0.000 C 
ATOM     21  C   UNL     1       7.729   6.073  18.930  0.00  0.00    +0.000 C 
ATOM     22  C   UNL     1       6.381   5.363  18.953  0.00  0.00    +0.000 C 
ENDBRANCH  17  18
ENDBRANCH  16  17
ENDBRANCH  15  16
ENDBRANCH   9  15
TORSDOF 6
ENDMDL
MODEL 4
REMARK VINA RESULT:      -6.9      4.241      5.429
REMARK  Name = 
REMARK  7 active torsions:
REMARK  status: ('A' for Active; 'I' for Inactive)
REMARK    1  A    between atoms: C_1  and  C_2
REMARK    2  A    between atoms: C_3  and  C_4
REMARK    3  A    between atoms: C_4  and  O_6
REMARK    4  A    between atoms: C_12  and  O_13
REMARK    5  A    between atoms: O_13  and  C_14
REMARK    6  A    between atoms: C_14  and  C_15
REMARK    7  A    between atoms: C_15  and  N_16
REMARK                            x       y       z     vdW  Elec       q    Type
REMARK                         _______ _______ _______ _____ _____    ______ ____
ROOT
ATOM      1  C   UNL     1       6.006   7.350  17.393  0.00  0.00    +0.000 C 
ATOM      2  C   UNL     1       5.332   6.033  17.226  0.00  0.00    +0.000 A 
ATOM      3  C   UNL     1       5.949   4.939  16.624  0.00  0.00    +0.000 A 
ATOM      4  O   UNL     1       5.091   3.883  16.587  0.00  0.00    +0.000 OA
ATOM      5  C   UNL     1       3.924   4.276  17.148  0.00  0.00    +0.000 A 
ATOM      6  C   UNL     1       2.817   3.433  17.243  0.00  0.00    +0.000 A 
ATOM      7  C   UNL     1       1.672   3.947  17.840  0.00  0.00    +0.000 A 
ATOM      8  C   UNL     1       1.667   5.249  18.324  0.00  0.00    +0.000 A 
ATOM      9  C   UNL     1       2.787   6.103  18.199  0.00  0.00    +0.000 A 
ATOM     10  C   UNL     1       3.984   5.604  17.586  0.00  0.00    +0.000 A 
ENDROOT
BRANCH   3  11
ATOM     11  C   UNL     1       7.266   4.745  16.046  0.00  0.00    +0.000 C 
ATOM     12  O   UNL     1       7.637   5.081  14.934  0.00  0.00    +0.000 OA
BRANCH  11  13
ATOM     13  O   UNL     1       8.091   4.104  16.917  0.00  0.00    +0.000 OA
ATOM     14  H   UNL     1       8.030   3.136  16.780  0.00  0.00    +0.000 HD
ENDBRANCH  11  13
ENDBRANCH   3  11
BRANCH   9  15
ATOM     15  O   UNL     1       2.511   7.360  18.752  0.00  0.00    +0.000 OA
BRANCH  15  16
ATOM     16  C   UNL     1       2.457   8.426  17.826  0.00  0.00    +0.000 C 
BRANCH  16  17
ATOM     17  C   UNL     1       1.199   9.305  17.946  0.00  0.00    +0.000 C 
BRANCH  17  18
ATOM     18  N   UNL     1       1.092  10.194  19.118  0.00  0.00    +0.000 NA
ATOM     19  C   UNL     1      -0.285  10.174  19.649  0.00  0.00    +0.000 C 
ATOM     20  C   UNL     1      -0.987  11.333  18.966  0.00  0.00    +0.000 C 
ATOM     21  C   UNL     1       0.092  12.393  18.935  0.00  0.00    +0.000 C 
ATOM     22  C   UNL     1       1.395  11.608  18.837  0.00  0.00    +0.000 C 
ENDBRANCH  17  18
ENDBRANCH  16  17
ENDBRANCH  15  16
ENDBRANCH   9  15
TORSDOF 6
ENDMDL
MODEL 5
REMARK VINA RESULT:      -6.8      3.223      6.921
REMARK  Name = 
REMARK  7 active torsions:
REMARK  status: ('A' for Active; 'I' for Inactive)
REMARK    1  A    between atoms: C_1  and  C_2
REMARK    2  A    between atoms: C_3  and  C_4
REMARK    3  A    between atoms: C_4  and  O_6
REMARK    4  A    between atoms: C_12  and  O_13
REMARK    5  A    between atoms: O_13  and  C_14
REMARK    6  A    between atoms: C_14  and  C_15
REMARK    7  A    between atoms: C_15  and  N_16
REMARK                            x       y       z     vdW  Elec       q    Type
REMARK                         _______ _______ _______ _____ _____    ______ ____
ROOT
ATOM      1  C   UNL     1       2.972   7.365  18.113  0.00  0.00    +0.000 C 
ATOM      2  C   UNL     1       2.323   6.506  19.143  0.00  0.00    +0.000 A 
ATOM      3  C   UNL     1       1.680   7.025  20.264  0.00  0.00    +0.000 A 
ATOM      4  O   UNL     1       1.205   6.012  21.038  0.00  0.00    +0.000 OA
ATOM      5  C   UNL     1       1.536   4.843  20.442  0.00  0.00    +0.000 A 
ATOM      6  C   UNL     1       1.218   3.603  20.997  0.00  0.00    +0.000 A 
ATOM      7  C   UNL     1       1.609   2.470  20.294  0.00  0.00    +0.000 A 
ATOM      8  C   UNL     1       2.277   2.601  19.082  0.00  0.00    +0.000 A 
ATOM      9  C   UNL     1       2.616   3.863  18.542  0.00  0.00    +0.000 A 
ATOM     10  C   UNL     1       2.229   5.053  19.245  0.00  0.00    +0.000 A 
ENDROOT
BRANCH   3  11
ATOM     11  C   UNL     1       1.457   8.381  20.733  0.00  0.00    +0.000 C 
ATOM     12  O   UNL     1       0.914   9.288  20.126  0.00  0.00    +0.000 OA
BRANCH  11  13
ATOM     13  O   UNL     1       1.956   8.550  21.987  0.00  0.00    +0.000 OA
ATOM     14  H   UNL     1       1.774   7.752  22.527  0.00  0.00    +0.000 HD
ENDBRANCH  11  13
ENDBRANCH   3  11
BRANCH   9  15
ATOM     15  O   UNL     1       3.298   3.713  17.328  0.00  0.00    +0.000 OA
BRANCH  15  16
ATOM     16  C   UNL     1       4.599   3.173  17.431  0.00  0.00    +0.000 C 
BRANCH  16  17
ATOM     17  C   UNL     1       5.665   4.178  17.903  0.00  0.00    +0.000 C 
BRANCH  17  18
ATOM     18  N   UNL     1       6.571   4.746  16.887  0.00  0.00    +0.000 NA
ATOM     19  C   UNL     1       6.293   6.183  16.700  0.00  0.00    +0.000 C 
ATOM     20  C   UNL     1       5.304   6.247  15.553  0.00  0.00    +0.000 C 
ATOM     21  C   UNL     1       5.813   5.165  14.625  0.00  0.00    +0.000 C 
ATOM     22  C   UNL     1       6.446   4.134  15.552  0.00  0.00    +0.000 C 
ENDBRANCH  17  18
ENDBRANCH  16  17
ENDBRANCH  15  16
ENDBRANCH   9  15
TORSDOF 6
ENDMDL
MODEL 6
REMARK VINA RESULT:      -6.8      3.813      5.373
REMARK  Name = 
REMARK  7 active torsions:
REMARK  status: ('A' for Active; 'I' for Inactive)
REMARK    1  A    between atoms: C_1  and  C_2
REMARK    2  A    between atoms: C_3  and  C_4
REMARK    3  A    between atoms: C_4  and  O_6
REMARK    4  A    between atoms: C_12  and  O_13
REMARK    5  A    between atoms: O_13  and  C_14
REMARK    6  A    between atoms: C_14  and  C_15
REMARK    7  A    between atoms: C_15  and  N_16
REMARK                            x       y       z     vdW  Elec       q    Type
REMARK                         _______ _______ _______ _____ _____    ______ ____
ROOT
ATOM      1  C   UNL     1       5.443   7.068  17.536  0.00  0.00    +0.000 C 
ATOM      2  C   UNL     1       5.254   5.718  18.137  0.00  0.00    +0.000 A 
ATOM      3  C   UNL     1       6.108   4.649  17.879  0.00  0.00    +0.000 A 
ATOM      4  O   UNL     1       5.680   3.540  18.540  0.00  0.00    +0.000 OA
ATOM      5  C   UNL     1       4.555   3.870  19.219  0.00  0.00    +0.000 A 
ATOM      6  C   UNL     1       3.844   2.945  19.983  0.00  0.00    +0.000 A 
ATOM      7  C   UNL     1       2.704   3.398  20.635  0.00  0.00    +0.000 A 
ATOM      8  C   UNL     1       2.322   4.730  20.521  0.00  0.00    +0.000 A 
ATOM      9  C   UNL     1       3.038   5.652  19.723  0.00  0.00    +0.000 A 
ATOM     10  C   UNL     1       4.218   5.215  19.033  0.00  0.00    +0.000 A 
ENDROOT
BRANCH   3  11
ATOM     11  C   UNL     1       7.298   4.515  17.058  0.00  0.00    +0.000 C 
ATOM     12  O   UNL     1       7.401   4.759  15.868  0.00  0.00    +0.000 OA
BRANCH  11  13
ATOM     13  O   UNL     1       8.346   4.051  17.792  0.00  0.00    +0.000 OA
ATOM     14  H   UNL     1       8.053   3.870  18.710  0.00  0.00    +0.000 HD
ENDBRANCH  11  13
ENDBRANCH   3  11
BRANCH   9  15
ATOM     15  O   UNL     1       2.433   6.914  19.768  0.00  0.00    +0.000 OA
BRANCH  15  16
ATOM     16  C   UNL     1       1.483   7.090  20.799  0.00  0.00    +0.000 C 
BRANCH  16  17
ATOM     17  C   UNL     1       1.248   8.557  21.200  0.00  0.00    +0.000 C 
BRANCH  17  18
ATOM     18  N   UNL     1      -0.145   9.010  21.366  0.00  0.00    +0.000 NA
ATOM     19  C   UNL     1      -0.411  10.175  20.501  0.00  0.00    +0.000 C 
ATOM     20  C   UNL     1      -0.134  11.384  21.373  0.00  0.00    +0.000 C 
ATOM     21  C   UNL     1      -0.681  10.949  22.715  0.00  0.00    +0.000 C 
ATOM     22  C   UNL     1      -0.485   9.437  22.735  0.00  0.00    +0.000 C 
ENDBRANCH  17  18
ENDBRANCH  16  17
ENDBRANCH  15  16
ENDBRANCH   9  15
TORSDOF 6
ENDMDL
MODEL 7
REMARK VINA RESULT:      -6.8      2.976      7.171
REMARK  Name = 
REMARK  7 active torsions:
REMARK  status: ('A' for Active; 'I' for Inactive)
REMARK    1  A    between atoms: C_1  and  C_2
REMARK    2  A    between atoms: C_3  and  C_4
REMARK    3  A    between atoms: C_4  and  O_6
REMARK    4  A    between atoms: C_12  and  O_13
REMARK    5  A    between atoms: O_13  and  C_14
REMARK    6  A    between atoms: C_14  and  C_15
REMARK    7  A    between atoms: C_15  and  N_16
REMARK                            x       y       z     vdW  Elec       q    Type
REMARK                         _______ _______ _______ _____ _____    ______ ____
ROOT
ATOM      1  C   UNL     1       3.413   1.672  18.111  0.00  0.00    +0.000 C 
ATOM      2  C   UNL     1       3.225   3.142  18.255  0.00  0.00    +0.000 A 
ATOM      3  C   UNL     1       2.255   3.704  19.082  0.00  0.00    +0.000 A 
ATOM      4  O   UNL     1       2.299   5.062  18.996  0.00  0.00    +0.000 OA
ATOM      5  C   UNL     1       3.277   5.391  18.119  0.00  0.00    +0.000 A 
ATOM      6  C   UNL     1       3.565   6.713  17.782  0.00  0.00    +0.000 A 
ATOM      7  C   UNL     1       4.593   6.930  16.871  0.00  0.00    +0.000 A 
ATOM      8  C   UNL     1       5.294   5.851  16.346  0.00  0.00    +0.000 A 
ATOM      9  C   UNL     1       4.975   4.513  16.677  0.00  0.00    +0.000 A 
ATOM     10  C   UNL     1       3.918   4.255  17.613  0.00  0.00    +0.000 A 
ENDROOT
BRANCH   3  11
ATOM     11  C   UNL     1       1.250   3.126  19.955  0.00  0.00    +0.000 C 
ATOM     12  O   UNL     1       1.287   3.058  21.172  0.00  0.00    +0.000 OA
BRANCH  11  13
ATOM     13  O   UNL     1       0.208   2.629  19.237  0.00  0.00    +0.000 OA
ATOM     14  H   UNL     1       0.126   3.116  18.390  0.00  0.00    +0.000 HD
ENDBRANCH  11  13
ENDBRANCH   3  11
BRANCH   9  15
ATOM     15  O   UNL     1       5.819   3.624  16.000  0.00  0.00    +0.000 OA
BRANCH  15  16
ATOM     16  C   UNL     1       6.199   4.027  14.699  0.00  0.00    +0.000 C 
BRANCH  16  17
ATOM     17  C   UNL     1       5.176   3.676  13.605  0.00  0.00    +0.000 C 
BRANCH  17  18
ATOM     18  N   UNL     1       5.616   3.765  12.200  0.00  0.00    +0.000 NA
ATOM     19  C   UNL     1       4.901   2.770  11.376  0.00  0.00    +0.000 C 
ATOM     20  C   UNL     1       5.803   1.550  11.363  0.00  0.00    +0.000 C 
ATOM     21  C   UNL     1       7.181   2.166  11.272  0.00  0.00    +0.000 C 
ATOM     22  C   UNL     1       7.051   3.502  11.995  0.00  0.00    +0.000 C 
ENDBRANCH  17  18
ENDBRANCH  16  17
ENDBRANCH  15  16
ENDBRANCH   9  15
TORSDOF 6
ENDMDL
MODEL 8
REMARK VINA RESULT:      -6.8      2.916      6.702
REMARK  Name = 
REMARK  7 active torsions:
REMARK  status: ('A' for Active; 'I' for Inactive)
REMARK    1  A    between atoms: C_1  and  C_2
REMARK    2  A    between atoms: C_3  and  C_4
REMARK    3  A    between atoms: C_4  and  O_6
REMARK    4  A    between atoms: C_12  and  O_13
REMARK    5  A    between atoms: O_13  and  C_14
REMARK    6  A    between atoms: C_14  and  C_15
REMARK    7  A    between atoms: C_15  and  N_16
REMARK                            x       y       z     vdW  Elec       q    Type
REMARK                         _______ _______ _______ _____ _____    ______ ____
ROOT
ATOM      1  C   UNL     1       3.438   1.871  18.815  0.00  0.00    +0.000 C 
ATOM      2  C   UNL     1       3.138   3.250  19.290  0.00  0.00    +0.000 A 
ATOM      3  C   UNL     1       2.620   3.520  20.555  0.00  0.00    +0.000 A 
ATOM      4  O   UNL     1       2.424   4.858  20.703  0.00  0.00    +0.000 OA
ATOM      5  C   UNL     1       2.799   5.463  19.551  0.00  0.00    +0.000 A 
ATOM      6  C   UNL     1       2.698   6.841  19.363  0.00  0.00    +0.000 A 
ATOM      7  C   UNL     1       3.114   7.349  18.137  0.00  0.00    +0.000 A 
ATOM      8  C   UNL     1       3.619   6.493  17.166  0.00  0.00    +0.000 A 
ATOM      9  C   UNL     1       3.692   5.094  17.360  0.00  0.00    +0.000 A 
ATOM     10  C   UNL     1       3.268   4.537  18.613  0.00  0.00    +0.000 A 
ENDROOT
BRANCH   3  11
ATOM     11  C   UNL     1       2.256   2.667  21.672  0.00  0.00    +0.000 C 
ATOM     12  O   UNL     1       2.995   1.932  22.306  0.00  0.00    +0.000 OA
BRANCH  11  13
ATOM     13  O   UNL     1       0.929   2.768  21.950  0.00  0.00    +0.000 OA
ATOM     14  H   UNL     1       0.405   2.550  21.150  0.00  0.00    +0.000 HD
ENDBRANCH  11  13
ENDBRANCH   3  11
BRANCH   9  15
ATOM     15  O   UNL     1       4.220   4.467  16.225  0.00  0.00    +0.000 OA
BRANCH  15  16
ATOM     16  C   UNL     1       5.273   5.160  15.588  0.00  0.00    +0.000 C 
BRANCH  16  17
ATOM     17  C   UNL     1       6.648   4.480  15.717  0.00  0.00    +0.000 C 
BRANCH  17  18
ATOM     18  N   UNL     1       7.676   5.158  16.528  0.00  0.00    +0.000 NA
ATOM     19  C   UNL     1       7.836   4.474  17.827  0.00  0.00    +0.000 C 
ATOM     20  C   UNL     1       6.904   5.206  18.773  0.00  0.00    +0.000 C 
ATOM     21  C   UNL     1       7.065   6.646  18.339  0.00  0.00    +0.000 C 
ATOM     22  C   UNL     1       7.369   6.563  16.848  0.00  0.00    +0.000 C 
ENDBRANCH  17  18
ENDBRANCH  16  17
ENDBRANCH  15  16
ENDBRANCH   9  15
TORSDOF 6
ENDMDL
MODEL 9
REMARK VINA RESULT:      -6.8      3.201      4.899
REMARK  Name = 
REMARK  7 active torsions:
REMARK  status: ('A' for Active; 'I' for Inactive)
REMARK    1  A    between atoms: C_1  and  C_2
REMARK    2  A    between atoms: C_3  and  C_4
REMARK    3  A    between atoms: C_4  and  O_6
REMARK    4  A    between atoms: C_12  and  O_13
REMARK    5  A    between atoms: O_13  and  C_14
REMARK    6  A    between atoms: C_14  and  C_15
REMARK    7  A    between atoms: C_15  and  N_16
REMARK                            x       y       z     vdW  Elec       q    Type
REMARK                         _______ _______ _______ _____ _____    ______ ____
ROOT
ATOM      1  C   UNL     1       2.003   7.094  20.116  0.00  0.00    +0.000 C 
ATOM      2  C   UNL     1       2.747   7.245  18.835  0.00  0.00    +0.000 A 
ATOM      3  C   UNL     1       2.525   8.298  17.950  0.00  0.00    +0.000 A 
ATOM      4  O   UNL     1       3.326   8.166  16.858  0.00  0.00    +0.000 OA
ATOM      5  C   UNL     1       4.059   7.038  17.015  0.00  0.00    +0.000 A 
ATOM      6  C   UNL     1       4.966   6.596  16.052  0.00  0.00    +0.000 A 
ATOM      7  C   UNL     1       5.663   5.424  16.323  0.00  0.00    +0.000 A 
ATOM      8  C   UNL     1       5.450   4.751  17.520  0.00  0.00    +0.000 A 
ATOM      9  C   UNL     1       4.508   5.196  18.477  0.00  0.00    +0.000 A 
ATOM     10  C   UNL     1       3.771   6.401  18.227  0.00  0.00    +0.000 A 
ENDROOT
BRANCH   3  11
ATOM     11  C   UNL     1       1.627   9.438  17.982  0.00  0.00    +0.000 C 
ATOM     12  O   UNL     1       0.487   9.463  18.416  0.00  0.00    +0.000 OA
BRANCH  11  13
ATOM     13  O   UNL     1       2.214  10.536  17.436  0.00  0.00    +0.000 OA
ATOM     14  H   UNL     1       1.655  11.325  17.594  0.00  0.00    +0.000 HD
ENDBRANCH  11  13
ENDBRANCH   3  11
BRANCH   9  15
ATOM     15  O   UNL     1       4.479   4.330  19.578  0.00  0.00    +0.000 OA
BRANCH  15  16
ATOM     16  C   UNL     1       4.497   2.953  19.262  0.00  0.00    +0.000 C 
BRANCH  16  17
ATOM     17  C   UNL     1       3.211   2.442  18.588  0.00  0.00    +0.000 C 
BRANCH  17  18
ATOM     18  N   UNL     1       2.125   1.956  19.459  0.00  0.00    +0.000 NA
ATOM     19  C   UNL     1       0.865   2.657  19.145  0.00  0.00    +0.000 C 
ATOM     20  C   UNL     1       0.822   3.836  20.098  0.00  0.00    +0.000 C 
ATOM     21  C   UNL     1       1.382   3.243  21.372  0.00  0.00    +0.000 C 
ATOM     22  C   UNL     1       2.359   2.173  20.898  0.00  0.00    +0.000 C 
ENDBRANCH  17  18
ENDBRANCH  16  17
ENDBRANCH  15  16
ENDBRANCH   9  15
TORSDOF 6
ENDMDL
