MODEL 1
REMARK VINA RESULT:      -6.9      0.000      0.000
REMARK  Name = 
REMARK  16 active torsions:
REMARK  status: ('A' for Active; 'I' for Inactive)
REMARK    1  A    between atoms: C_1  and  C_2
REMARK    2  A    between atoms: C_2  and  C_3
REMARK    3  A    between atoms: C_3  and  C_4
REMARK    4  A    between atoms: C_4  and  C_5
REMARK    5  A    between atoms: C_5  and  C_6
REMARK    6  A    between atoms: C_6  and  C_7
REMARK    7  A    between atoms: C_7  and  C_8
REMARK    8  A    between atoms: C_8  and  O_9
REMARK    9  A    between atoms: O_9  and  C_10
REMARK   10  A    between atoms: C_13  and  C_14
REMARK   11  A    between atoms: C_17  and  C_18
REMARK   12  A    between atoms: C_18  and  C_19
REMARK   13  A    between atoms: C_18  and  N_20
REMARK   14  A    between atoms: C_18  and  C_21
REMARK   15  A    between atoms: C_21  and  O_22
REMARK   16  A    between atoms: C_25  and  C_26
REMARK                            x       y       z     vdW  Elec       q    Type
REMARK                         _______ _______ _______ _____ _____    ______ ____
ROOT
ATOM      1  C   UNL     1       4.219   5.803  18.772  0.00  0.00    +0.000 A 
ATOM      2  C   UNL     1       3.337   5.859  19.863  0.00  0.00    +0.000 A 
ATOM      3  C   UNL     1       2.359   6.852  19.963  0.00  0.00    +0.000 A 
ATOM      4  C   UNL     1       2.238   7.825  18.970  0.00  0.00    +0.000 A 
ATOM      5  C   UNL     1       3.093   7.737  17.862  0.00  0.00    +0.000 A 
ATOM      6  C   UNL     1       4.073   6.721  17.725  0.00  0.00    +0.000 A 
ENDROOT
BRANCH   4   7
ATOM      7  C   UNL     1       1.234   8.896  19.019  0.00  0.00    +0.000 A 
ATOM      8  N   UNL     1       0.879   9.542  20.112  0.00  0.00    +0.000 NA
ATOM      9  N   UNL     1      -0.080  10.501  19.872  0.00  0.00    +0.000 NA
ATOM     10  C   UNL     1      -0.461  10.536  18.612  0.00  0.00    +0.000 A 
ATOM     11  S   UNL     1       0.357   9.379  17.622  0.00  0.00    +0.000 S 
BRANCH  10  12
ATOM     12  C   UNL     1      -1.493  11.495  18.026  0.00  0.00    +0.000 C 
ATOM     13  C   UNL     1      -2.515  11.902  19.106  0.00  0.00    +0.000 C 
BRANCH  12  14
ATOM     14  N   UNL     1      -0.839  12.718  17.505  0.00  0.00    +0.000 NA
ATOM     15  H   UNL     1      -1.150  13.523  18.050  0.00  0.00    +0.000 HD
ATOM     16  H   UNL     1      -1.151  12.889  16.549  0.00  0.00    +0.000 HD
ENDBRANCH  12  14
BRANCH  12  17
ATOM     17  C   UNL     1      -2.241  10.804  16.843  0.00  0.00    +0.000 C 
BRANCH  17  18
ATOM     18  O   UNL     1      -3.268  11.621  16.277  0.00  0.00    +0.000 OA
ATOM     19  H   UNL     1      -2.904  12.530  16.249  0.00  0.00    +0.000 HD
ENDBRANCH  17  18
ENDBRANCH  12  17
ENDBRANCH  10  12
ENDBRANCH   4   7
BRANCH   6  20
ATOM     20  C   UNL     1       4.846   6.746  16.429  0.00  0.00    +0.000 C 
ATOM     21  F   UNL     1       4.993   5.557  15.789  0.00  0.00    +0.000 F 
ATOM     22  F   UNL     1       4.272   7.569  15.502  0.00  0.00    +0.000 F 
ATOM     23  F   UNL     1       6.110   7.231  16.608  0.00  0.00    +0.000 F 
ENDBRANCH   6  20
BRANCH   1  24
ATOM     24  O   UNL     1       5.098   4.760  18.871  0.00  0.00    +0.000 OA
BRANCH  24  25
ATOM     25  C   UNL     1       4.551   3.445  18.888  0.00  0.00    +0.000 C 
BRANCH  25  26
ATOM     26  C   UNL     1       3.959   3.085  17.533  0.00  0.00    +0.000 C 
BRANCH  26  27
ATOM     27  C   UNL     1       2.658   2.316  17.758  0.00  0.00    +0.000 C 
BRANCH  27  28
ATOM     28  C   UNL     1       1.470   3.254  17.937  0.00  0.00    +0.000 C 
BRANCH  28  29
ATOM     29  C   UNL     1       0.567   2.768  19.071  0.00  0.00    +0.000 C 
BRANCH  29  30
ATOM     30  C   UNL     1       0.792   3.608  20.324  0.00  0.00    +0.000 C 
BRANCH  30  32
ATOM     31  C   UNL     1       2.713   2.656  21.620  0.00  0.00    +0.000 C 
ATOM     32  C   UNL     1       1.200   2.744  21.513  0.00  0.00    +0.000 C 
ENDBRANCH  30  32
ENDBRANCH  29  30
ENDBRANCH  28  29
ENDBRANCH  27  28
ENDBRANCH  26  27
ENDBRANCH  25  26
ENDBRANCH  24  25
ENDBRANCH   1  24
TORSDOF 14
ENDMDL
MODEL 2
REMARK VINA RESULT:      -6.9      1.170      1.460
REMARK  Name = 
REMARK  16 active torsions:
REMARK  status: ('A' for Active; 'I' for Inactive)
REMARK    1  A    between atoms: C_1  and  C_2
REMARK    2  A    between atoms: C_2  and  C_3
REMARK    3  A    between atoms: C_3  and  C_4
REMARK    4  A    between atoms: C_4  and  C_5
REMARK    5  A    between atoms: C_5  and  C_6
REMARK    6  A    between atoms: C_6  and  C_7
REMARK    7  A    between atoms: C_7  and  C_8
REMARK    8  A    between atoms: C_8  and  O_9
REMARK    9  A    between atoms: O_9  and  C_10
REMARK   10  A    between atoms: C_13  and  C_14
REMARK   11  A    between atoms: C_17  and  C_18
REMARK   12  A    between atoms: C_18  and  C_19
REMARK   13  A    between atoms: C_18  and  N_20
REMARK   14  A    between atoms: C_18  and  C_21
REMARK   15  A    between atoms: C_21  and  O_22
REMARK   16  A    between atoms: C_25  and  C_26
REMARK                            x       y       z     vdW  Elec       q    Type
REMARK                         _______ _______ _______ _____ _____    ______ ____
ROOT
ATOM      1  C   UNL     1       4.262   5.737  18.658  0.00  0.00    +0.000 A 
ATOM      2  C   UNL     1       3.327   5.830  19.703  0.00  0.00    +0.000 A 
ATOM      3  C   UNL     1       2.389   6.864  19.755  0.00  0.00    +0.000 A 
ATOM      4  C   UNL     1       2.360   7.841  18.759  0.00  0.00    +0.000 A 
ATOM      5  C   UNL     1       3.267   7.717  17.696  0.00  0.00    +0.000 A 
ATOM      6  C   UNL     1       4.208   6.661  17.607  0.00  0.00    +0.000 A 
ENDROOT
BRANCH   4   7
ATOM      7  C   UNL     1       1.401   8.954  18.760  0.00  0.00    +0.000 A 
ATOM      8  N   UNL     1       0.859   9.478  17.679  0.00  0.00    +0.000 NA
ATOM      9  N   UNL     1      -0.010  10.506  17.968  0.00  0.00    +0.000 NA
ATOM     10  C   UNL     1      -0.082  10.766  19.257  0.00  0.00    +0.000 A 
ATOM     11  S   UNL     1       0.927   9.739  20.214  0.00  0.00    +0.000 S 
BRANCH  10  12
ATOM     12  C   UNL     1      -0.965  11.833  19.897  0.00  0.00    +0.000 C 
ATOM     13  C   UNL     1      -1.170  11.526  21.394  0.00  0.00    +0.000 C 
BRANCH  12  14
ATOM     14  N   UNL     1      -0.348  13.174  19.767  0.00  0.00    +0.000 NA
ATOM     15  H   UNL     1       0.169  13.222  18.889  0.00  0.00    +0.000 HD
ATOM     16  H   UNL     1       0.343  13.303  20.507  0.00  0.00    +0.000 HD
ENDBRANCH  12  14
BRANCH  12  17
ATOM     17  C   UNL     1      -2.352  11.866  19.183  0.00  0.00    +0.000 C 
BRANCH  17  18
ATOM     18  O   UNL     1      -2.274  12.317  17.830  0.00  0.00    +0.000 OA
ATOM     19  H   UNL     1      -1.540  12.965  17.803  0.00  0.00    +0.000 HD
ENDBRANCH  17  18
ENDBRANCH  12  17
ENDBRANCH  10  12
ENDBRANCH   4   7
BRANCH   6  20
ATOM     20  C   UNL     1       5.048   6.654  16.353  0.00  0.00    +0.000 C 
ATOM     21  F   UNL     1       4.599   7.411  15.319  0.00  0.00    +0.000 F 
ATOM     22  F   UNL     1       6.319   7.099  16.581  0.00  0.00    +0.000 F 
ATOM     23  F   UNL     1       5.193   5.391  15.854  0.00  0.00    +0.000 F 
ENDBRANCH   6  20
BRANCH   1  24
ATOM     24  O   UNL     1       5.089   4.658  18.799  0.00  0.00    +0.000 OA
BRANCH  24  25
ATOM     25  C   UNL     1       4.489   3.367  18.771  0.00  0.00    +0.000 C 
BRANCH  25  26
ATOM     26  C   UNL     1       4.065   2.995  17.358  0.00  0.00    +0.000 C 
BRANCH  26  27
ATOM     27  C   UNL     1       2.539   2.961  17.298  0.00  0.00    +0.000 C 
BRANCH  27  28
ATOM     28  C   UNL     1       1.948   2.117  18.420  0.00  0.00    +0.000 C 
BRANCH  28  29
ATOM     29  C   UNL     1       0.610   2.694  18.882  0.00  0.00    +0.000 C 
BRANCH  29  30
ATOM     30  C   UNL     1       0.805   3.548  20.131  0.00  0.00    +0.000 C 
BRANCH  30  32
ATOM     31  C   UNL     1       2.581   2.923  21.784  0.00  0.00    +0.000 C 
ATOM     32  C   UNL     1       1.144   2.693  21.347  0.00  0.00    +0.000 C 
ENDBRANCH  30  32
ENDBRANCH  29  30
ENDBRANCH  28  29
ENDBRANCH  27  28
ENDBRANCH  26  27
ENDBRANCH  25  26
ENDBRANCH  24  25
ENDBRANCH   1  24
TORSDOF 14
ENDMDL
MODEL 3
REMARK VINA RESULT:      -6.8      1.199      1.431
REMARK  Name = 
REMARK  16 active torsions:
REMARK  status: ('A' for Active; 'I' for Inactive)
REMARK    1  A    between atoms: C_1  and  C_2
REMARK    2  A    between atoms: C_2  and  C_3
REMARK    3  A    between atoms: C_3  and  C_4
REMARK    4  A    between atoms: C_4  and  C_5
REMARK    5  A    between atoms: C_5  and  C_6
REMARK    6  A    between atoms: C_6  and  C_7
REMARK    7  A    between atoms: C_7  and  C_8
REMARK    8  A    between atoms: C_8  and  O_9
REMARK    9  A    between atoms: O_9  and  C_10
REMARK   10  A    between atoms: C_13  and  C_14
REMARK   11  A    between atoms: C_17  and  C_18
REMARK   12  A    between atoms: C_18  and  C_19
REMARK   13  A    between atoms: C_18  and  N_20
REMARK   14  A    between atoms: C_18  and  C_21
REMARK   15  A    between atoms: C_21  and  O_22
REMARK   16  A    between atoms: C_25  and  C_26
REMARK                            x       y       z     vdW  Elec       q    Type
REMARK                         _______ _______ _______ _____ _____    ______ ____
ROOT
ATOM      1  C   UNL     1       4.281   5.810  18.809  0.00  0.00    +0.000 A 
ATOM      2  C   UNL     1       3.339   6.016  19.831  0.00  0.00    +0.000 A 
ATOM      3  C   UNL     1       2.364   7.012  19.736  0.00  0.00    +0.000 A 
ATOM      4  C   UNL     1       2.304   7.836  18.611  0.00  0.00    +0.000 A 
ATOM      5  C   UNL     1       3.219   7.595  17.577  0.00  0.00    +0.000 A 
ATOM      6  C   UNL     1       4.199   6.572  17.638  0.00  0.00    +0.000 A 
ENDROOT
BRANCH   4   7
ATOM      7  C   UNL     1       1.305   8.901  18.455  0.00  0.00    +0.000 A 
ATOM      8  N   UNL     1       0.353   8.909  17.543  0.00  0.00    +0.000 NA
ATOM      9  N   UNL     1      -0.449  10.026  17.624  0.00  0.00    +0.000 NA
ATOM     10  C   UNL     1      -0.066  10.860  18.568  0.00  0.00    +0.000 A 
ATOM     11  S   UNL     1       1.323  10.311  19.439  0.00  0.00    +0.000 S 
BRANCH  10  12
ATOM     12  C   UNL     1      -0.754  12.176  18.919  0.00  0.00    +0.000 C 
ATOM     13  C   UNL     1       0.079  12.953  19.957  0.00  0.00    +0.000 C 
BRANCH  12  14
ATOM     14  N   UNL     1      -0.920  13.021  17.713  0.00  0.00    +0.000 NA
ATOM     15  H   UNL     1      -0.323  12.662  16.968  0.00  0.00    +0.000 HD
ATOM     16  H   UNL     1      -0.585  13.964  17.911  0.00  0.00    +0.000 HD
ENDBRANCH  12  14
BRANCH  12  17
ATOM     17  C   UNL     1      -2.171  11.888  19.507  0.00  0.00    +0.000 C 
BRANCH  17  18
ATOM     18  O   UNL     1      -3.225  12.475  18.742  0.00  0.00    +0.000 OA
ATOM     19  H   UNL     1      -2.809  13.184  18.209  0.00  0.00    +0.000 HD
ENDBRANCH  17  18
ENDBRANCH  12  17
ENDBRANCH  10  12
ENDBRANCH   4   7
BRANCH   6  20
ATOM     20  C   UNL     1       5.044   6.417  16.397  0.00  0.00    +0.000 C 
ATOM     21  F   UNL     1       4.986   5.214  15.771  0.00  0.00    +0.000 F 
ATOM     22  F   UNL     1       4.712   7.325  15.431  0.00  0.00    +0.000 F 
ATOM     23  F   UNL     1       6.365   6.637  16.659  0.00  0.00    +0.000 F 
ENDBRANCH   6  20
BRANCH   1  24
ATOM     24  O   UNL     1       5.147   4.793  19.102  0.00  0.00    +0.000 OA
BRANCH  24  25
ATOM     25  C   UNL     1       5.012   3.586  18.359  0.00  0.00    +0.000 C 
BRANCH  25  26
ATOM     26  C   UNL     1       4.248   2.539  19.155  0.00  0.00    +0.000 C 
BRANCH  26  27
ATOM     27  C   UNL     1       3.154   1.950  18.266  0.00  0.00    +0.000 C 
BRANCH  27  28
ATOM     28  C   UNL     1       2.558   2.997  17.334  0.00  0.00    +0.000 C 
BRANCH  28  29
ATOM     29  C   UNL     1       1.326   3.644  17.967  0.00  0.00    +0.000 C 
BRANCH  29  30
ATOM     30  C   UNL     1       0.838   2.809  19.147  0.00  0.00    +0.000 C 
BRANCH  30  32
ATOM     31  C   UNL     1       1.439   2.788  21.579  0.00  0.00    +0.000 C 
ATOM     32  C   UNL     1       0.850   3.610  20.445  0.00  0.00    +0.000 C 
ENDBRANCH  30  32
ENDBRANCH  29  30
ENDBRANCH  28  29
ENDBRANCH  27  28
ENDBRANCH  26  27
ENDBRANCH  25  26
ENDBRANCH  24  25
ENDBRANCH   1  24
TORSDOF 14
ENDMDL
MODEL 4
REMARK VINA RESULT:      -6.7      3.462      5.033
REMARK  Name = 
REMARK  16 active torsions:
REMARK  status: ('A' for Active; 'I' for Inactive)
REMARK    1  A    between atoms: C_1  and  C_2
REMARK    2  A    between atoms: C_2  and  C_3
REMARK    3  A    between atoms: C_3  and  C_4
REMARK    4  A    between atoms: C_4  and  C_5
REMARK    5  A    between atoms: C_5  and  C_6
REMARK    6  A    between atoms: C_6  and  C_7
REMARK    7  A    between atoms: C_7  and  C_8
REMARK    8  A    between atoms: C_8  and  O_9
REMARK    9  A    between atoms: O_9  and  C_10
REMARK   10  A    between atoms: C_13  and  C_14
REMARK   11  A    between atoms: C_17  and  C_18
REMARK   12  A    between atoms: C_18  and  C_19
REMARK   13  A    between atoms: C_18  and  N_20
REMARK   14  A    between atoms: C_18  and  C_21
REMARK   15  A    between atoms: C_21  and  O_22
REMARK   16  A    between atoms: C_25  and  C_26
REMARK                            x       y       z     vdW  Elec       q    Type
REMARK                         _______ _______ _______ _____ _____    ______ ____
ROOT
ATOM      1  C   UNL     1       2.578   5.497  18.648  0.00  0.00    +0.000 A 
ATOM      2  C   UNL     1       2.688   6.793  18.118  0.00  0.00    +0.000 A 
ATOM      3  C   UNL     1       2.228   7.911  18.819  0.00  0.00    +0.000 A 
ATOM      4  C   UNL     1       1.639   7.762  20.076  0.00  0.00    +0.000 A 
ATOM      5  C   UNL     1       1.574   6.471  20.617  0.00  0.00    +0.000 A 
ATOM      6  C   UNL     1       2.060   5.325  19.938  0.00  0.00    +0.000 A 
ENDROOT
BRANCH   4   7
ATOM      7  C   UNL     1       1.134   8.898  20.860  0.00  0.00    +0.000 A 
ATOM      8  N   UNL     1       1.353   9.077  22.147  0.00  0.00    +0.000 NA
ATOM      9  N   UNL     1       0.768  10.227  22.629  0.00  0.00    +0.000 NA
ATOM     10  C   UNL     1       0.085  10.875  21.707  0.00  0.00    +0.000 A 
ATOM     11  S   UNL     1       0.127  10.103  20.161  0.00  0.00    +0.000 S 
BRANCH  10  12
ATOM     12  C   UNL     1      -0.664  12.188  21.920  0.00  0.00    +0.000 C 
ATOM     13  C   UNL     1      -1.856  12.284  20.948  0.00  0.00    +0.000 C 
BRANCH  12  14
ATOM     14  N   UNL     1      -1.173  12.284  23.308  0.00  0.00    +0.000 NA
ATOM     15  H   UNL     1      -1.315  11.345  23.679  0.00  0.00    +0.000 HD
ATOM     16  H   UNL     1      -2.092  12.726  23.303  0.00  0.00    +0.000 HD
ENDBRANCH  12  14
BRANCH  12  17
ATOM     17  C   UNL     1       0.301  13.389  21.673  0.00  0.00    +0.000 C 
BRANCH  17  18
ATOM     18  O   UNL     1       1.659  12.987  21.482  0.00  0.00    +0.000 OA
ATOM     19  H   UNL     1       1.676  12.489  20.639  0.00  0.00    +0.000 HD
ENDBRANCH  17  18
ENDBRANCH  12  17
ENDBRANCH  10  12
ENDBRANCH   4   7
BRANCH   6  20
ATOM     20  C   UNL     1       1.971   4.033  20.712  0.00  0.00    +0.000 C 
ATOM     21  F   UNL     1       2.712   2.996  20.246  0.00  0.00    +0.000 F 
ATOM     22  F   UNL     1       2.365   4.184  22.012  0.00  0.00    +0.000 F 
ATOM     23  F   UNL     1       0.687   3.574  20.776  0.00  0.00    +0.000 F 
ENDBRANCH   6  20
BRANCH   1  24
ATOM     24  O   UNL     1       3.082   4.549  17.802  0.00  0.00    +0.000 OA
BRANCH  24  25
ATOM     25  C   UNL     1       4.494   4.519  17.622  0.00  0.00    +0.000 C 
BRANCH  25  26
ATOM     26  C   UNL     1       4.857   4.598  16.147  0.00  0.00    +0.000 C 
BRANCH  26  27
ATOM     27  C   UNL     1       6.239   3.978  15.949  0.00  0.00    +0.000 C 
BRANCH  27  28
ATOM     28  C   UNL     1       7.352   4.927  16.374  0.00  0.00    +0.000 C 
BRANCH  28  29
ATOM     29  C   UNL     1       7.529   4.906  17.892  0.00  0.00    +0.000 C 
BRANCH  29  30
ATOM     30  C   UNL     1       7.839   6.307  18.409  0.00  0.00    +0.000 C 
BRANCH  30  32
ATOM     31  C   UNL     1       7.901   8.739  17.810  0.00  0.00    +0.000 C 
ATOM     32  C   UNL     1       7.309   7.382  17.467  0.00  0.00    +0.000 C 
ENDBRANCH  30  32
ENDBRANCH  29  30
ENDBRANCH  28  29
ENDBRANCH  27  28
ENDBRANCH  26  27
ENDBRANCH  25  26
ENDBRANCH  24  25
ENDBRANCH   1  24
TORSDOF 14
ENDMDL
MODEL 5
REMARK VINA RESULT:      -6.7      3.440      5.261
REMARK  Name = 
REMARK  16 active torsions:
REMARK  status: ('A' for Active; 'I' for Inactive)
REMARK    1  A    between atoms: C_1  and  C_2
REMARK    2  A    between atoms: C_2  and  C_3
REMARK    3  A    between atoms: C_3  and  C_4
REMARK    4  A    between atoms: C_4  and  C_5
REMARK    5  A    between atoms: C_5  and  C_6
REMARK    6  A    between atoms: C_6  and  C_7
REMARK    7  A    between atoms: C_7  and  C_8
REMARK    8  A    between atoms: C_8  and  O_9
REMARK    9  A    between atoms: O_9  and  C_10
REMARK   10  A    between atoms: C_13  and  C_14
REMARK   11  A    between atoms: C_17  and  C_18
REMARK   12  A    between atoms: C_18  and  C_19
REMARK   13  A    between atoms: C_18  and  N_20
REMARK   14  A    between atoms: C_18  and  C_21
REMARK   15  A    between atoms: C_21  and  O_22
REMARK   16  A    between atoms: C_25  and  C_26
REMARK                            x       y       z     vdW  Elec       q    Type
REMARK                         _______ _______ _______ _____ _____    ______ ____
ROOT
ATOM      1  C   UNL     1       2.683   5.243  18.639  0.00  0.00    +0.000 A 
ATOM      2  C   UNL     1       2.799   6.528  18.084  0.00  0.00    +0.000 A 
ATOM      3  C   UNL     1       2.334   7.660  18.758  0.00  0.00    +0.000 A 
ATOM      4  C   UNL     1       1.734   7.537  20.012  0.00  0.00    +0.000 A 
ATOM      5  C   UNL     1       1.662   6.257  20.579  0.00  0.00    +0.000 A 
ATOM      6  C   UNL     1       2.154   5.098  19.927  0.00  0.00    +0.000 A 
ENDROOT
BRANCH   4   7
ATOM      7  C   UNL     1       1.222   8.688  20.769  0.00  0.00    +0.000 A 
ATOM      8  N   UNL     1       1.287   8.813  22.078  0.00  0.00    +0.000 NA
ATOM      9  N   UNL     1       0.736   9.994  22.526  0.00  0.00    +0.000 NA
ATOM     10  C   UNL     1       0.231  10.722  21.551  0.00  0.00    +0.000 A 
ATOM     11  S   UNL     1       0.412   9.992  19.994  0.00  0.00    +0.000 S 
BRANCH  10  12
ATOM     12  C   UNL     1      -0.433  12.085  21.717  0.00  0.00    +0.000 C 
ATOM     13  C   UNL     1      -1.729  12.151  20.884  0.00  0.00    +0.000 C 
BRANCH  12  14
ATOM     14  N   UNL     1      -0.768  12.338  23.138  0.00  0.00    +0.000 NA
ATOM     15  H   UNL     1      -0.051  11.921  23.731  0.00  0.00    +0.000 HD
ATOM     16  H   UNL     1      -1.638  11.860  23.372  0.00  0.00    +0.000 HD
ENDBRANCH  12  14
BRANCH  12  17
ATOM     17  C   UNL     1       0.542  13.207  21.242  0.00  0.00    +0.000 C 
BRANCH  17  18
ATOM     18  O   UNL     1       0.224  13.714  19.945  0.00  0.00    +0.000 OA
ATOM     19  H   UNL     1       0.243  12.943  19.341  0.00  0.00    +0.000 HD
ENDBRANCH  17  18
ENDBRANCH  12  17
ENDBRANCH  10  12
ENDBRANCH   4   7
BRANCH   6  20
ATOM     20  C   UNL     1       2.056   3.821  20.727  0.00  0.00    +0.000 C 
ATOM     21  F   UNL     1       0.859   3.182  20.703  0.00  0.00    +0.000 F 
ATOM     22  F   UNL     1       2.958   2.883  20.310  0.00  0.00    +0.000 F 
ATOM     23  F   UNL     1       2.341   4.033  22.045  0.00  0.00    +0.000 F 
ENDBRANCH   6  20
BRANCH   1  24
ATOM     24  O   UNL     1       3.195   4.277  17.817  0.00  0.00    +0.000 OA
BRANCH  24  25
ATOM     25  C   UNL     1       4.552   4.418  17.410  0.00  0.00    +0.000 C 
BRANCH  25  26
ATOM     26  C   UNL     1       5.499   4.157  18.572  0.00  0.00    +0.000 C 
BRANCH  26  27
ATOM     27  C   UNL     1       6.176   5.471  18.957  0.00  0.00    +0.000 C 
BRANCH  27  28
ATOM     28  C   UNL     1       6.476   6.331  17.736  0.00  0.00    +0.000 C 
BRANCH  28  29
ATOM     29  C   UNL     1       7.863   6.963  17.848  0.00  0.00    +0.000 C 
BRANCH  29  30
ATOM     30  C   UNL     1       7.767   8.479  17.707  0.00  0.00    +0.000 C 
BRANCH  30  32
ATOM     31  C   UNL     1       9.038  10.584  18.188  0.00  0.00    +0.000 C 
ATOM     32  C   UNL     1       8.686   9.194  18.692  0.00  0.00    +0.000 C 
ENDBRANCH  30  32
ENDBRANCH  29  30
ENDBRANCH  28  29
ENDBRANCH  27  28
ENDBRANCH  26  27
ENDBRANCH  25  26
ENDBRANCH  24  25
ENDBRANCH   1  24
TORSDOF 14
ENDMDL
MODEL 6
REMARK VINA RESULT:      -6.6      3.780      5.342
REMARK  Name = 
REMARK  16 active torsions:
REMARK  status: ('A' for Active; 'I' for Inactive)
REMARK    1  A    between atoms: C_1  and  C_2
REMARK    2  A    between atoms: C_2  and  C_3
REMARK    3  A    between atoms: C_3  and  C_4
REMARK    4  A    between atoms: C_4  and  C_5
REMARK    5  A    between atoms: C_5  and  C_6
REMARK    6  A    between atoms: C_6  and  C_7
REMARK    7  A    between atoms: C_7  and  C_8
REMARK    8  A    between atoms: C_8  and  O_9
REMARK    9  A    between atoms: O_9  and  C_10
REMARK   10  A    between atoms: C_13  and  C_14
REMARK   11  A    between atoms: C_17  and  C_18
REMARK   12  A    between atoms: C_18  and  C_19
REMARK   13  A    between atoms: C_18  and  N_20
REMARK   14  A    between atoms: C_18  and  C_21
REMARK   15  A    between atoms: C_21  and  O_22
REMARK   16  A    between atoms: C_25  and  C_26
REMARK                            x       y       z     vdW  Elec       q    Type
REMARK                         _______ _______ _______ _____ _____    ______ ____
ROOT
ATOM      1  C   UNL     1       5.317   4.786  16.905  0.00  0.00    +0.000 A 
ATOM      2  C   UNL     1       3.960   4.443  17.020  0.00  0.00    +0.000 A 
ATOM      3  C   UNL     1       3.039   5.296  17.634  0.00  0.00    +0.000 A 
ATOM      4  C   UNL     1       3.454   6.522  18.155  0.00  0.00    +0.000 A 
ATOM      5  C   UNL     1       4.801   6.878  17.997  0.00  0.00    +0.000 A 
ATOM      6  C   UNL     1       5.747   6.041  17.352  0.00  0.00    +0.000 A 
ENDROOT
BRANCH   4   7
ATOM      7  C   UNL     1       2.535   7.461  18.814  0.00  0.00    +0.000 A 
ATOM      8  N   UNL     1       2.027   7.292  20.018  0.00  0.00    +0.000 NA
ATOM      9  N   UNL     1       1.199   8.327  20.393  0.00  0.00    +0.000 NA
ATOM     10  C   UNL     1       1.066   9.240  19.453  0.00  0.00    +0.000 A 
ATOM     11  S   UNL     1       1.973   8.881  18.025  0.00  0.00    +0.000 S 
BRANCH  10  12
ATOM     12  C   UNL     1       0.232  10.513  19.566  0.00  0.00    +0.000 C 
ATOM     13  C   UNL     1       0.887  11.651  18.759  0.00  0.00    +0.000 C 
BRANCH  12  14
ATOM     14  N   UNL     1      -1.139  10.291  19.051  0.00  0.00    +0.000 NA
ATOM     15  H   UNL     1      -1.214   9.338  18.695  0.00  0.00    +0.000 HD
ATOM     16  H   UNL     1      -1.304  10.903  18.251  0.00  0.00    +0.000 HD
ENDBRANCH  12  14
BRANCH  12  17
ATOM     17  C   UNL     1       0.124  10.939  21.064  0.00  0.00    +0.000 C 
BRANCH  17  18
ATOM     18  O   UNL     1       1.351  10.786  21.779  0.00  0.00    +0.000 OA
ATOM     19  H   UNL     1       1.102  10.523  22.689  0.00  0.00    +0.000 HD
ENDBRANCH  17  18
ENDBRANCH  12  17
ENDBRANCH  10  12
ENDBRANCH   4   7
BRANCH   6  20
ATOM     20  C   UNL     1       7.130   6.627  17.210  0.00  0.00    +0.000 C 
ATOM     21  F   UNL     1       7.749   6.438  16.017  0.00  0.00    +0.000 F 
ATOM     22  F   UNL     1       7.137   7.982  17.392  0.00  0.00    +0.000 F 
ATOM     23  F   UNL     1       7.984   6.133  18.154  0.00  0.00    +0.000 F 
ENDBRANCH   6  20
BRANCH   1  24
ATOM     24  O   UNL     1       6.045   3.813  16.278  0.00  0.00    +0.000 OA
BRANCH  24  25
ATOM     25  C   UNL     1       6.502   4.087  14.958  0.00  0.00    +0.000 C 
BRANCH  25  26
ATOM     26  C   UNL     1       5.452   3.700  13.927  0.00  0.00    +0.000 C 
BRANCH  26  27
ATOM     27  C   UNL     1       6.101   3.699  12.544  0.00  0.00    +0.000 C 
BRANCH  27  28
ATOM     28  C   UNL     1       5.496   2.636  11.635  0.00  0.00    +0.000 C 
BRANCH  28  29
ATOM     29  C   UNL     1       3.999   2.880  11.443  0.00  0.00    +0.000 C 
BRANCH  29  30
ATOM     30  C   UNL     1       3.770   4.129  10.598  0.00  0.00    +0.000 C 
BRANCH  30  32
ATOM     31  C   UNL     1       2.160   5.110   8.948  0.00  0.00    +0.000 C 
ATOM     32  C   UNL     1       2.862   3.842   9.407  0.00  0.00    +0.000 C 
ENDBRANCH  30  32
ENDBRANCH  29  30
ENDBRANCH  28  29
ENDBRANCH  27  28
ENDBRANCH  26  27
ENDBRANCH  25  26
ENDBRANCH  24  25
ENDBRANCH   1  24
TORSDOF 14
ENDMDL
MODEL 7
REMARK VINA RESULT:      -6.6      1.809      1.942
REMARK  Name = 
REMARK  16 active torsions:
REMARK  status: ('A' for Active; 'I' for Inactive)
REMARK    1  A    between atoms: C_1  and  C_2
REMARK    2  A    between atoms: C_2  and  C_3
REMARK    3  A    between atoms: C_3  and  C_4
REMARK    4  A    between atoms: C_4  and  C_5
REMARK    5  A    between atoms: C_5  and  C_6
REMARK    6  A    between atoms: C_6  and  C_7
REMARK    7  A    between atoms: C_7  and  C_8
REMARK    8  A    between atoms: C_8  and  O_9
REMARK    9  A    between atoms: O_9  and  C_10
REMARK   10  A    between atoms: C_13  and  C_14
REMARK   11  A    between atoms: C_17  and  C_18
REMARK   12  A    between atoms: C_18  and  C_19
REMARK   13  A    between atoms: C_18  and  N_20
REMARK   14  A    between atoms: C_18  and  C_21
REMARK   15  A    between atoms: C_21  and  O_22
REMARK   16  A    between atoms: C_25  and  C_26
REMARK                            x       y       z     vdW  Elec       q    Type
REMARK                         _______ _______ _______ _____ _____    ______ ____
ROOT
ATOM      1  C   UNL     1       4.485   5.460  18.484  0.00  0.00    +0.000 A 
ATOM      2  C   UNL     1       3.646   5.661  19.593  0.00  0.00    +0.000 A 
ATOM      3  C   UNL     1       2.777   6.753  19.664  0.00  0.00    +0.000 A 
ATOM      4  C   UNL     1       2.722   7.679  18.621  0.00  0.00    +0.000 A 
ATOM      5  C   UNL     1       3.529   7.447  17.498  0.00  0.00    +0.000 A 
ATOM      6  C   UNL     1       4.397   6.332  17.392  0.00  0.00    +0.000 A 
ENDROOT
BRANCH   4   7
ATOM      7  C   UNL     1       1.831   8.848  18.638  0.00  0.00    +0.000 A 
ATOM      8  N   UNL     1       1.630   9.652  17.614  0.00  0.00    +0.000 NA
ATOM      9  N   UNL     1       0.742  10.664  17.902  0.00  0.00    +0.000 NA
ATOM     10  C   UNL     1       0.318  10.630  19.149  0.00  0.00    +0.000 A 
ATOM     11  S   UNL     1       0.990   9.323  20.060  0.00  0.00    +0.000 S 
BRANCH  10  12
ATOM     12  C   UNL     1      -0.680  11.602  19.772  0.00  0.00    +0.000 C 
ATOM     13  C   UNL     1      -0.204  13.055  19.572  0.00  0.00    +0.000 C 
BRANCH  12  14
ATOM     14  N   UNL     1      -2.018  11.451  19.153  0.00  0.00    +0.000 NA
ATOM     15  H   UNL     1      -2.045  11.977  18.280  0.00  0.00    +0.000 HD
ATOM     16  H   UNL     1      -2.721  11.875  19.758  0.00  0.00    +0.000 HD
ENDBRANCH  12  14
BRANCH  12  17
ATOM     17  C   UNL     1      -0.816  11.310  21.299  0.00  0.00    +0.000 C 
BRANCH  17  18
ATOM     18  O   UNL     1      -0.083  12.228  22.112  0.00  0.00    +0.000 OA
ATOM     19  H   UNL     1      -0.525  12.228  22.985  0.00  0.00    +0.000 HD
ENDBRANCH  17  18
ENDBRANCH  12  17
ENDBRANCH  10  12
ENDBRANCH   4   7
BRANCH   6  20
ATOM     20  C   UNL     1       5.128   6.210  16.077  0.00  0.00    +0.000 C 
ATOM     21  F   UNL     1       4.973   5.042  15.403  0.00  0.00    +0.000 F 
ATOM     22  F   UNL     1       4.750   7.176  15.186  0.00  0.00    +0.000 F 
ATOM     23  F   UNL     1       6.475   6.374  16.234  0.00  0.00    +0.000 F 
ENDBRANCH   6  20
BRANCH   1  24
ATOM     24  O   UNL     1       5.258   4.340  18.617  0.00  0.00    +0.000 OA
BRANCH  24  25
ATOM     25  C   UNL     1       4.584   3.100  18.807  0.00  0.00    +0.000 C 
BRANCH  25  26
ATOM     26  C   UNL     1       3.968   2.611  17.504  0.00  0.00    +0.000 C 
BRANCH  26  27
ATOM     27  C   UNL     1       2.579   2.048  17.800  0.00  0.00    +0.000 C 
BRANCH  27  28
ATOM     28  C   UNL     1       1.584   3.149  18.144  0.00  0.00    +0.000 C 
BRANCH  28  29
ATOM     29  C   UNL     1       0.707   2.734  19.325  0.00  0.00    +0.000 C 
BRANCH  29  30
ATOM     30  C   UNL     1       0.691   3.834  20.383  0.00  0.00    +0.000 C 
BRANCH  30  32
ATOM     31  C   UNL     1       2.086   2.233  21.712  0.00  0.00    +0.000 C 
ATOM     32  C   UNL     1       1.856   3.692  21.357  0.00  0.00    +0.000 C 
ENDBRANCH  30  32
ENDBRANCH  29  30
ENDBRANCH  28  29
ENDBRANCH  27  28
ENDBRANCH  26  27
ENDBRANCH  25  26
ENDBRANCH  24  25
ENDBRANCH   1  24
TORSDOF 14
ENDMDL
MODEL 8
REMARK VINA RESULT:      -6.6      1.497      1.889
REMARK  Name = 
REMARK  16 active torsions:
REMARK  status: ('A' for Active; 'I' for Inactive)
REMARK    1  A    between atoms: C_1  and  C_2
REMARK    2  A    between atoms: C_2  and  C_3
REMARK    3  A    between atoms: C_3  and  C_4
REMARK    4  A    between atoms: C_4  and  C_5
REMARK    5  A    between atoms: C_5  and  C_6
REMARK    6  A    between atoms: C_6  and  C_7
REMARK    7  A    between atoms: C_7  and  C_8
REMARK    8  A    between atoms: C_8  and  O_9
REMARK    9  A    between atoms: O_9  and  C_10
REMARK   10  A    between atoms: C_13  and  C_14
REMARK   11  A    between atoms: C_17  and  C_18
REMARK   12  A    between atoms: C_18  and  C_19
REMARK   13  A    between atoms: C_18  and  N_20
REMARK   14  A    between atoms: C_18  and  C_21
REMARK   15  A    between atoms: C_21  and  O_22
REMARK   16  A    between atoms: C_25  and  C_26
REMARK                            x       y       z     vdW  Elec       q    Type
REMARK                         _______ _______ _______ _____ _____    ______ ____
ROOT
ATOM      1  C   UNL     1       4.338   5.692  18.715  0.00  0.00    +0.000 A 
ATOM      2  C   UNL     1       3.435   5.828  19.784  0.00  0.00    +0.000 A 
ATOM      3  C   UNL     1       2.482   6.849  19.810  0.00  0.00    +0.000 A 
ATOM      4  C   UNL     1       2.405   7.769  18.764  0.00  0.00    +0.000 A 
ATOM      5  C   UNL     1       3.279   7.601  17.681  0.00  0.00    +0.000 A 
ATOM      6  C   UNL     1       4.235   6.556  17.618  0.00  0.00    +0.000 A 
ENDROOT
BRANCH   4   7
ATOM      7  C   UNL     1       1.428   8.866  18.736  0.00  0.00    +0.000 A 
ATOM      8  N   UNL     1       0.917   9.387  17.639  0.00  0.00    +0.000 NA
ATOM      9  N   UNL     1       0.020  10.399  17.901  0.00  0.00    +0.000 NA
ATOM     10  C   UNL     1      -0.102  10.650  19.189  0.00  0.00    +0.000 A 
ATOM     11  S   UNL     1       0.889   9.634  20.177  0.00  0.00    +0.000 S 
BRANCH  10  12
ATOM     12  C   UNL     1      -1.026  11.699  19.802  0.00  0.00    +0.000 C 
ATOM     13  C   UNL     1      -2.414  11.642  19.134  0.00  0.00    +0.000 C 
BRANCH  12  14
ATOM     14  N   UNL     1      -1.188  11.471  21.257  0.00  0.00    +0.000 NA
ATOM     15  H   UNL     1      -1.543  12.322  21.693  0.00  0.00    +0.000 HD
ATOM     16  H   UNL     1      -0.275  11.300  21.678  0.00  0.00    +0.000 HD
ENDBRANCH  12  14
BRANCH  12  17
ATOM     17  C   UNL     1      -0.415  13.121  19.600  0.00  0.00    +0.000 C 
BRANCH  17  18
ATOM     18  O   UNL     1       0.964  13.090  19.227  0.00  0.00    +0.000 OA
ATOM     19  H   UNL     1       1.044  12.389  18.548  0.00  0.00    +0.000 HD
ENDBRANCH  17  18
ENDBRANCH  12  17
ENDBRANCH  10  12
ENDBRANCH   4   7
BRANCH   6  20
ATOM     20  C   UNL     1       5.034   6.492  16.339  0.00  0.00    +0.000 C 
ATOM     21  F   UNL     1       4.660   7.341  15.349  0.00  0.00    +0.000 F 
ATOM     22  F   UNL     1       6.358   6.763  16.545  0.00  0.00    +0.000 F 
ATOM     23  F   UNL     1       5.003   5.243  15.791  0.00  0.00    +0.000 F 
ENDBRANCH   6  20
BRANCH   1  24
ATOM     24  O   UNL     1       5.187   4.635  18.888  0.00  0.00    +0.000 OA
BRANCH  24  25
ATOM     25  C   UNL     1       4.606   3.338  18.976  0.00  0.00    +0.000 C 
BRANCH  25  26
ATOM     26  C   UNL     1       3.673   3.079  17.802  0.00  0.00    +0.000 C 
BRANCH  26  27
ATOM     27  C   UNL     1       3.079   1.679  17.949  0.00  0.00    +0.000 C 
BRANCH  27  28
ATOM     28  C   UNL     1       1.835   1.681  18.829  0.00  0.00    +0.000 C 
BRANCH  28  29
ATOM     29  C   UNL     1       1.028   2.963  18.620  0.00  0.00    +0.000 C 
BRANCH  29  30
ATOM     30  C   UNL     1       0.737   3.629  19.961  0.00  0.00    +0.000 C 
BRANCH  30  32
ATOM     31  C   UNL     1       2.285   3.393  21.916  0.00  0.00    +0.000 C 
ATOM     32  C   UNL     1       1.158   2.745  21.129  0.00  0.00    +0.000 C 
ENDBRANCH  30  32
ENDBRANCH  29  30
ENDBRANCH  28  29
ENDBRANCH  27  28
ENDBRANCH  26  27
ENDBRANCH  25  26
ENDBRANCH  24  25
ENDBRANCH   1  24
TORSDOF 14
ENDMDL
MODEL 9
REMARK VINA RESULT:      -6.6      3.478      5.039
REMARK  Name = 
REMARK  16 active torsions:
REMARK  status: ('A' for Active; 'I' for Inactive)
REMARK    1  A    between atoms: C_1  and  C_2
REMARK    2  A    between atoms: C_2  and  C_3
REMARK    3  A    between atoms: C_3  and  C_4
REMARK    4  A    between atoms: C_4  and  C_5
REMARK    5  A    between atoms: C_5  and  C_6
REMARK    6  A    between atoms: C_6  and  C_7
REMARK    7  A    between atoms: C_7  and  C_8
REMARK    8  A    between atoms: C_8  and  O_9
REMARK    9  A    between atoms: O_9  and  C_10
REMARK   10  A    between atoms: C_13  and  C_14
REMARK   11  A    between atoms: C_17  and  C_18
REMARK   12  A    between atoms: C_18  and  C_19
REMARK   13  A    between atoms: C_18  and  N_20
REMARK   14  A    between atoms: C_18  and  C_21
REMARK   15  A    between atoms: C_21  and  O_22
REMARK   16  A    between atoms: C_25  and  C_26
REMARK                            x       y       z     vdW  Elec       q    Type
REMARK                         _______ _______ _______ _____ _____    ______ ____
ROOT
ATOM      1  C   UNL     1       3.420   5.508  17.919  0.00  0.00    +0.000 A 
ATOM      2  C   UNL     1       3.751   6.742  17.335  0.00  0.00    +0.000 A 
ATOM      3  C   UNL     1       3.155   7.934  17.756  0.00  0.00    +0.000 A 
ATOM      4  C   UNL     1       2.204   7.924  18.777  0.00  0.00    +0.000 A 
ATOM      5  C   UNL     1       1.911   6.695  19.385  0.00  0.00    +0.000 A 
ATOM      6  C   UNL     1       2.524   5.477  18.995  0.00  0.00    +0.000 A 
ENDROOT
BRANCH   4   7
ATOM      7  C   UNL     1       1.540   9.142  19.262  0.00  0.00    +0.000 A 
ATOM      8  N   UNL     1       1.504  10.286  18.610  0.00  0.00    +0.000 NA
ATOM      9  N   UNL     1       0.811  11.262  19.290  0.00  0.00    +0.000 NA
ATOM     10  C   UNL     1       0.369  10.850  20.461  0.00  0.00    +0.000 A 
ATOM     11  S   UNL     1       0.777   9.205  20.801  0.00  0.00    +0.000 S 
BRANCH  10  12
ATOM     12  C   UNL     1      -0.445  11.687  21.444  0.00  0.00    +0.000 C 
ATOM     13  C   UNL     1      -0.776  10.859  22.702  0.00  0.00    +0.000 C 
BRANCH  12  14
ATOM     14  N   UNL     1       0.306  12.896  21.854  0.00  0.00    +0.000 NA
ATOM     15  H   UNL     1       0.922  13.182  21.093  0.00  0.00    +0.000 HD
ATOM     16  H   UNL     1       0.916  12.667  22.639  0.00  0.00    +0.000 HD
ENDBRANCH  12  14
BRANCH  12  17
ATOM     17  C   UNL     1      -1.774  12.148  20.767  0.00  0.00    +0.000 C 
BRANCH  17  18
ATOM     18  O   UNL     1      -2.000  11.531  19.499  0.00  0.00    +0.000 OA
ATOM     19  H   UNL     1      -2.958  11.331  19.463  0.00  0.00    +0.000 HD
ENDBRANCH  17  18
ENDBRANCH  12  17
ENDBRANCH  10  12
ENDBRANCH   4   7
BRANCH   6  20
ATOM     20  C   UNL     1       2.137   4.271  19.816  0.00  0.00    +0.000 C 
ATOM     21  F   UNL     1       3.096   3.761  20.630  0.00  0.00    +0.000 F 
ATOM     22  F   UNL     1       1.082   4.530  20.645  0.00  0.00    +0.000 F 
ATOM     23  F   UNL     1       1.729   3.236  19.025  0.00  0.00    +0.000 F 
ENDBRANCH   6  20
BRANCH   1  24
ATOM     24  O   UNL     1       4.111   4.470  17.360  0.00  0.00    +0.000 OA
BRANCH  24  25
ATOM     25  C   UNL     1       5.459   4.282  17.778  0.00  0.00    +0.000 C 
BRANCH  25  26
ATOM     26  C   UNL     1       6.421   4.467  16.613  0.00  0.00    +0.000 C 
BRANCH  26  27
ATOM     27  C   UNL     1       5.760   3.932  15.344  0.00  0.00    +0.000 C 
BRANCH  27  28
ATOM     28  C   UNL     1       6.514   4.358  14.091  0.00  0.00    +0.000 C 
BRANCH  28  29
ATOM     29  C   UNL     1       6.158   3.452  12.912  0.00  0.00    +0.000 C 
BRANCH  29  30
ATOM     30  C   UNL     1       4.800   3.842  12.337  0.00  0.00    +0.000 C 
BRANCH  30  32
ATOM     31  C   UNL     1       3.303   3.575  10.345  0.00  0.00    +0.000 C 
ATOM     32  C   UNL     1       4.397   2.932  11.181  0.00  0.00    +0.000 C 
ENDBRANCH  30  32
ENDBRANCH  29  30
ENDBRANCH  28  29
ENDBRANCH  27  28
ENDBRANCH  26  27
ENDBRANCH  25  26
ENDBRANCH  24  25
ENDBRANCH   1  24
TORSDOF 14
ENDMDL
