MODEL 1
REMARK VINA RESULT:      -6.2      0.000      0.000
REMARK  Name = 
REMARK  12 active torsions:
REMARK  status: ('A' for Active; 'I' for Inactive)
REMARK    1  A    between atoms: C_1  and  C_2
REMARK    2  A    between atoms: C_2  and  C_3
REMARK    3  A    between atoms: C_3  and  C_4
REMARK    4  A    between atoms: C_4  and  C_5
REMARK    5  A    between atoms: C_5  and  C_6
REMARK    6  A    between atoms: C_6  and  C_7
REMARK    7  A    between atoms: C_7  and  C_8
REMARK    8  A    between atoms: C_8  and  C_9
REMARK    9  A    between atoms: C_9  and  C_10
REMARK   10  A    between atoms: C_10  and  O_11
REMARK   11  A    between atoms: O_11  and  C_12
REMARK   12  A    between atoms: C_17  and  N_18
REMARK                            x       y       z     vdW  Elec       q    Type
REMARK                         _______ _______ _______ _____ _____    ______ ____
ROOT
ATOM      1  C   UNL     1       3.760   5.215  17.707  0.00  0.00    +0.000 C 
ENDROOT
BRANCH   1   2
ATOM      2  C   UNL     1       4.824   5.415  16.630  0.00  0.00    +0.000 C 
BRANCH   2   3
ATOM      3  C   UNL     1       5.788   4.226  16.527  0.00  0.00    +0.000 C 
BRANCH   3   4
ATOM      4  C   UNL     1       7.060   4.550  15.739  0.00  0.00    +0.000 C 
BRANCH   4   5
ATOM      5  C   UNL     1       6.760   4.870  14.276  0.00  0.00    +0.000 C 
BRANCH   5   6
ATOM      6  C   UNL     1       5.811   3.830  13.680  0.00  0.00    +0.000 C 
BRANCH   6   7
ATOM      7  C   UNL     1       6.114   3.579  12.205  0.00  0.00    +0.000 C 
BRANCH   7   8
ATOM      8  C   UNL     1       5.230   2.465  11.644  0.00  0.00    +0.000 C 
BRANCH   8  10
ATOM      9  C   UNL     1       7.480   1.645  10.874  0.00  0.00    +0.000 C 
ATOM     10  C   UNL     1       6.060   1.249  11.245  0.00  0.00    +0.000 C 
ENDBRANCH   8  10
ENDBRANCH   7   8
ENDBRANCH   6   7
ENDBRANCH   5   6
ENDBRANCH   4   5
ENDBRANCH   3   4
ENDBRANCH   2   3
ENDBRANCH   1   2
BRANCH   1  11
ATOM     11  O   UNL     1       3.430   3.828  17.812  0.00  0.00    +0.000 OA
BRANCH  11  12
ATOM     12  C   UNL     1       2.776   3.554  19.009  0.00  0.00    +0.000 A 
ATOM     13  N   UNL     1       1.494   3.964  19.162  0.00  0.00    +0.000 NA
ATOM     14  C   UNL     1       0.894   3.679  20.331  0.00  0.00    +0.000 A 
ATOM     15  C   UNL     1       1.513   2.985  21.357  0.00  0.00    +0.000 A 
ATOM     16  C   UNL     1       2.835   2.581  21.178  0.00  0.00    +0.000 A 
ATOM     17  C   UNL     1       3.522   2.912  20.011  0.00  0.00    +0.000 A 
BRANCH  17  18
ATOM     18  N   UNL     1       4.813   2.402  19.786  0.00  0.00    +0.000 N 
ATOM     19  H   UNL     1       5.419   3.027  19.265  0.00  0.00    +0.000 HD
ATOM     20  H   UNL     1       4.771   1.465  19.387  0.00  0.00    +0.000 HD
ENDBRANCH  17  18
ENDBRANCH  11  12
ENDBRANCH   1  11
TORSDOF 11
ENDMDL
MODEL 2
REMARK VINA RESULT:      -6.2      2.910      7.541
REMARK  Name = 
REMARK  12 active torsions:
REMARK  status: ('A' for Active; 'I' for Inactive)
REMARK    1  A    between atoms: C_1  and  C_2
REMARK    2  A    between atoms: C_2  and  C_3
REMARK    3  A    between atoms: C_3  and  C_4
REMARK    4  A    between atoms: C_4  and  C_5
REMARK    5  A    between atoms: C_5  and  C_6
REMARK    6  A    between atoms: C_6  and  C_7
REMARK    7  A    between atoms: C_7  and  C_8
REMARK    8  A    between atoms: C_8  and  C_9
REMARK    9  A    between atoms: C_9  and  C_10
REMARK   10  A    between atoms: C_10  and  O_11
REMARK   11  A    between atoms: O_11  and  C_12
REMARK   12  A    between atoms: C_17  and  N_18
REMARK                            x       y       z     vdW  Elec       q    Type
REMARK                         _______ _______ _______ _____ _____    ______ ____
ROOT
ATOM      1  C   UNL     1       6.945   5.075  16.669  0.00  0.00    +0.000 C 
ENDROOT
BRANCH   1   2
ATOM      2  C   UNL     1       6.147   6.087  17.489  0.00  0.00    +0.000 C 
BRANCH   2   3
ATOM      3  C   UNL     1       4.658   6.100  17.121  0.00  0.00    +0.000 C 
BRANCH   3   4
ATOM      4  C   UNL     1       3.839   5.066  17.899  0.00  0.00    +0.000 C 
BRANCH   4   5
ATOM      5  C   UNL     1       3.803   3.714  17.189  0.00  0.00    +0.000 C 
BRANCH   5   6
ATOM      6  C   UNL     1       2.408   3.097  17.274  0.00  0.00    +0.000 C 
BRANCH   6   7
ATOM      7  C   UNL     1       1.480   3.933  18.153  0.00  0.00    +0.000 C 
BRANCH   7   8
ATOM      8  C   UNL     1       0.906   3.097  19.297  0.00  0.00    +0.000 C 
BRANCH   8  10
ATOM      9  C   UNL     1       1.580   2.694  21.687  0.00  0.00    +0.000 C 
ATOM     10  C   UNL     1       1.198   3.739  20.651  0.00  0.00    +0.000 C 
ENDBRANCH   8  10
ENDBRANCH   7   8
ENDBRANCH   6   7
ENDBRANCH   5   6
ENDBRANCH   4   5
ENDBRANCH   3   4
ENDBRANCH   2   3
ENDBRANCH   1   2
BRANCH   1  11
ATOM     11  O   UNL     1       7.418   5.689  15.468  0.00  0.00    +0.000 OA
BRANCH  11  12
ATOM     12  C   UNL     1       7.022   4.970  14.345  0.00  0.00    +0.000 A 
ATOM     13  N   UNL     1       5.948   4.150  14.437  0.00  0.00    +0.000 NA
ATOM     14  C   UNL     1       5.595   3.474  13.331  0.00  0.00    +0.000 A 
ATOM     15  C   UNL     1       6.258   3.590  12.121  0.00  0.00    +0.000 A 
ATOM     16  C   UNL     1       7.366   4.433  12.053  0.00  0.00    +0.000 A 
ATOM     17  C   UNL     1       7.813   5.103  13.192  0.00  0.00    +0.000 A 
BRANCH  17  18
ATOM     18  N   UNL     1       8.855   6.042  13.090  0.00  0.00    +0.000 N 
ATOM     19  H   UNL     1       9.483   6.048  13.887  0.00  0.00    +0.000 HD
ATOM     20  H   UNL     1       8.493   6.967  12.863  0.00  0.00    +0.000 HD
ENDBRANCH  17  18
ENDBRANCH  11  12
ENDBRANCH   1  11
TORSDOF 11
ENDMDL
MODEL 3
REMARK VINA RESULT:      -6.2      1.695      1.984
REMARK  Name = 
REMARK  12 active torsions:
REMARK  status: ('A' for Active; 'I' for Inactive)
REMARK    1  A    between atoms: C_1  and  C_2
REMARK    2  A    between atoms: C_2  and  C_3
REMARK    3  A    between atoms: C_3  and  C_4
REMARK    4  A    between atoms: C_4  and  C_5
REMARK    5  A    between atoms: C_5  and  C_6
REMARK    6  A    between atoms: C_6  and  C_7
REMARK    7  A    between atoms: C_7  and  C_8
REMARK    8  A    between atoms: C_8  and  C_9
REMARK    9  A    between atoms: C_9  and  C_10
REMARK   10  A    between atoms: C_10  and  O_11
REMARK   11  A    between atoms: O_11  and  C_12
REMARK   12  A    between atoms: C_17  and  N_18
REMARK                            x       y       z     vdW  Elec       q    Type
REMARK                         _______ _______ _______ _____ _____    ______ ____
ROOT
ATOM      1  C   UNL     1       6.273   5.212  18.979  0.00  0.00    +0.000 C 
ENDROOT
BRANCH   1   2
ATOM      2  C   UNL     1       6.834   4.525  17.736  0.00  0.00    +0.000 C 
BRANCH   2   3
ATOM      3  C   UNL     1       7.069   5.503  16.578  0.00  0.00    +0.000 C 
BRANCH   3   4
ATOM      4  C   UNL     1       6.072   5.326  15.430  0.00  0.00    +0.000 C 
BRANCH   4   5
ATOM      5  C   UNL     1       6.732   4.736  14.185  0.00  0.00    +0.000 C 
BRANCH   5   6
ATOM      6  C   UNL     1       5.768   3.802  13.455  0.00  0.00    +0.000 C 
BRANCH   6   7
ATOM      7  C   UNL     1       6.353   3.324  12.127  0.00  0.00    +0.000 C 
BRANCH   7   8
ATOM      8  C   UNL     1       5.596   2.105  11.600  0.00  0.00    +0.000 C 
BRANCH   8  10
ATOM      9  C   UNL     1       6.141  -0.333  11.309  0.00  0.00    +0.000 C 
ATOM     10  C   UNL     1       6.549   1.091  10.973  0.00  0.00    +0.000 C 
ENDBRANCH   8  10
ENDBRANCH   7   8
ENDBRANCH   6   7
ENDBRANCH   5   6
ENDBRANCH   4   5
ENDBRANCH   3   4
ENDBRANCH   2   3
ENDBRANCH   1   2
BRANCH   1  11
ATOM     11  O   UNL     1       5.562   4.264  19.778  0.00  0.00    +0.000 OA
BRANCH  11  12
ATOM     12  C   UNL     1       4.360   3.899  19.178  0.00  0.00    +0.000 A 
ATOM     13  N   UNL     1       3.572   4.866  18.650  0.00  0.00    +0.000 NA
ATOM     14  C   UNL     1       2.421   4.475  18.077  0.00  0.00    +0.000 A 
ATOM     15  C   UNL     1       2.023   3.152  17.991  0.00  0.00    +0.000 A 
ATOM     16  C   UNL     1       2.847   2.176  18.549  0.00  0.00    +0.000 A 
ATOM     17  C   UNL     1       4.017   2.538  19.215  0.00  0.00    +0.000 A 
BRANCH  17  18
ATOM     18  N   UNL     1       4.902   1.544  19.671  0.00  0.00    +0.000 N 
ATOM     19  H   UNL     1       5.880   1.805  19.612  0.00  0.00    +0.000 HD
ATOM     20  H   UNL     1       4.702   0.647  19.230  0.00  0.00    +0.000 HD
ENDBRANCH  17  18
ENDBRANCH  11  12
ENDBRANCH   1  11
TORSDOF 11
ENDMDL
MODEL 4
REMARK VINA RESULT:      -6.2      1.387      1.852
REMARK  Name = 
REMARK  12 active torsions:
REMARK  status: ('A' for Active; 'I' for Inactive)
REMARK    1  A    between atoms: C_1  and  C_2
REMARK    2  A    between atoms: C_2  and  C_3
REMARK    3  A    between atoms: C_3  and  C_4
REMARK    4  A    between atoms: C_4  and  C_5
REMARK    5  A    between atoms: C_5  and  C_6
REMARK    6  A    between atoms: C_6  and  C_7
REMARK    7  A    between atoms: C_7  and  C_8
REMARK    8  A    between atoms: C_8  and  C_9
REMARK    9  A    between atoms: C_9  and  C_10
REMARK   10  A    between atoms: C_10  and  O_11
REMARK   11  A    between atoms: O_11  and  C_12
REMARK   12  A    between atoms: C_17  and  N_18
REMARK                            x       y       z     vdW  Elec       q    Type
REMARK                         _______ _______ _______ _____ _____    ______ ____
ROOT
ATOM      1  C   UNL     1       4.681   3.981  17.398  0.00  0.00    +0.000 C 
ENDROOT
BRANCH   1   2
ATOM      2  C   UNL     1       4.952   5.480  17.287  0.00  0.00    +0.000 C 
BRANCH   2   3
ATOM      3  C   UNL     1       5.920   5.820  16.146  0.00  0.00    +0.000 C 
BRANCH   3   4
ATOM      4  C   UNL     1       6.608   4.587  15.554  0.00  0.00    +0.000 C 
BRANCH   4   5
ATOM      5  C   UNL     1       6.773   4.697  14.040  0.00  0.00    +0.000 C 
BRANCH   5   6
ATOM      6  C   UNL     1       5.672   3.920  13.319  0.00  0.00    +0.000 C 
BRANCH   6   7
ATOM      7  C   UNL     1       6.247   3.017  12.231  0.00  0.00    +0.000 C 
BRANCH   7   8
ATOM      8  C   UNL     1       5.150   2.523  11.288  0.00  0.00    +0.000 C 
BRANCH   8  10
ATOM      9  C   UNL     1       3.262   3.630  10.049  0.00  0.00    +0.000 C 
ATOM     10  C   UNL     1       3.892   3.378  11.409  0.00  0.00    +0.000 C 
ENDBRANCH   8  10
ENDBRANCH   7   8
ENDBRANCH   6   7
ENDBRANCH   5   6
ENDBRANCH   4   5
ENDBRANCH   3   4
ENDBRANCH   2   3
ENDBRANCH   1   2
BRANCH   1  11
ATOM     11  O   UNL     1       4.739   3.578  18.769  0.00  0.00    +0.000 OA
BRANCH  11  12
ATOM     12  C   UNL     1       3.487   3.657  19.371  0.00  0.00    +0.000 A 
ATOM     13  N   UNL     1       3.171   4.766  20.081  0.00  0.00    +0.000 NA
ATOM     14  C   UNL     1       1.952   4.806  20.646  0.00  0.00    +0.000 A 
ATOM     15  C   UNL     1       1.020   3.791  20.522  0.00  0.00    +0.000 A 
ATOM     16  C   UNL     1       1.372   2.656  19.793  0.00  0.00    +0.000 A 
ATOM     17  C   UNL     1       2.649   2.537  19.246  0.00  0.00    +0.000 A 
BRANCH  17  18
ATOM     18  N   UNL     1       2.958   1.446  18.414  0.00  0.00    +0.000 N 
ATOM     19  H   UNL     1       2.592   0.559  18.745  0.00  0.00    +0.000 HD
ATOM     20  H   UNL     1       3.957   1.413  18.212  0.00  0.00    +0.000 HD
ENDBRANCH  17  18
ENDBRANCH  11  12
ENDBRANCH   1  11
TORSDOF 11
ENDMDL
MODEL 5
REMARK VINA RESULT:      -6.2      2.975      7.398
REMARK  Name = 
REMARK  12 active torsions:
REMARK  status: ('A' for Active; 'I' for Inactive)
REMARK    1  A    between atoms: C_1  and  C_2
REMARK    2  A    between atoms: C_2  and  C_3
REMARK    3  A    between atoms: C_3  and  C_4
REMARK    4  A    between atoms: C_4  and  C_5
REMARK    5  A    between atoms: C_5  and  C_6
REMARK    6  A    between atoms: C_6  and  C_7
REMARK    7  A    between atoms: C_7  and  C_8
REMARK    8  A    between atoms: C_8  and  C_9
REMARK    9  A    between atoms: C_9  and  C_10
REMARK   10  A    between atoms: C_10  and  O_11
REMARK   11  A    between atoms: O_11  and  C_12
REMARK   12  A    between atoms: C_17  and  N_18
REMARK                            x       y       z     vdW  Elec       q    Type
REMARK                         _______ _______ _______ _____ _____    ______ ____
ROOT
ATOM      1  C   UNL     1       7.148   4.855  16.745  0.00  0.00    +0.000 C 
ENDROOT
BRANCH   1   2
ATOM      2  C   UNL     1       6.730   5.788  17.880  0.00  0.00    +0.000 C 
BRANCH   2   3
ATOM      3  C   UNL     1       5.345   5.445  18.443  0.00  0.00    +0.000 C 
BRANCH   3   4
ATOM      4  C   UNL     1       5.235   3.998  18.930  0.00  0.00    +0.000 C 
BRANCH   4   5
ATOM      5  C   UNL     1       4.063   3.264  18.282  0.00  0.00    +0.000 C 
BRANCH   5   6
ATOM      6  C   UNL     1       3.253   4.214  17.400  0.00  0.00    +0.000 C 
BRANCH   6   7
ATOM      7  C   UNL     1       1.791   4.273  17.836  0.00  0.00    +0.000 C 
BRANCH   7   8
ATOM      8  C   UNL     1       1.503   3.248  18.933  0.00  0.00    +0.000 C 
BRANCH   8  10
ATOM      9  C   UNL     1       1.850   4.998  20.705  0.00  0.00    +0.000 C 
ATOM     10  C   UNL     1       0.923   3.916  20.176  0.00  0.00    +0.000 C 
ENDBRANCH   8  10
ENDBRANCH   7   8
ENDBRANCH   6   7
ENDBRANCH   5   6
ENDBRANCH   4   5
ENDBRANCH   3   4
ENDBRANCH   2   3
ENDBRANCH   1   2
BRANCH   1  11
ATOM     11  O   UNL     1       7.405   5.615  15.562  0.00  0.00    +0.000 OA
BRANCH  11  12
ATOM     12  C   UNL     1       7.004   4.925  14.422  0.00  0.00    +0.000 A 
ATOM     13  N   UNL     1       5.915   4.123  14.492  0.00  0.00    +0.000 NA
ATOM     14  C   UNL     1       5.557   3.475  13.370  0.00  0.00    +0.000 A 
ATOM     15  C   UNL     1       6.231   3.603  12.167  0.00  0.00    +0.000 A 
ATOM     16  C   UNL     1       7.353   4.428  12.123  0.00  0.00    +0.000 A 
ATOM     17  C   UNL     1       7.805   5.067  13.277  0.00  0.00    +0.000 A 
BRANCH  17  18
ATOM     18  N   UNL     1       8.864   5.989  13.201  0.00  0.00    +0.000 N 
ATOM     19  H   UNL     1       9.712   5.682  13.665  0.00  0.00    +0.000 HD
ATOM     20  H   UNL     1       8.562   6.917  13.496  0.00  0.00    +0.000 HD
ENDBRANCH  17  18
ENDBRANCH  11  12
ENDBRANCH   1  11
TORSDOF 11
ENDMDL
MODEL 6
REMARK VINA RESULT:      -6.1      3.730      6.934
REMARK  Name = 
REMARK  12 active torsions:
REMARK  status: ('A' for Active; 'I' for Inactive)
REMARK    1  A    between atoms: C_1  and  C_2
REMARK    2  A    between atoms: C_2  and  C_3
REMARK    3  A    between atoms: C_3  and  C_4
REMARK    4  A    between atoms: C_4  and  C_5
REMARK    5  A    between atoms: C_5  and  C_6
REMARK    6  A    between atoms: C_6  and  C_7
REMARK    7  A    between atoms: C_7  and  C_8
REMARK    8  A    between atoms: C_8  and  C_9
REMARK    9  A    between atoms: C_9  and  C_10
REMARK   10  A    between atoms: C_10  and  O_11
REMARK   11  A    between atoms: O_11  and  C_12
REMARK   12  A    between atoms: C_17  and  N_18
REMARK                            x       y       z     vdW  Elec       q    Type
REMARK                         _______ _______ _______ _____ _____    ______ ____
ROOT
ATOM      1  C   UNL     1       4.344   3.571  17.624  0.00  0.00    +0.000 C 
ENDROOT
BRANCH   1   2
ATOM      2  C   UNL     1       2.948   3.687  17.015  0.00  0.00    +0.000 C 
BRANCH   2   3
ATOM      3  C   UNL     1       2.048   4.659  17.789  0.00  0.00    +0.000 C 
BRANCH   3   4
ATOM      4  C   UNL     1       2.713   6.012  18.056  0.00  0.00    +0.000 C 
BRANCH   4   5
ATOM      5  C   UNL     1       2.870   6.287  19.550  0.00  0.00    +0.000 C 
BRANCH   5   6
ATOM      6  C   UNL     1       1.693   5.703  20.332  0.00  0.00    +0.000 C 
BRANCH   6   7
ATOM      7  C   UNL     1       2.142   4.574  21.256  0.00  0.00    +0.000 C 
BRANCH   7   8
ATOM      8  C   UNL     1       1.258   3.338  21.086  0.00  0.00    +0.000 C 
BRANCH   8  10
ATOM      9  C   UNL     1       3.536   2.370  20.641  0.00  0.00    +0.000 C 
ATOM     10  C   UNL     1       2.038   2.181  20.468  0.00  0.00    +0.000 C 
ENDBRANCH   8  10
ENDBRANCH   7   8
ENDBRANCH   6   7
ENDBRANCH   5   6
ENDBRANCH   4   5
ENDBRANCH   3   4
ENDBRANCH   2   3
ENDBRANCH   1   2
BRANCH   1  11
ATOM     11  O   UNL     1       5.320   4.045  16.692  0.00  0.00    +0.000 OA
BRANCH  11  12
ATOM     12  C   UNL     1       6.175   4.969  17.284  0.00  0.00    +0.000 A 
ATOM     13  N   UNL     1       6.924   4.582  18.344  0.00  0.00    +0.000 NA
ATOM     14  C   UNL     1       7.740   5.502  18.888  0.00  0.00    +0.000 A 
ATOM     15  C   UNL     1       7.857   6.796  18.410  0.00  0.00    +0.000 A 
ATOM     16  C   UNL     1       7.069   7.173  17.323  0.00  0.00    +0.000 A 
ATOM     17  C   UNL     1       6.157   6.275  16.768  0.00  0.00    +0.000 A 
BRANCH  17  18
ATOM     18  N   UNL     1       5.453   6.621  15.601  0.00  0.00    +0.000 N 
ATOM     19  H   UNL     1       5.888   6.292  14.745  0.00  0.00    +0.000 HD
ATOM     20  H   UNL     1       5.243   7.618  15.583  0.00  0.00    +0.000 HD
ENDBRANCH  17  18
ENDBRANCH  11  12
ENDBRANCH   1  11
TORSDOF 11
ENDMDL
MODEL 7
REMARK VINA RESULT:      -6.1      3.870      7.264
REMARK  Name = 
REMARK  12 active torsions:
REMARK  status: ('A' for Active; 'I' for Inactive)
REMARK    1  A    between atoms: C_1  and  C_2
REMARK    2  A    between atoms: C_2  and  C_3
REMARK    3  A    between atoms: C_3  and  C_4
REMARK    4  A    between atoms: C_4  and  C_5
REMARK    5  A    between atoms: C_5  and  C_6
REMARK    6  A    between atoms: C_6  and  C_7
REMARK    7  A    between atoms: C_7  and  C_8
REMARK    8  A    between atoms: C_8  and  C_9
REMARK    9  A    between atoms: C_9  and  C_10
REMARK   10  A    between atoms: C_10  and  O_11
REMARK   11  A    between atoms: O_11  and  C_12
REMARK   12  A    between atoms: C_17  and  N_18
REMARK                            x       y       z     vdW  Elec       q    Type
REMARK                         _______ _______ _______ _____ _____    ______ ____
ROOT
ATOM      1  C   UNL     1       4.132   4.279  17.763  0.00  0.00    +0.000 C 
ENDROOT
BRANCH   1   2
ATOM      2  C   UNL     1       3.210   3.160  17.285  0.00  0.00    +0.000 C 
BRANCH   2   3
ATOM      3  C   UNL     1       3.283   1.916  18.179  0.00  0.00    +0.000 C 
BRANCH   3   4
ATOM      4  C   UNL     1       1.957   1.598  18.876  0.00  0.00    +0.000 C 
BRANCH   4   5
ATOM      5  C   UNL     1       0.939   2.724  18.707  0.00  0.00    +0.000 C 
BRANCH   5   6
ATOM      6  C   UNL     1       0.556   3.313  20.065  0.00  0.00    +0.000 C 
BRANCH   6   7
ATOM      7  C   UNL     1       1.707   3.211  21.062  0.00  0.00    +0.000 C 
BRANCH   7   8
ATOM      8  C   UNL     1       2.432   4.550  21.204  0.00  0.00    +0.000 C 
BRANCH   8  10
ATOM      9  C   UNL     1       2.386   6.610  19.763  0.00  0.00    +0.000 C 
ATOM     10  C   UNL     1       1.580   5.699  20.673  0.00  0.00    +0.000 C 
ENDBRANCH   8  10
ENDBRANCH   7   8
ENDBRANCH   6   7
ENDBRANCH   5   6
ENDBRANCH   4   5
ENDBRANCH   3   4
ENDBRANCH   2   3
ENDBRANCH   1   2
BRANCH   1  11
ATOM     11  O   UNL     1       5.389   4.195  17.086  0.00  0.00    +0.000 OA
BRANCH  11  12
ATOM     12  C   UNL     1       6.293   5.128  17.583  0.00  0.00    +0.000 A 
ATOM     13  N   UNL     1       7.053   4.798  18.654  0.00  0.00    +0.000 NA
ATOM     14  C   UNL     1       7.916   5.725  19.104  0.00  0.00    +0.000 A 
ATOM     15  C   UNL     1       8.070   6.971  18.521  0.00  0.00    +0.000 A 
ATOM     16  C   UNL     1       7.270   7.291  17.425  0.00  0.00    +0.000 A 
ATOM     17  C   UNL     1       6.311   6.389  16.964  0.00  0.00    +0.000 A 
BRANCH  17  18
ATOM     18  N   UNL     1       5.592   6.669  15.788  0.00  0.00    +0.000 N 
ATOM     19  H   UNL     1       5.268   7.628  15.722  0.00  0.00    +0.000 HD
ATOM     20  H   UNL     1       4.848   5.987  15.645  0.00  0.00    +0.000 HD
ENDBRANCH  17  18
ENDBRANCH  11  12
ENDBRANCH   1  11
TORSDOF 11
ENDMDL
MODEL 8
REMARK VINA RESULT:      -6.1      1.625      2.376
REMARK  Name = 
REMARK  12 active torsions:
REMARK  status: ('A' for Active; 'I' for Inactive)
REMARK    1  A    between atoms: C_1  and  C_2
REMARK    2  A    between atoms: C_2  and  C_3
REMARK    3  A    between atoms: C_3  and  C_4
REMARK    4  A    between atoms: C_4  and  C_5
REMARK    5  A    between atoms: C_5  and  C_6
REMARK    6  A    between atoms: C_6  and  C_7
REMARK    7  A    between atoms: C_7  and  C_8
REMARK    8  A    between atoms: C_8  and  C_9
REMARK    9  A    between atoms: C_9  and  C_10
REMARK   10  A    between atoms: C_10  and  O_11
REMARK   11  A    between atoms: O_11  and  C_12
REMARK   12  A    between atoms: C_17  and  N_18
REMARK                            x       y       z     vdW  Elec       q    Type
REMARK                         _______ _______ _______ _____ _____    ______ ____
ROOT
ATOM      1  C   UNL     1       3.751   6.526  17.788  0.00  0.00    +0.000 C 
ENDROOT
BRANCH   1   2
ATOM      2  C   UNL     1       5.068   6.855  17.089  0.00  0.00    +0.000 C 
BRANCH   2   3
ATOM      3  C   UNL     1       5.280   6.029  15.814  0.00  0.00    +0.000 C 
BRANCH   3   4
ATOM      4  C   UNL     1       5.156   4.521  16.047  0.00  0.00    +0.000 C 
BRANCH   4   5
ATOM      5  C   UNL     1       6.156   3.729  15.206  0.00  0.00    +0.000 C 
BRANCH   5   6
ATOM      6  C   UNL     1       6.658   4.569  14.033  0.00  0.00    +0.000 C 
BRANCH   6   7
ATOM      7  C   UNL     1       6.378   3.885  12.696  0.00  0.00    +0.000 C 
BRANCH   7   8
ATOM      8  C   UNL     1       4.930   3.402  12.618  0.00  0.00    +0.000 C 
BRANCH   8  10
ATOM      9  C   UNL     1       3.517   3.716  10.561  0.00  0.00    +0.000 C 
ATOM     10  C   UNL     1       4.597   2.877  11.225  0.00  0.00    +0.000 C 
ENDBRANCH   8  10
ENDBRANCH   7   8
ENDBRANCH   6   7
ENDBRANCH   5   6
ENDBRANCH   4   5
ENDBRANCH   3   4
ENDBRANCH   2   3
ENDBRANCH   1   2
BRANCH   1  11
ATOM     11  O   UNL     1       4.012   5.911  19.051  0.00  0.00    +0.000 OA
BRANCH  11  12
ATOM     12  C   UNL     1       3.055   4.946  19.350  0.00  0.00    +0.000 A 
ATOM     13  N   UNL     1       3.156   3.724  18.774  0.00  0.00    +0.000 NA
ATOM     14  C   UNL     1       2.214   2.818  19.089  0.00  0.00    +0.000 A 
ATOM     15  C   UNL     1       1.177   3.070  19.971  0.00  0.00    +0.000 A 
ATOM     16  C   UNL     1       1.090   4.338  20.544  0.00  0.00    +0.000 A 
ATOM     17  C   UNL     1       2.003   5.333  20.196  0.00  0.00    +0.000 A 
BRANCH  17  18
ATOM     18  N   UNL     1       1.982   6.570  20.865  0.00  0.00    +0.000 N 
ATOM     19  H   UNL     1       2.079   6.495  21.872  0.00  0.00    +0.000 HD
ATOM     20  H   UNL     1       1.175   7.124  20.583  0.00  0.00    +0.000 HD
ENDBRANCH  17  18
ENDBRANCH  11  12
ENDBRANCH   1  11
TORSDOF 11
ENDMDL
MODEL 9
REMARK VINA RESULT:      -6.0      0.964      1.076
REMARK  Name = 
REMARK  12 active torsions:
REMARK  status: ('A' for Active; 'I' for Inactive)
REMARK    1  A    between atoms: C_1  and  C_2
REMARK    2  A    between atoms: C_2  and  C_3
REMARK    3  A    between atoms: C_3  and  C_4
REMARK    4  A    between atoms: C_4  and  C_5
REMARK    5  A    between atoms: C_5  and  C_6
REMARK    6  A    between atoms: C_6  and  C_7
REMARK    7  A    between atoms: C_7  and  C_8
REMARK    8  A    between atoms: C_8  and  C_9
REMARK    9  A    between atoms: C_9  and  C_10
REMARK   10  A    between atoms: C_10  and  O_11
REMARK   11  A    between atoms: O_11  and  C_12
REMARK   12  A    between atoms: C_17  and  N_18
REMARK                            x       y       z     vdW  Elec       q    Type
REMARK                         _______ _______ _______ _____ _____    ______ ____
ROOT
ATOM      1  C   UNL     1       4.070   5.025  17.493  0.00  0.00    +0.000 C 
ENDROOT
BRANCH   1   2
ATOM      2  C   UNL     1       4.222   6.411  16.871  0.00  0.00    +0.000 C 
BRANCH   2   3
ATOM      3  C   UNL     1       5.375   6.480  15.861  0.00  0.00    +0.000 C 
BRANCH   3   4
ATOM      4  C   UNL     1       6.590   5.648  16.278  0.00  0.00    +0.000 C 
BRANCH   4   5
ATOM      5  C   UNL     1       7.090   4.756  15.143  0.00  0.00    +0.000 C 
BRANCH   5   6
ATOM      6  C   UNL     1       5.936   4.359  14.222  0.00  0.00    +0.000 C 
BRANCH   6   7
ATOM      7  C   UNL     1       6.444   3.672  12.956  0.00  0.00    +0.000 C 
BRANCH   7   8
ATOM      8  C   UNL     1       5.282   3.159  12.105  0.00  0.00    +0.000 C 
BRANCH   8  10
ATOM      9  C   UNL     1       7.108   1.822  11.009  0.00  0.00    +0.000 C 
ATOM     10  C   UNL     1       5.643   1.850  11.409  0.00  0.00    +0.000 C 
ENDBRANCH   8  10
ENDBRANCH   7   8
ENDBRANCH   6   7
ENDBRANCH   5   6
ENDBRANCH   4   5
ENDBRANCH   3   4
ENDBRANCH   2   3
ENDBRANCH   1   2
BRANCH   1  11
ATOM     11  O   UNL     1       4.283   5.100  18.904  0.00  0.00    +0.000 OA
BRANCH  11  12
ATOM     12  C   UNL     1       3.272   4.449  19.603  0.00  0.00    +0.000 A 
ATOM     13  N   UNL     1       2.097   5.093  19.807  0.00  0.00    +0.000 NA
ATOM     14  C   UNL     1       1.144   4.431  20.484  0.00  0.00    +0.000 A 
ATOM     15  C   UNL     1       1.301   3.139  20.957  0.00  0.00    +0.000 A 
ATOM     16  C   UNL     1       2.521   2.501  20.742  0.00  0.00    +0.000 A 
ATOM     17  C   UNL     1       3.566   3.171  20.105  0.00  0.00    +0.000 A 
BRANCH  17  18
ATOM     18  N   UNL     1       4.750   2.484  19.786  0.00  0.00    +0.000 N 
ATOM     19  H   UNL     1       4.688   1.927  18.940  0.00  0.00    +0.000 HD
ATOM     20  H   UNL     1       5.092   1.953  20.586  0.00  0.00    +0.000 HD
ENDBRANCH  17  18
ENDBRANCH  11  12
ENDBRANCH   1  11
TORSDOF 11
ENDMDL
