MODEL 1
REMARK VINA RESULT:      -7.1      0.000      0.000
REMARK  Name = 
REMARK  7 active torsions:
REMARK  status: ('A' for Active; 'I' for Inactive)
REMARK    1  A    between atoms: C_10  and  C_11
REMARK    2  A    between atoms: C_11  and  C_12
REMARK    3  A    between atoms: N_14  and  C_15
REMARK    4  A    between atoms: N_14  and  C_18
REMARK    5  A    between atoms: C_15  and  C_16
REMARK    6  A    between atoms: C_16  and  O_17
REMARK    7  A    between atoms: C_18  and  C_19
REMARK                            x       y       z     vdW  Elec       q    Type
REMARK                         _______ _______ _______ _____ _____    ______ ____
ROOT
ATOM      1  O   UNL     1      -2.836  12.207  19.808  0.00  0.00    +0.000 OA
ATOM      2  C   UNL     1      -1.808  12.721  20.220  0.00  0.00    +0.000 C 
ATOM      3  C   UNL     1      -1.210  12.515  21.589  0.00  0.00    +0.000 C 
ATOM      4  C   UNL     1      -1.587  11.113  22.054  0.00  0.00    +0.000 C 
ATOM      5  C   UNL     1      -0.770  10.631  23.253  0.00  0.00    +0.000 C 
ATOM      6  C   UNL     1      -0.333   9.175  23.069  0.00  0.00    +0.000 C 
ATOM      7  C   UNL     1       0.831   9.102  22.123  0.00  0.00    +0.000 C 
ATOM      8  C   UNL     1       0.804   8.560  20.895  0.00  0.00    +0.000 C 
ATOM      9  C   UNL     1       2.031   8.512  20.030  0.00  0.00    +0.000 C 
ATOM     10  C   UNL     1       1.798   8.725  18.520  0.00  0.00    +0.000 C 
ATOM     11  C   UNL     1       1.805  10.203  18.130  0.00  0.00    +0.000 C 
ATOM     12  O   UNL     1       2.802  10.794  17.730  0.00  0.00    +0.000 OA
ATOM     13  N   UNL     1       0.601  10.863  18.261  0.00  0.00    +0.000 N 
ATOM     14  C   UNL     1       0.598  12.309  18.103  0.00  0.00    +0.000 C 
ATOM     15  C   UNL     1      -0.785  12.955  18.128  0.00  0.00    +0.000 C 
ATOM     16  O   UNL     1      -0.971  13.460  19.461  0.00  0.00    +0.000 OA
ATOM     17  H   UNL     1      -0.228  10.364  18.555  0.00  0.00    +0.000 HD
ENDROOT
BRANCH  10  18
ATOM     18  C   UNL     1       2.845   7.938  17.698  0.00  0.00    +0.000 C 
BRANCH  18  19
ATOM     19  C   UNL     1       2.645   6.420  17.720  0.00  0.00    +0.000 C 
ATOM     20  O   UNL     1       1.526   5.920  17.594  0.00  0.00    +0.000 OA
ATOM     21  N   UNL     1       3.758   5.601  17.864  0.00  0.00    +0.000 N 
BRANCH  21  22
ATOM     22  C   UNL     1       5.154   6.057  17.799  0.00  0.00    +0.000 C 
BRANCH  22  23
ATOM     23  C   UNL     1       6.152   4.916  17.531  0.00  0.00    +0.000 C 
BRANCH  23  24
ATOM     24  O   UNL     1       7.086   4.757  18.593  0.00  0.00    +0.000 OA
ATOM     25  H   UNL     1       7.866   4.310  18.219  0.00  0.00    +0.000 HD
ENDBRANCH  23  24
ENDBRANCH  22  23
ENDBRANCH  21  22
BRANCH  21  26
ATOM     26  C   UNL     1       3.510   4.158  17.886  0.00  0.00    +0.000 C 
BRANCH  26  27
ATOM     27  C   UNL     1       2.760   3.666  19.104  0.00  0.00    +0.000 A 
ATOM     28  C   UNL     1       3.032   4.195  20.377  0.00  0.00    +0.000 A 
ATOM     29  C   UNL     1       2.255   3.831  21.483  0.00  0.00    +0.000 A 
ATOM     30  C   UNL     1       1.203   2.932  21.331  0.00  0.00    +0.000 A 
ATOM     31  C   UNL     1       0.953   2.366  20.082  0.00  0.00    +0.000 A 
ATOM     32  C   UNL     1       1.732   2.724  18.977  0.00  0.00    +0.000 A 
ENDBRANCH  26  27
ENDBRANCH  21  26
ENDBRANCH  18  19
ENDBRANCH  10  18
TORSDOF 7
ENDMDL
MODEL 2
REMARK VINA RESULT:      -7.0      2.230      3.603
REMARK  Name = 
REMARK  7 active torsions:
REMARK  status: ('A' for Active; 'I' for Inactive)
REMARK    1  A    between atoms: C_10  and  C_11
REMARK    2  A    between atoms: C_11  and  C_12
REMARK    3  A    between atoms: N_14  and  C_15
REMARK    4  A    between atoms: N_14  and  C_18
REMARK    5  A    between atoms: C_15  and  C_16
REMARK    6  A    between atoms: C_16  and  O_17
REMARK    7  A    between atoms: C_18  and  C_19
REMARK                            x       y       z     vdW  Elec       q    Type
REMARK                         _______ _______ _______ _____ _____    ______ ____
ROOT
ATOM      1  O   UNL     1      -0.258  14.344  22.830  0.00  0.00    +0.000 OA
ATOM      2  C   UNL     1      -0.850  14.538  21.780  0.00  0.00    +0.000 C 
ATOM      3  C   UNL     1      -0.413  15.481  20.687  0.00  0.00    +0.000 C 
ATOM      4  C   UNL     1       1.110  15.550  20.715  0.00  0.00    +0.000 C 
ATOM      5  C   UNL     1       1.711  16.179  19.458  0.00  0.00    +0.000 C 
ATOM      6  C   UNL     1       2.933  15.388  18.980  0.00  0.00    +0.000 C 
ATOM      7  C   UNL     1       2.492  14.143  18.265  0.00  0.00    +0.000 C 
ATOM      8  C   UNL     1       2.671  12.887  18.704  0.00  0.00    +0.000 C 
ATOM      9  C   UNL     1       2.216  11.701  17.902  0.00  0.00    +0.000 C 
ATOM     10  C   UNL     1       1.655  10.516  18.715  0.00  0.00    +0.000 C 
ATOM     11  C   UNL     1       0.162  10.661  19.006  0.00  0.00    +0.000 C 
ATOM     12  O   UNL     1      -0.716  10.174  18.302  0.00  0.00    +0.000 OA
ATOM     13  N   UNL     1      -0.161  11.394  20.128  0.00  0.00    +0.000 N 
ATOM     14  C   UNL     1      -1.559  11.736  20.337  0.00  0.00    +0.000 C 
ATOM     15  C   UNL     1      -1.860  12.431  21.663  0.00  0.00    +0.000 C 
ATOM     16  O   UNL     1      -1.931  13.837  21.376  0.00  0.00    +0.000 OA
ATOM     17  H   UNL     1       0.566  11.762  20.727  0.00  0.00    +0.000 HD
ENDROOT
BRANCH  10  18
ATOM     18  C   UNL     1       1.944   9.182  17.988  0.00  0.00    +0.000 C 
BRANCH  18  19
ATOM     19  C   UNL     1       2.278   8.018  18.924  0.00  0.00    +0.000 C 
ATOM     20  O   UNL     1       1.744   7.913  20.029  0.00  0.00    +0.000 OA
ATOM     21  N   UNL     1       3.186   7.056  18.499  0.00  0.00    +0.000 N 
BRANCH  21  22
ATOM     22  C   UNL     1       3.718   6.945  17.133  0.00  0.00    +0.000 C 
BRANCH  22  23
ATOM     23  C   UNL     1       5.215   6.590  17.094  0.00  0.00    +0.000 C 
BRANCH  23  24
ATOM     24  O   UNL     1       5.440   5.245  16.687  0.00  0.00    +0.000 OA
ATOM     25  H   UNL     1       6.393   5.074  16.785  0.00  0.00    +0.000 HD
ENDBRANCH  23  24
ENDBRANCH  22  23
ENDBRANCH  21  22
BRANCH  21  26
ATOM     26  C   UNL     1       3.475   5.969  19.436  0.00  0.00    +0.000 C 
BRANCH  26  27
ATOM     27  C   UNL     1       2.463   4.846  19.430  0.00  0.00    +0.000 A 
ATOM     28  C   UNL     1       2.142   4.174  18.239  0.00  0.00    +0.000 A 
ATOM     29  C   UNL     1       1.300   3.056  18.252  0.00  0.00    +0.000 A 
ATOM     30  C   UNL     1       0.766   2.600  19.454  0.00  0.00    +0.000 A 
ATOM     31  C   UNL     1       1.040   3.285  20.636  0.00  0.00    +0.000 A 
ATOM     32  C   UNL     1       1.876   4.406  20.624  0.00  0.00    +0.000 A 
ENDBRANCH  26  27
ENDBRANCH  21  26
ENDBRANCH  18  19
ENDBRANCH  10  18
TORSDOF 7
ENDMDL
MODEL 3
REMARK VINA RESULT:      -6.9      2.009      8.747
REMARK  Name = 
REMARK  7 active torsions:
REMARK  status: ('A' for Active; 'I' for Inactive)
REMARK    1  A    between atoms: C_10  and  C_11
REMARK    2  A    between atoms: C_11  and  C_12
REMARK    3  A    between atoms: N_14  and  C_15
REMARK    4  A    between atoms: N_14  and  C_18
REMARK    5  A    between atoms: C_15  and  C_16
REMARK    6  A    between atoms: C_16  and  O_17
REMARK    7  A    between atoms: C_18  and  C_19
REMARK                            x       y       z     vdW  Elec       q    Type
REMARK                         _______ _______ _______ _____ _____    ______ ____
ROOT
ATOM      1  O   UNL     1       6.324   4.412  18.943  0.00  0.00    +0.000 OA
ATOM      2  C   UNL     1       5.438   4.195  18.132  0.00  0.00    +0.000 C 
ATOM      3  C   UNL     1       4.282   3.246  18.328  0.00  0.00    +0.000 C 
ATOM      4  C   UNL     1       3.965   3.200  19.818  0.00  0.00    +0.000 C 
ATOM      5  C   UNL     1       2.610   2.565  20.131  0.00  0.00    +0.000 C 
ATOM      6  C   UNL     1       1.861   3.369  21.198  0.00  0.00    +0.000 C 
ATOM      7  C   UNL     1       1.253   4.598  20.585  0.00  0.00    +0.000 C 
ATOM      8  C   UNL     1       1.630   5.862  20.837  0.00  0.00    +0.000 C 
ATOM      9  C   UNL     1       0.941   7.030  20.191  0.00  0.00    +0.000 C 
ATOM     10  C   UNL     1       1.850   8.217  19.807  0.00  0.00    +0.000 C 
ATOM     11  C   UNL     1       2.473   8.053  18.422  0.00  0.00    +0.000 C 
ATOM     12  O   UNL     1       1.982   8.517  17.398  0.00  0.00    +0.000 OA
ATOM     13  N   UNL     1       3.646   7.329  18.373  0.00  0.00    +0.000 N 
ATOM     14  C   UNL     1       4.168   6.967  17.065  0.00  0.00    +0.000 C 
ATOM     15  C   UNL     1       5.533   6.285  17.085  0.00  0.00    +0.000 C 
ATOM     16  O   UNL     1       5.282   4.874  16.976  0.00  0.00    +0.000 OA
ATOM     17  H   UNL     1       4.067   6.979  19.224  0.00  0.00    +0.000 HD
ENDROOT
BRANCH  10  18
ATOM     18  C   UNL     1       1.065   9.546  19.900  0.00  0.00    +0.000 C 
BRANCH  18  19
ATOM     19  C   UNL     1       0.688   9.952  21.327  0.00  0.00    +0.000 C 
ATOM     20  O   UNL     1       1.375   9.613  22.291  0.00  0.00    +0.000 OA
ATOM     21  N   UNL     1      -0.443  10.736  21.523  0.00  0.00    +0.000 N 
BRANCH  21  22
ATOM     22  C   UNL     1      -1.213  11.386  20.453  0.00  0.00    +0.000 C 
BRANCH  22  23
ATOM     23  C   UNL     1      -0.449  12.532  19.767  0.00  0.00    +0.000 C 
BRANCH  23  24
ATOM     24  O   UNL     1      -1.235  13.187  18.778  0.00  0.00    +0.000 OA
ATOM     25  H   UNL     1      -0.843  14.069  18.643  0.00  0.00    +0.000 HD
ENDBRANCH  23  24
ENDBRANCH  22  23
ENDBRANCH  21  22
BRANCH  21  26
ATOM     26  C   UNL     1      -0.762  11.089  22.908  0.00  0.00    +0.000 C 
BRANCH  26  27
ATOM     27  C   UNL     1      -1.623  12.324  23.061  0.00  0.00    +0.000 A 
ATOM     28  C   UNL     1      -1.045  13.604  23.078  0.00  0.00    +0.000 A 
ATOM     29  C   UNL     1      -1.848  14.751  23.095  0.00  0.00    +0.000 A 
ATOM     30  C   UNL     1      -3.236  14.630  23.099  0.00  0.00    +0.000 A 
ATOM     31  C   UNL     1      -3.819  13.365  23.128  0.00  0.00    +0.000 A 
ATOM     32  C   UNL     1      -3.018  12.219  23.118  0.00  0.00    +0.000 A 
ENDBRANCH  26  27
ENDBRANCH  21  26
ENDBRANCH  18  19
ENDBRANCH  10  18
TORSDOF 7
ENDMDL
MODEL 4
REMARK VINA RESULT:      -6.9      2.083      8.797
REMARK  Name = 
REMARK  7 active torsions:
REMARK  status: ('A' for Active; 'I' for Inactive)
REMARK    1  A    between atoms: C_10  and  C_11
REMARK    2  A    between atoms: C_11  and  C_12
REMARK    3  A    between atoms: N_14  and  C_15
REMARK    4  A    between atoms: N_14  and  C_18
REMARK    5  A    between atoms: C_15  and  C_16
REMARK    6  A    between atoms: C_16  and  O_17
REMARK    7  A    between atoms: C_18  and  C_19
REMARK                            x       y       z     vdW  Elec       q    Type
REMARK                         _______ _______ _______ _____ _____    ______ ____
ROOT
ATOM      1  O   UNL     1       6.182   4.192  18.825  0.00  0.00    +0.000 OA
ATOM      2  C   UNL     1       5.279   4.039  18.017  0.00  0.00    +0.000 C 
ATOM      3  C   UNL     1       4.087   3.134  18.193  0.00  0.00    +0.000 C 
ATOM      4  C   UNL     1       3.781   3.054  19.685  0.00  0.00    +0.000 C 
ATOM      5  C   UNL     1       2.403   2.467  19.990  0.00  0.00    +0.000 C 
ATOM      6  C   UNL     1       1.698   3.266  21.090  0.00  0.00    +0.000 C 
ATOM      7  C   UNL     1       1.138   4.539  20.522  0.00  0.00    +0.000 C 
ATOM      8  C   UNL     1       1.570   5.777  20.811  0.00  0.00    +0.000 C 
ATOM      9  C   UNL     1       0.926   6.994  20.210  0.00  0.00    +0.000 C 
ATOM     10  C   UNL     1       1.880   8.153  19.854  0.00  0.00    +0.000 C 
ATOM     11  C   UNL     1       2.483   8.008  18.458  0.00  0.00    +0.000 C 
ATOM     12  O   UNL     1       2.004   8.525  17.455  0.00  0.00    +0.000 OA
ATOM     13  N   UNL     1       3.624   7.237  18.375  0.00  0.00    +0.000 N 
ATOM     14  C   UNL     1       4.119   6.896  17.051  0.00  0.00    +0.000 C 
ATOM     15  C   UNL     1       5.455   6.156  17.035  0.00  0.00    +0.000 C 
ATOM     16  O   UNL     1       5.143   4.761  16.884  0.00  0.00    +0.000 OA
ATOM     17  H   UNL     1       4.038   6.843  19.210  0.00  0.00    +0.000 HD
ENDROOT
BRANCH  10  18
ATOM     18  C   UNL     1       1.153   9.510  19.997  0.00  0.00    +0.000 C 
BRANCH  18  19
ATOM     19  C   UNL     1       0.524   9.742  21.374  0.00  0.00    +0.000 C 
ATOM     20  O   UNL     1       0.841   9.055  22.346  0.00  0.00    +0.000 OA
ATOM     21  N   UNL     1      -0.405  10.764  21.522  0.00  0.00    +0.000 N 
BRANCH  21  22
ATOM     22  C   UNL     1      -0.701  11.787  20.508  0.00  0.00    +0.000 C 
BRANCH  22  23
ATOM     23  C   UNL     1      -1.821  11.370  19.537  0.00  0.00    +0.000 C 
BRANCH  23  24
ATOM     24  O   UNL     1      -2.018  12.326  18.500  0.00  0.00    +0.000 OA
ATOM     25  H   UNL     1      -1.486  12.032  17.739  0.00  0.00    +0.000 HD
ENDBRANCH  23  24
ENDBRANCH  22  23
ENDBRANCH  21  22
BRANCH  21  26
ATOM     26  C   UNL     1      -0.981  10.937  22.856  0.00  0.00    +0.000 C 
BRANCH  26  27
ATOM     27  C   UNL     1      -1.729  12.237  23.057  0.00  0.00    +0.000 A 
ATOM     28  C   UNL     1      -3.129  12.249  23.174  0.00  0.00    +0.000 A 
ATOM     29  C   UNL     1      -3.810  13.432  23.483  0.00  0.00    +0.000 A 
ATOM     30  C   UNL     1      -3.101  14.616  23.672  0.00  0.00    +0.000 A 
ATOM     31  C   UNL     1      -1.717  14.626  23.512  0.00  0.00    +0.000 A 
ATOM     32  C   UNL     1      -1.035  13.445  23.198  0.00  0.00    +0.000 A 
ENDBRANCH  26  27
ENDBRANCH  21  26
ENDBRANCH  18  19
ENDBRANCH  10  18
TORSDOF 7
ENDMDL
MODEL 5
REMARK VINA RESULT:      -6.8      2.349      8.198
REMARK  Name = 
REMARK  7 active torsions:
REMARK  status: ('A' for Active; 'I' for Inactive)
REMARK    1  A    between atoms: C_10  and  C_11
REMARK    2  A    between atoms: C_11  and  C_12
REMARK    3  A    between atoms: N_14  and  C_15
REMARK    4  A    between atoms: N_14  and  C_18
REMARK    5  A    between atoms: C_15  and  C_16
REMARK    6  A    between atoms: C_16  and  O_17
REMARK    7  A    between atoms: C_18  and  C_19
REMARK                            x       y       z     vdW  Elec       q    Type
REMARK                         _______ _______ _______ _____ _____    ______ ____
ROOT
ATOM      1  O   UNL     1       5.844   3.928  18.249  0.00  0.00    +0.000 OA
ATOM      2  C   UNL     1       4.856   3.942  17.531  0.00  0.00    +0.000 C 
ATOM      3  C   UNL     1       3.613   3.112  17.731  0.00  0.00    +0.000 C 
ATOM      4  C   UNL     1       3.451   2.873  19.228  0.00  0.00    +0.000 C 
ATOM      5  C   UNL     1       2.064   2.356  19.611  0.00  0.00    +0.000 C 
ATOM      6  C   UNL     1       1.542   3.065  20.865  0.00  0.00    +0.000 C 
ATOM      7  C   UNL     1       1.040   4.435  20.510  0.00  0.00    +0.000 C 
ATOM      8  C   UNL     1       1.603   5.593  20.889  0.00  0.00    +0.000 C 
ATOM      9  C   UNL     1       1.010   6.919  20.504  0.00  0.00    +0.000 C 
ATOM     10  C   UNL     1       2.021   8.039  20.182  0.00  0.00    +0.000 C 
ATOM     11  C   UNL     1       2.469   8.022  18.721  0.00  0.00    +0.000 C 
ATOM     12  O   UNL     1       1.939   8.691  17.841  0.00  0.00    +0.000 OA
ATOM     13  N   UNL     1       3.525   7.185  18.428  0.00  0.00    +0.000 N 
ATOM     14  C   UNL     1       3.856   6.973  17.028  0.00  0.00    +0.000 C 
ATOM     15  C   UNL     1       5.115   6.145  16.784  0.00  0.00    +0.000 C 
ATOM     16  O   UNL     1       4.671   4.805  16.509  0.00  0.00    +0.000 OA
ATOM     17  H   UNL     1       3.984   6.662  19.163  0.00  0.00    +0.000 HD
ENDROOT
BRANCH  10  18
ATOM     18  C   UNL     1       1.431   9.419  20.557  0.00  0.00    +0.000 C 
BRANCH  18  19
ATOM     19  C   UNL     1      -0.089   9.513  20.399  0.00  0.00    +0.000 C 
ATOM     20  O   UNL     1      -0.848   8.835  21.094  0.00  0.00    +0.000 OA
ATOM     21  N   UNL     1      -0.611  10.399  19.464  0.00  0.00    +0.000 N 
BRANCH  21  22
ATOM     22  C   UNL     1       0.167  11.413  18.738  0.00  0.00    +0.000 C 
BRANCH  22  23
ATOM     23  C   UNL     1       0.105  12.805  19.392  0.00  0.00    +0.000 C 
BRANCH  23  24
ATOM     24  O   UNL     1      -0.874  13.642  18.784  0.00  0.00    +0.000 OA
ATOM     25  H   UNL     1      -1.741  13.230  18.951  0.00  0.00    +0.000 HD
ENDBRANCH  23  24
ENDBRANCH  22  23
ENDBRANCH  21  22
BRANCH  21  26
ATOM     26  C   UNL     1      -2.070  10.444  19.348  0.00  0.00    +0.000 C 
BRANCH  26  27
ATOM     27  C   UNL     1      -2.587  10.557  17.931  0.00  0.00    +0.000 A 
ATOM     28  C   UNL     1      -2.011   9.803  16.895  0.00  0.00    +0.000 A 
ATOM     29  C   UNL     1      -2.566   9.812  15.610  0.00  0.00    +0.000 A 
ATOM     30  C   UNL     1      -3.698  10.579  15.345  0.00  0.00    +0.000 A 
ATOM     31  C   UNL     1      -4.251  11.366  16.353  0.00  0.00    +0.000 A 
ATOM     32  C   UNL     1      -3.694  11.362  17.637  0.00  0.00    +0.000 A 
ENDBRANCH  26  27
ENDBRANCH  21  26
ENDBRANCH  18  19
ENDBRANCH  10  18
TORSDOF 7
ENDMDL
MODEL 6
REMARK VINA RESULT:      -6.7      2.616      4.342
REMARK  Name = 
REMARK  7 active torsions:
REMARK  status: ('A' for Active; 'I' for Inactive)
REMARK    1  A    between atoms: C_10  and  C_11
REMARK    2  A    between atoms: C_11  and  C_12
REMARK    3  A    between atoms: N_14  and  C_15
REMARK    4  A    between atoms: N_14  and  C_18
REMARK    5  A    between atoms: C_15  and  C_16
REMARK    6  A    between atoms: C_16  and  O_17
REMARK    7  A    between atoms: C_18  and  C_19
REMARK                            x       y       z     vdW  Elec       q    Type
REMARK                         _______ _______ _______ _____ _____    ______ ____
ROOT
ATOM      1  O   UNL     1      -6.317  11.026  19.841  0.00  0.00    +0.000 OA
ATOM      2  C   UNL     1      -5.812  12.106  19.576  0.00  0.00    +0.000 C 
ATOM      3  C   UNL     1      -5.602  13.239  20.549  0.00  0.00    +0.000 C 
ATOM      4  C   UNL     1      -5.396  12.631  21.932  0.00  0.00    +0.000 C 
ATOM      5  C   UNL     1      -4.826  13.620  22.949  0.00  0.00    +0.000 C 
ATOM      6  C   UNL     1      -3.728  12.965  23.794  0.00  0.00    +0.000 C 
ATOM      7  C   UNL     1      -2.451  12.889  23.008  0.00  0.00    +0.000 C 
ATOM      8  C   UNL     1      -1.873  11.759  22.569  0.00  0.00    +0.000 C 
ATOM      9  C   UNL     1      -0.577  11.782  21.809  0.00  0.00    +0.000 C 
ATOM     10  C   UNL     1      -0.445  10.746  20.674  0.00  0.00    +0.000 C 
ATOM     11  C   UNL     1      -1.018  11.252  19.351  0.00  0.00    +0.000 C 
ATOM     12  O   UNL     1      -0.345  11.804  18.487  0.00  0.00    +0.000 OA
ATOM     13  N   UNL     1      -2.372  11.060  19.171  0.00  0.00    +0.000 N 
ATOM     14  C   UNL     1      -3.004  11.702  18.030  0.00  0.00    +0.000 C 
ATOM     15  C   UNL     1      -4.471  11.337  17.819  0.00  0.00    +0.000 C 
ATOM     16  O   UNL     1      -5.241  12.408  18.391  0.00  0.00    +0.000 OA
ATOM     17  H   UNL     1      -2.917  10.570  19.869  0.00  0.00    +0.000 HD
ENDROOT
BRANCH  10  18
ATOM     18  C   UNL     1       1.032  10.322  20.503  0.00  0.00    +0.000 C 
BRANCH  18  19
ATOM     19  C   UNL     1       1.324   8.882  20.934  0.00  0.00    +0.000 C 
ATOM     20  O   UNL     1       1.301   8.552  22.120  0.00  0.00    +0.000 OA
ATOM     21  N   UNL     1       1.598   7.934  19.956  0.00  0.00    +0.000 N 
BRANCH  21  22
ATOM     22  C   UNL     1       1.440   8.145  18.510  0.00  0.00    +0.000 C 
BRANCH  22  23
ATOM     23  C   UNL     1       2.536   9.040  17.905  0.00  0.00    +0.000 C 
BRANCH  23  24
ATOM     24  O   UNL     1       2.004  10.226  17.325  0.00  0.00    +0.000 OA
ATOM     25  H   UNL     1       1.850  10.853  18.055  0.00  0.00    +0.000 HD
ENDBRANCH  23  24
ENDBRANCH  22  23
ENDBRANCH  21  22
BRANCH  21  26
ATOM     26  C   UNL     1       1.878   6.574  20.423  0.00  0.00    +0.000 C 
BRANCH  26  27
ATOM     27  C   UNL     1       2.514   5.671  19.389  0.00  0.00    +0.000 A 
ATOM     28  C   UNL     1       1.737   4.754  18.662  0.00  0.00    +0.000 A 
ATOM     29  C   UNL     1       2.300   4.006  17.621  0.00  0.00    +0.000 A 
ATOM     30  C   UNL     1       3.646   4.165  17.298  0.00  0.00    +0.000 A 
ATOM     31  C   UNL     1       4.437   5.038  18.042  0.00  0.00    +0.000 A 
ATOM     32  C   UNL     1       3.876   5.781  19.086  0.00  0.00    +0.000 A 
ENDBRANCH  26  27
ENDBRANCH  21  26
ENDBRANCH  18  19
ENDBRANCH  10  18
TORSDOF 7
ENDMDL
MODEL 7
REMARK VINA RESULT:      -6.7      2.461      8.717
REMARK  Name = 
REMARK  7 active torsions:
REMARK  status: ('A' for Active; 'I' for Inactive)
REMARK    1  A    between atoms: C_10  and  C_11
REMARK    2  A    between atoms: C_11  and  C_12
REMARK    3  A    between atoms: N_14  and  C_15
REMARK    4  A    between atoms: N_14  and  C_18
REMARK    5  A    between atoms: C_15  and  C_16
REMARK    6  A    between atoms: C_16  and  O_17
REMARK    7  A    between atoms: C_18  and  C_19
REMARK                            x       y       z     vdW  Elec       q    Type
REMARK                         _______ _______ _______ _____ _____    ______ ____
ROOT
ATOM      1  O   UNL     1       1.564   2.398  18.082  0.00  0.00    +0.000 OA
ATOM      2  C   UNL     1       2.487   2.666  18.835  0.00  0.00    +0.000 C 
ATOM      3  C   UNL     1       3.922   2.877  18.424  0.00  0.00    +0.000 C 
ATOM      4  C   UNL     1       3.922   3.438  17.007  0.00  0.00    +0.000 C 
ATOM      5  C   UNL     1       5.268   4.029  16.588  0.00  0.00    +0.000 C 
ATOM      6  C   UNL     1       5.078   5.358  15.850  0.00  0.00    +0.000 C 
ATOM      7  C   UNL     1       4.791   6.456  16.833  0.00  0.00    +0.000 C 
ATOM      8  C   UNL     1       3.624   7.110  16.952  0.00  0.00    +0.000 C 
ATOM      9  C   UNL     1       3.441   8.216  17.952  0.00  0.00    +0.000 C 
ATOM     10  C   UNL     1       2.055   8.290  18.626  0.00  0.00    +0.000 C 
ATOM     11  C   UNL     1       1.960   7.401  19.866  0.00  0.00    +0.000 C 
ATOM     12  O   UNL     1       2.176   7.800  21.005  0.00  0.00    +0.000 OA
ATOM     13  N   UNL     1       1.615   6.085  19.635  0.00  0.00    +0.000 N 
ATOM     14  C   UNL     1       1.712   5.153  20.746  0.00  0.00    +0.000 C 
ATOM     15  C   UNL     1       1.189   3.748  20.454  0.00  0.00    +0.000 C 
ATOM     16  O   UNL     1       2.341   2.944  20.148  0.00  0.00    +0.000 OA
ATOM     17  H   UNL     1       1.401   5.768  18.698  0.00  0.00    +0.000 HD
ENDROOT
BRANCH  10  18
ATOM     18  C   UNL     1       1.705   9.755  18.976  0.00  0.00    +0.000 C 
BRANCH  18  19
ATOM     19  C   UNL     1       0.214  10.000  19.224  0.00  0.00    +0.000 C 
ATOM     20  O   UNL     1      -0.531   9.091  19.590  0.00  0.00    +0.000 OA
ATOM     21  N   UNL     1      -0.290  11.283  19.051  0.00  0.00    +0.000 N 
BRANCH  21  22
ATOM     22  C   UNL     1       0.525  12.487  18.837  0.00  0.00    +0.000 C 
BRANCH  22  23
ATOM     23  C   UNL     1      -0.066  13.744  19.502  0.00  0.00    +0.000 C 
BRANCH  23  24
ATOM     24  O   UNL     1      -0.612  14.651  18.550  0.00  0.00    +0.000 OA
ATOM     25  H   UNL     1      -1.577  14.655  18.683  0.00  0.00    +0.000 HD
ENDBRANCH  23  24
ENDBRANCH  22  23
ENDBRANCH  21  22
BRANCH  21  26
ATOM     26  C   UNL     1      -1.723  11.461  19.294  0.00  0.00    +0.000 C 
BRANCH  26  27
ATOM     27  C   UNL     1      -2.590  11.358  18.058  0.00  0.00    +0.000 A 
ATOM     28  C   UNL     1      -2.055  10.901  16.842  0.00  0.00    +0.000 A 
ATOM     29  C   UNL     1      -2.881  10.688  15.732  0.00  0.00    +0.000 A 
ATOM     30  C   UNL     1      -4.249  10.934  15.824  0.00  0.00    +0.000 A 
ATOM     31  C   UNL     1      -4.784  11.431  17.011  0.00  0.00    +0.000 A 
ATOM     32  C   UNL     1      -3.958  11.650  18.119  0.00  0.00    +0.000 A 
ENDBRANCH  26  27
ENDBRANCH  21  26
ENDBRANCH  18  19
ENDBRANCH  10  18
TORSDOF 7
ENDMDL
MODEL 8
REMARK VINA RESULT:      -6.7      2.183      8.791
REMARK  Name = 
REMARK  7 active torsions:
REMARK  status: ('A' for Active; 'I' for Inactive)
REMARK    1  A    between atoms: C_10  and  C_11
REMARK    2  A    between atoms: C_11  and  C_12
REMARK    3  A    between atoms: N_14  and  C_15
REMARK    4  A    between atoms: N_14  and  C_18
REMARK    5  A    between atoms: C_15  and  C_16
REMARK    6  A    between atoms: C_16  and  O_17
REMARK    7  A    between atoms: C_18  and  C_19
REMARK                            x       y       z     vdW  Elec       q    Type
REMARK                         _______ _______ _______ _____ _____    ______ ____
ROOT
ATOM      1  O   UNL     1       1.609   2.373  17.829  0.00  0.00    +0.000 OA
ATOM      2  C   UNL     1       2.492   2.625  18.634  0.00  0.00    +0.000 C 
ATOM      3  C   UNL     1       3.955   2.795  18.308  0.00  0.00    +0.000 C 
ATOM      4  C   UNL     1       4.054   3.340  16.888  0.00  0.00    +0.000 C 
ATOM      5  C   UNL     1       5.438   3.891  16.546  0.00  0.00    +0.000 C 
ATOM      6  C   UNL     1       5.329   5.216  15.785  0.00  0.00    +0.000 C 
ATOM      7  C   UNL     1       5.012   6.332  16.739  0.00  0.00    +0.000 C 
ATOM      8  C   UNL     1       3.858   7.017  16.781  0.00  0.00    +0.000 C 
ATOM      9  C   UNL     1       3.645   8.139  17.758  0.00  0.00    +0.000 C 
ATOM     10  C   UNL     1       2.223   8.255  18.347  0.00  0.00    +0.000 C 
ATOM     11  C   UNL     1       2.030   7.383  19.587  0.00  0.00    +0.000 C 
ATOM     12  O   UNL     1       2.188   7.789  20.733  0.00  0.00    +0.000 OA
ATOM     13  N   UNL     1       1.665   6.074  19.348  0.00  0.00    +0.000 N 
ATOM     14  C   UNL     1       1.670   5.152  20.471  0.00  0.00    +0.000 C 
ATOM     15  C   UNL     1       1.129   3.758  20.161  0.00  0.00    +0.000 C 
ATOM     16  O   UNL     1       2.275   2.921  19.933  0.00  0.00    +0.000 OA
ATOM     17  H   UNL     1       1.499   5.753  18.403  0.00  0.00    +0.000 HD
ENDROOT
BRANCH  10  18
ATOM     18  C   UNL     1       1.892   9.733  18.661  0.00  0.00    +0.000 C 
BRANCH  18  19
ATOM     19  C   UNL     1       0.398  10.063  18.616  0.00  0.00    +0.000 C 
ATOM     20  O   UNL     1      -0.276   9.841  17.609  0.00  0.00    +0.000 OA
ATOM     21  N   UNL     1      -0.203  10.603  19.747  0.00  0.00    +0.000 N 
BRANCH  21  22
ATOM     22  C   UNL     1       0.431  10.707  21.069  0.00  0.00    +0.000 C 
BRANCH  22  23
ATOM     23  C   UNL     1      -0.236   9.815  22.132  0.00  0.00    +0.000 C 
BRANCH  23  24
ATOM     24  O   UNL     1       0.380   9.945  23.409  0.00  0.00    +0.000 OA
ATOM     25  H   UNL     1       1.127   9.321  23.428  0.00  0.00    +0.000 HD
ENDBRANCH  23  24
ENDBRANCH  22  23
ENDBRANCH  21  22
BRANCH  21  26
ATOM     26  C   UNL     1      -1.631  10.907  19.648  0.00  0.00    +0.000 C 
BRANCH  26  27
ATOM     27  C   UNL     1      -2.002  12.324  20.025  0.00  0.00    +0.000 A 
ATOM     28  C   UNL     1      -3.201  12.595  20.705  0.00  0.00    +0.000 A 
ATOM     29  C   UNL     1      -3.487  13.887  21.164  0.00  0.00    +0.000 A 
ATOM     30  C   UNL     1      -2.580  14.921  20.943  0.00  0.00    +0.000 A 
ATOM     31  C   UNL     1      -1.409  14.674  20.229  0.00  0.00    +0.000 A 
ATOM     32  C   UNL     1      -1.126  13.385  19.765  0.00  0.00    +0.000 A 
ENDBRANCH  26  27
ENDBRANCH  21  26
ENDBRANCH  18  19
ENDBRANCH  10  18
TORSDOF 7
ENDMDL
MODEL 9
REMARK VINA RESULT:      -6.7      2.173      8.413
REMARK  Name = 
REMARK  7 active torsions:
REMARK  status: ('A' for Active; 'I' for Inactive)
REMARK    1  A    between atoms: C_10  and  C_11
REMARK    2  A    between atoms: C_11  and  C_12
REMARK    3  A    between atoms: N_14  and  C_15
REMARK    4  A    between atoms: N_14  and  C_18
REMARK    5  A    between atoms: C_15  and  C_16
REMARK    6  A    between atoms: C_16  and  O_17
REMARK    7  A    between atoms: C_18  and  C_19
REMARK                            x       y       z     vdW  Elec       q    Type
REMARK                         _______ _______ _______ _____ _____    ______ ____
ROOT
ATOM      1  O   UNL     1       1.566   2.392  18.016  0.00  0.00    +0.000 OA
ATOM      2  C   UNL     1       2.423   2.692  18.832  0.00  0.00    +0.000 C 
ATOM      3  C   UNL     1       3.905   2.762  18.562  0.00  0.00    +0.000 C 
ATOM      4  C   UNL     1       4.094   3.146  17.099  0.00  0.00    +0.000 C 
ATOM      5  C   UNL     1       5.516   3.598  16.769  0.00  0.00    +0.000 C 
ATOM      6  C   UNL     1       5.503   4.836  15.868  0.00  0.00    +0.000 C 
ATOM      7  C   UNL     1       5.199   6.062  16.682  0.00  0.00    +0.000 C 
ATOM      8  C   UNL     1       4.078   6.796  16.594  0.00  0.00    +0.000 C 
ATOM      9  C   UNL     1       3.875   8.024  17.435  0.00  0.00    +0.000 C 
ATOM     10  C   UNL     1       2.436   8.264  17.938  0.00  0.00    +0.000 C 
ATOM     11  C   UNL     1       2.147   7.540  19.252  0.00  0.00    +0.000 C 
ATOM     12  O   UNL     1       2.273   8.060  20.355  0.00  0.00    +0.000 OA
ATOM     13  N   UNL     1       1.731   6.230  19.135  0.00  0.00    +0.000 N 
ATOM     14  C   UNL     1       1.642   5.434  20.349  0.00  0.00    +0.000 C 
ATOM     15  C   UNL     1       1.050   4.040  20.162  0.00  0.00    +0.000 C 
ATOM     16  O   UNL     1       2.163   3.135  20.080  0.00  0.00    +0.000 OA
ATOM     17  H   UNL     1       1.592   5.816  18.223  0.00  0.00    +0.000 HD
ENDROOT
BRANCH  10  18
ATOM     18  C   UNL     1       2.162   9.780  18.078  0.00  0.00    +0.000 C 
BRANCH  18  19
ATOM     19  C   UNL     1       0.698  10.128  18.358  0.00  0.00    +0.000 C 
ATOM     20  O   UNL     1      -0.211   9.349  18.069  0.00  0.00    +0.000 OA
ATOM     21  N   UNL     1       0.404  11.341  18.970  0.00  0.00    +0.000 N 
BRANCH  21  22
ATOM     22  C   UNL     1       1.398  12.249  19.560  0.00  0.00    +0.000 C 
BRANCH  22  23
ATOM     23  C   UNL     1       1.665  13.496  18.698  0.00  0.00    +0.000 C 
BRANCH  23  24
ATOM     24  O   UNL     1       2.399  13.188  17.518  0.00  0.00    +0.000 OA
ATOM     25  H   UNL     1       3.331  13.409  17.699  0.00  0.00    +0.000 HD
ENDBRANCH  23  24
ENDBRANCH  22  23
ENDBRANCH  21  22
BRANCH  21  26
ATOM     26  C   UNL     1      -1.012  11.627  19.208  0.00  0.00    +0.000 C 
BRANCH  26  27
ATOM     27  C   UNL     1      -1.360  11.926  20.650  0.00  0.00    +0.000 A 
ATOM     28  C   UNL     1      -2.138  13.048  20.982  0.00  0.00    +0.000 A 
ATOM     29  C   UNL     1      -2.565  13.257  22.299  0.00  0.00    +0.000 A 
ATOM     30  C   UNL     1      -2.215  12.351  23.298  0.00  0.00    +0.000 A 
ATOM     31  C   UNL     1      -1.406  11.259  22.988  0.00  0.00    +0.000 A 
ATOM     32  C   UNL     1      -0.974  11.052  21.674  0.00  0.00    +0.000 A 
ENDBRANCH  26  27
ENDBRANCH  21  26
ENDBRANCH  18  19
ENDBRANCH  10  18
TORSDOF 7
ENDMDL
