MODEL 1
REMARK VINA RESULT:      -7.4      0.000      0.000
REMARK  Name = 
REMARK  2 active torsions:
REMARK  status: ('A' for Active; 'I' for Inactive)
REMARK    1  A    between atoms: N_8  and  N_9
REMARK    2  A    between atoms: C_10  and  C_11
REMARK                            x       y       z     vdW  Elec       q    Type
REMARK                         _______ _______ _______ _____ _____    ______ ____
ROOT
ATOM      1  N   UNL     1       8.194   5.513  20.069  0.00  0.00    +0.000 N 
ATOM      2  C   UNL     1       7.317   5.495  19.000  0.00  0.00    +0.000 A 
ATOM      3  N   UNL     1       7.842   5.512  17.788  0.00  0.00    +0.000 NA
ATOM      4  C   UNL     1       6.964   5.474  16.802  0.00  0.00    +0.000 A 
ATOM      5  N   UNL     1       7.445   5.501  15.506  0.00  0.00    +0.000 N 
ATOM      6  N   UNL     1       5.657   5.456  16.953  0.00  0.00    +0.000 NA
ATOM      7  C   UNL     1       5.227   5.416  18.211  0.00  0.00    +0.000 A 
ATOM      8  N   UNL     1       3.845   5.406  18.476  0.00  0.00    +0.000 N 
ATOM      9  N   UNL     1       6.025   5.433  19.274  0.00  0.00    +0.000 NA
ATOM     10  H   UNL     1       9.096   5.163  19.777  0.00  0.00    +0.000 HD
ATOM     11  H   UNL     1       7.772   5.075  20.877  0.00  0.00    +0.000 HD
ATOM     12  H   UNL     1       8.351   5.945  15.477  0.00  0.00    +0.000 HD
ATOM     13  H   UNL     1       6.729   5.859  14.888  0.00  0.00    +0.000 HD
ATOM     14  H   UNL     1       3.734   5.125  19.449  0.00  0.00    +0.000 HD
ENDROOT
BRANCH   8  15
ATOM     15  N   UNL     1       3.021   4.821  17.556  0.00  0.00    +0.000 NA
ATOM     16  C   UNL     1       2.242   3.872  17.990  0.00  0.00    +0.000 C 
BRANCH  16  17
ATOM     17  C   UNL     1       2.077   3.428  19.348  0.00  0.00    +0.000 A 
ATOM     18  C   UNL     1       0.993   3.380  20.206  0.00  0.00    +0.000 A 
ATOM     19  C   UNL     1       1.469   2.880  21.441  0.00  0.00    +0.000 A 
ATOM     20  C   UNL     1       2.807   2.626  21.256  0.00  0.00    +0.000 A 
ATOM     21  O   UNL     1       3.180   2.930  19.986  0.00  0.00    +0.000 OA
ENDBRANCH  16  17
ENDBRANCH   8  15
TORSDOF 2
ENDMDL
MODEL 2
REMARK VINA RESULT:      -7.1      1.344      1.441
REMARK  Name = 
REMARK  2 active torsions:
REMARK  status: ('A' for Active; 'I' for Inactive)
REMARK    1  A    between atoms: N_8  and  N_9
REMARK    2  A    between atoms: C_10  and  C_11
REMARK                            x       y       z     vdW  Elec       q    Type
REMARK                         _______ _______ _______ _____ _____    ______ ____
ROOT
ATOM      1  N   UNL     1       7.896   7.015  18.343  0.00  0.00    +0.000 N 
ATOM      2  C   UNL     1       7.139   6.160  17.565  0.00  0.00    +0.000 A 
ATOM      3  N   UNL     1       7.459   6.061  16.286  0.00  0.00    +0.000 NA
ATOM      4  C   UNL     1       6.717   5.217  15.592  0.00  0.00    +0.000 A 
ATOM      5  N   UNL     1       6.992   5.074  14.244  0.00  0.00    +0.000 N 
ATOM      6  N   UNL     1       5.704   4.527  16.071  0.00  0.00    +0.000 NA
ATOM      7  C   UNL     1       5.476   4.677  17.373  0.00  0.00    +0.000 A 
ATOM      8  N   UNL     1       4.406   3.991  17.977  0.00  0.00    +0.000 N 
ATOM      9  N   UNL     1       6.173   5.486  18.165  0.00  0.00    +0.000 NA
ATOM     10  H   UNL     1       8.803   7.152  17.916  0.00  0.00    +0.000 HD
ATOM     11  H   UNL     1       7.885   6.716  19.308  0.00  0.00    +0.000 HD
ATOM     12  H   UNL     1       7.438   5.905  13.886  0.00  0.00    +0.000 HD
ATOM     13  H   UNL     1       6.165   4.744  13.765  0.00  0.00    +0.000 HD
ATOM     14  H   UNL     1       4.557   4.037  18.983  0.00  0.00    +0.000 HD
ENDROOT
BRANCH   8  15
ATOM     15  N   UNL     1       4.045   2.781  17.453  0.00  0.00    +0.000 NA
ATOM     16  C   UNL     1       3.207   2.069  18.150  0.00  0.00    +0.000 C 
BRANCH  16  17
ATOM     17  C   UNL     1       2.541   2.446  19.368  0.00  0.00    +0.000 A 
ATOM     18  C   UNL     1       1.225   2.737  19.678  0.00  0.00    +0.000 A 
ATOM     19  C   UNL     1       1.195   3.089  21.048  0.00  0.00    +0.000 A 
ATOM     20  C   UNL     1       2.487   2.965  21.499  0.00  0.00    +0.000 A 
ATOM     21  O   UNL     1       3.306   2.553  20.497  0.00  0.00    +0.000 OA
ENDBRANCH  16  17
ENDBRANCH   8  15
TORSDOF 2
ENDMDL
MODEL 3
REMARK VINA RESULT:      -7.0      1.286      1.405
REMARK  Name = 
REMARK  2 active torsions:
REMARK  status: ('A' for Active; 'I' for Inactive)
REMARK    1  A    between atoms: N_8  and  N_9
REMARK    2  A    between atoms: C_10  and  C_11
REMARK                            x       y       z     vdW  Elec       q    Type
REMARK                         _______ _______ _______ _____ _____    ______ ____
ROOT
ATOM      1  N   UNL     1       7.778   5.024  18.605  0.00  0.00    +0.000 N 
ATOM      2  C   UNL     1       6.754   4.699  17.736  0.00  0.00    +0.000 A 
ATOM      3  N   UNL     1       7.093   4.316  16.518  0.00  0.00    +0.000 NA
ATOM      4  C   UNL     1       6.079   3.999  15.732  0.00  0.00    +0.000 A 
ATOM      5  N   UNL     1       6.363   3.600  14.440  0.00  0.00    +0.000 N 
ATOM      6  N   UNL     1       4.809   4.073  16.069  0.00  0.00    +0.000 NA
ATOM      7  C   UNL     1       4.571   4.447  17.324  0.00  0.00    +0.000 A 
ATOM      8  N   UNL     1       3.243   4.567  17.775  0.00  0.00    +0.000 N 
ATOM      9  N   UNL     1       5.517   4.770  18.199  0.00  0.00    +0.000 NA
ATOM     10  H   UNL     1       8.633   4.570  18.312  0.00  0.00    +0.000 HD
ATOM     11  H   UNL     1       7.487   4.878  19.562  0.00  0.00    +0.000 HD
ATOM     12  H   UNL     1       7.248   3.982  14.141  0.00  0.00    +0.000 HD
ATOM     13  H   UNL     1       5.559   3.769  13.850  0.00  0.00    +0.000 HD
ATOM     14  H   UNL     1       3.281   4.610  18.792  0.00  0.00    +0.000 HD
ENDROOT
BRANCH   8  15
ATOM     15  N   UNL     1       2.302   3.749  17.217  0.00  0.00    +0.000 NA
ATOM     16  C   UNL     1       1.679   2.939  18.025  0.00  0.00    +0.000 C 
BRANCH  16  17
ATOM     17  C   UNL     1       1.800   2.867  19.456  0.00  0.00    +0.000 A 
ATOM     18  C   UNL     1       0.915   3.087  20.496  0.00  0.00    +0.000 A 
ATOM     19  C   UNL     1       1.639   2.903  21.697  0.00  0.00    +0.000 A 
ATOM     20  C   UNL     1       2.913   2.554  21.322  0.00  0.00    +0.000 A 
ATOM     21  O   UNL     1       3.016   2.505  19.968  0.00  0.00    +0.000 OA
ENDBRANCH  16  17
ENDBRANCH   8  15
TORSDOF 2
ENDMDL
MODEL 4
REMARK VINA RESULT:      -7.0      1.591      2.463
REMARK  Name = 
REMARK  2 active torsions:
REMARK  status: ('A' for Active; 'I' for Inactive)
REMARK    1  A    between atoms: N_8  and  N_9
REMARK    2  A    between atoms: C_10  and  C_11
REMARK                            x       y       z     vdW  Elec       q    Type
REMARK                         _______ _______ _______ _____ _____    ______ ____
ROOT
ATOM      1  N   UNL     1       6.342   3.632  14.233  0.00  0.00    +0.000 N 
ATOM      2  C   UNL     1       6.123   4.486  15.298  0.00  0.00    +0.000 A 
ATOM      3  N   UNL     1       7.058   5.385  15.555  0.00  0.00    +0.000 NA
ATOM      4  C   UNL     1       6.792   6.188  16.570  0.00  0.00    +0.000 A 
ATOM      5  N   UNL     1       7.734   7.144  16.900  0.00  0.00    +0.000 N 
ATOM      6  N   UNL     1       5.716   6.125  17.323  0.00  0.00    +0.000 NA
ATOM      7  C   UNL     1       4.824   5.203  16.970  0.00  0.00    +0.000 A 
ATOM      8  N   UNL     1       3.644   5.049  17.723  0.00  0.00    +0.000 N 
ATOM      9  N   UNL     1       4.985   4.357  15.957  0.00  0.00    +0.000 NA
ATOM     10  H   UNL     1       6.995   4.053  13.586  0.00  0.00    +0.000 HD
ATOM     11  H   UNL     1       5.462   3.311  13.853  0.00  0.00    +0.000 HD
ATOM     12  H   UNL     1       8.652   6.852  16.599  0.00  0.00    +0.000 HD
ATOM     13  H   UNL     1       7.622   7.407  17.870  0.00  0.00    +0.000 HD
ATOM     14  H   UNL     1       3.005   4.493  17.158  0.00  0.00    +0.000 HD
ENDROOT
BRANCH   8  15
ATOM     15  N   UNL     1       3.132   6.155  18.342  0.00  0.00    +0.000 NA
ATOM     16  C   UNL     1       2.392   5.946  19.393  0.00  0.00    +0.000 C 
BRANCH  16  17
ATOM     17  C   UNL     1       2.124   4.688  20.037  0.00  0.00    +0.000 A 
ATOM     18  C   UNL     1       0.959   4.051  20.426  0.00  0.00    +0.000 A 
ATOM     19  C   UNL     1       1.343   2.845  21.058  0.00  0.00    +0.000 A 
ATOM     20  C   UNL     1       2.715   2.803  20.993  0.00  0.00    +0.000 A 
ATOM     21  O   UNL     1       3.197   3.901  20.355  0.00  0.00    +0.000 OA
ENDBRANCH  16  17
ENDBRANCH   8  15
TORSDOF 2
ENDMDL
MODEL 5
REMARK VINA RESULT:      -7.0      1.189      2.448
REMARK  Name = 
REMARK  2 active torsions:
REMARK  status: ('A' for Active; 'I' for Inactive)
REMARK    1  A    between atoms: N_8  and  N_9
REMARK    2  A    between atoms: C_10  and  C_11
REMARK                            x       y       z     vdW  Elec       q    Type
REMARK                         _______ _______ _______ _____ _____    ______ ____
ROOT
ATOM      1  N   UNL     1       7.315   4.505  15.454  0.00  0.00    +0.000 N 
ATOM      2  C   UNL     1       6.815   4.876  16.688  0.00  0.00    +0.000 A 
ATOM      3  N   UNL     1       7.684   5.022  17.673  0.00  0.00    +0.000 NA
ATOM      4  C   UNL     1       7.158   5.395  18.827  0.00  0.00    +0.000 A 
ATOM      5  N   UNL     1       8.010   5.555  19.903  0.00  0.00    +0.000 N 
ATOM      6  N   UNL     1       5.875   5.587  19.047  0.00  0.00    +0.000 NA
ATOM      7  C   UNL     1       5.084   5.438  17.987  0.00  0.00    +0.000 A 
ATOM      8  N   UNL     1       3.694   5.611  18.124  0.00  0.00    +0.000 N 
ATOM      9  N   UNL     1       5.513   5.083  16.780  0.00  0.00    +0.000 NA
ATOM     10  H   UNL     1       8.291   4.761  15.389  0.00  0.00    +0.000 HD
ATOM     11  H   UNL     1       6.706   4.831  14.715  0.00  0.00    +0.000 HD
ATOM     12  H   UNL     1       8.838   4.990  19.784  0.00  0.00    +0.000 HD
ATOM     13  H   UNL     1       7.490   5.446  20.764  0.00  0.00    +0.000 HD
ATOM     14  H   UNL     1       3.315   5.704  17.184  0.00  0.00    +0.000 HD
ENDROOT
BRANCH   8  15
ATOM     15  N   UNL     1       3.250   6.492  19.069  0.00  0.00    +0.000 NA
ATOM     16  C   UNL     1       2.375   6.042  19.922  0.00  0.00    +0.000 C 
BRANCH  16  17
ATOM     17  C   UNL     1       1.886   4.695  20.045  0.00  0.00    +0.000 A 
ATOM     18  C   UNL     1       1.833   3.797  21.096  0.00  0.00    +0.000 A 
ATOM     19  C   UNL     1       1.278   2.600  20.585  0.00  0.00    +0.000 A 
ATOM     20  C   UNL     1       1.000   2.846  19.262  0.00  0.00    +0.000 A 
ATOM     21  O   UNL     1       1.341   4.118  18.931  0.00  0.00    +0.000 OA
ENDBRANCH  16  17
ENDBRANCH   8  15
TORSDOF 2
ENDMDL
MODEL 6
REMARK VINA RESULT:      -7.0      1.534      2.758
REMARK  Name = 
REMARK  2 active torsions:
REMARK  status: ('A' for Active; 'I' for Inactive)
REMARK    1  A    between atoms: N_8  and  N_9
REMARK    2  A    between atoms: C_10  and  C_11
REMARK                            x       y       z     vdW  Elec       q    Type
REMARK                         _______ _______ _______ _____ _____    ______ ____
ROOT
ATOM      1  N   UNL     1       5.208   6.628  15.747  0.00  0.00    +0.000 N 
ATOM      2  C   UNL     1       5.714   5.970  16.853  0.00  0.00    +0.000 A 
ATOM      3  N   UNL     1       6.743   6.524  17.468  0.00  0.00    +0.000 NA
ATOM      4  C   UNL     1       7.177   5.866  18.529  0.00  0.00    +0.000 A 
ATOM      5  N   UNL     1       8.259   6.386  19.213  0.00  0.00    +0.000 N 
ATOM      6  N   UNL     1       6.685   4.727  18.966  0.00  0.00    +0.000 NA
ATOM      7  C   UNL     1       5.635   4.261  18.293  0.00  0.00    +0.000 A 
ATOM      8  N   UNL     1       5.046   3.042  18.676  0.00  0.00    +0.000 N 
ATOM      9  N   UNL     1       5.111   4.854  17.225  0.00  0.00    +0.000 NA
ATOM     10  H   UNL     1       5.451   7.608  15.792  0.00  0.00    +0.000 HD
ATOM     11  H   UNL     1       4.231   6.404  15.621  0.00  0.00    +0.000 HD
ATOM     12  H   UNL     1       8.821   6.959  18.601  0.00  0.00    +0.000 HD
ATOM     13  H   UNL     1       8.727   5.644  19.717  0.00  0.00    +0.000 HD
ATOM     14  H   UNL     1       4.138   2.997  18.217  0.00  0.00    +0.000 HD
ENDROOT
BRANCH   8  15
ATOM     15  N   UNL     1       5.099   2.694  19.997  0.00  0.00    +0.000 NA
ATOM     16  C   UNL     1       3.962   2.623  20.628  0.00  0.00    +0.000 C 
BRANCH  16  17
ATOM     17  C   UNL     1       2.644   2.778  20.075  0.00  0.00    +0.000 A 
ATOM     18  C   UNL     1       1.547   3.540  20.435  0.00  0.00    +0.000 A 
ATOM     19  C   UNL     1       0.513   3.228  19.522  0.00  0.00    +0.000 A 
ATOM     20  C   UNL     1       1.046   2.318  18.642  0.00  0.00    +0.000 A 
ATOM     21  O   UNL     1       2.342   2.057  18.952  0.00  0.00    +0.000 OA
ENDBRANCH  16  17
ENDBRANCH   8  15
TORSDOF 2
ENDMDL
MODEL 7
REMARK VINA RESULT:      -6.9      1.415      1.560
REMARK  Name = 
REMARK  2 active torsions:
REMARK  status: ('A' for Active; 'I' for Inactive)
REMARK    1  A    between atoms: N_8  and  N_9
REMARK    2  A    between atoms: C_10  and  C_11
REMARK                            x       y       z     vdW  Elec       q    Type
REMARK                         _______ _______ _______ _____ _____    ______ ____
ROOT
ATOM      1  N   UNL     1       8.251   6.351  19.161  0.00  0.00    +0.000 N 
ATOM      2  C   UNL     1       7.155   5.886  18.458  0.00  0.00    +0.000 A 
ATOM      3  N   UNL     1       6.786   6.572  17.391  0.00  0.00    +0.000 NA
ATOM      4  C   UNL     1       5.746   6.076  16.744  0.00  0.00    +0.000 A 
ATOM      5  N   UNL     1       5.300   6.752  15.624  0.00  0.00    +0.000 N 
ATOM      6  N   UNL     1       5.070   5.007  17.105  0.00  0.00    +0.000 NA
ATOM      7  C   UNL     1       5.533   4.373  18.179  0.00  0.00    +0.000 A 
ATOM      8  N   UNL     1       4.870   3.225  18.651  0.00  0.00    +0.000 N 
ATOM      9  N   UNL     1       6.580   4.777  18.890  0.00  0.00    +0.000 NA
ATOM     10  H   UNL     1       8.829   6.919  18.557  0.00  0.00    +0.000 HD
ATOM     11  H   UNL     1       8.706   5.590  19.647  0.00  0.00    +0.000 HD
ATOM     12  H   UNL     1       5.556   7.727  15.676  0.00  0.00    +0.000 HD
ATOM     13  H   UNL     1       4.325   6.533  15.464  0.00  0.00    +0.000 HD
ATOM     14  H   UNL     1       5.507   2.762  19.297  0.00  0.00    +0.000 HD
ENDROOT
BRANCH   8  15
ATOM     15  N   UNL     1       4.222   2.440  17.739  0.00  0.00    +0.000 NA
ATOM     16  C   UNL     1       2.963   2.199  17.965  0.00  0.00    +0.000 C 
BRANCH  16  17
ATOM     17  C   UNL     1       2.144   2.740  19.016  0.00  0.00    +0.000 A 
ATOM     18  C   UNL     1       1.123   3.673  19.040  0.00  0.00    +0.000 A 
ATOM     19  C   UNL     1       0.736   3.823  20.392  0.00  0.00    +0.000 A 
ATOM     20  C   UNL     1       1.521   2.954  21.110  0.00  0.00    +0.000 A 
ATOM     21  O   UNL     1       2.360   2.276  20.285  0.00  0.00    +0.000 OA
ENDBRANCH  16  17
ENDBRANCH   8  15
TORSDOF 2
ENDMDL
MODEL 8
REMARK VINA RESULT:      -6.9      1.453      1.525
REMARK  Name = 
REMARK  2 active torsions:
REMARK  status: ('A' for Active; 'I' for Inactive)
REMARK    1  A    between atoms: N_8  and  N_9
REMARK    2  A    between atoms: C_10  and  C_11
REMARK                            x       y       z     vdW  Elec       q    Type
REMARK                         _______ _______ _______ _____ _____    ______ ____
ROOT
ATOM      1  N   UNL     1       8.648   5.184  20.487  0.00  0.00    +0.000 N 
ATOM      2  C   UNL     1       7.727   5.515  19.511  0.00  0.00    +0.000 A 
ATOM      3  N   UNL     1       8.031   6.521  18.709  0.00  0.00    +0.000 NA
ATOM      4  C   UNL     1       7.127   6.785  17.782  0.00  0.00    +0.000 A 
ATOM      5  N   UNL     1       7.377   7.833  16.917  0.00  0.00    +0.000 N 
ATOM      6  N   UNL     1       5.981   6.154  17.641  0.00  0.00    +0.000 NA
ATOM      7  C   UNL     1       5.777   5.143  18.481  0.00  0.00    +0.000 A 
ATOM      8  N   UNL     1       4.575   4.414  18.417  0.00  0.00    +0.000 N 
ATOM      9  N   UNL     1       6.628   4.783  19.437  0.00  0.00    +0.000 NA
ATOM     10  H   UNL     1       9.566   5.505  20.214  0.00  0.00    +0.000 HD
ATOM     11  H   UNL     1       8.559   4.208  20.738  0.00  0.00    +0.000 HD
ATOM     12  H   UNL     1       8.001   8.501  17.344  0.00  0.00    +0.000 HD
ATOM     13  H   UNL     1       6.502   8.181  16.546  0.00  0.00    +0.000 HD
ATOM     14  H   UNL     1       4.722   3.557  18.948  0.00  0.00    +0.000 HD
ENDROOT
BRANCH   8  15
ATOM     15  N   UNL     1       3.959   4.302  17.202  0.00  0.00    +0.000 NA
ATOM     16  C   UNL     1       2.729   3.874  17.208  0.00  0.00    +0.000 C 
BRANCH  16  17
ATOM     17  C   UNL     1       1.907   3.594  18.354  0.00  0.00    +0.000 A 
ATOM     18  C   UNL     1       1.108   2.521  18.709  0.00  0.00    +0.000 A 
ATOM     19  C   UNL     1       0.506   2.850  19.946  0.00  0.00    +0.000 A 
ATOM     20  C   UNL     1       0.994   4.088  20.287  0.00  0.00    +0.000 A 
ATOM     21  O   UNL     1       1.861   4.537  19.343  0.00  0.00    +0.000 OA
ENDBRANCH  16  17
ENDBRANCH   8  15
TORSDOF 2
ENDMDL
MODEL 9
REMARK VINA RESULT:      -6.9      1.580      2.201
REMARK  Name = 
REMARK  2 active torsions:
REMARK  status: ('A' for Active; 'I' for Inactive)
REMARK    1  A    between atoms: N_8  and  N_9
REMARK    2  A    between atoms: C_10  and  C_11
REMARK                            x       y       z     vdW  Elec       q    Type
REMARK                         _______ _______ _______ _____ _____    ______ ____
ROOT
ATOM      1  N   UNL     1       7.648   7.673  17.062  0.00  0.00    +0.000 N 
ATOM      2  C   UNL     1       7.069   6.418  17.042  0.00  0.00    +0.000 A 
ATOM      3  N   UNL     1       7.111   5.751  15.902  0.00  0.00    +0.000 NA
ATOM      4  C   UNL     1       6.562   4.550  15.941  0.00  0.00    +0.000 A 
ATOM      5  N   UNL     1       6.561   3.802  14.779  0.00  0.00    +0.000 N 
ATOM      6  N   UNL     1       5.974   4.020  16.993  0.00  0.00    +0.000 NA
ATOM      7  C   UNL     1       6.004   4.760  18.098  0.00  0.00    +0.000 A 
ATOM      8  N   UNL     1       5.391   4.285  19.272  0.00  0.00    +0.000 N 
ATOM      9  N   UNL     1       6.546   5.971  18.171  0.00  0.00    +0.000 NA
ATOM     10  H   UNL     1       8.336   7.744  16.324  0.00  0.00    +0.000 HD
ATOM     11  H   UNL     1       7.953   7.906  17.997  0.00  0.00    +0.000 HD
ATOM     12  H   UNL     1       6.609   4.406  13.972  0.00  0.00    +0.000 HD
ATOM     13  H   UNL     1       5.808   3.127  14.812  0.00  0.00    +0.000 HD
ATOM     14  H   UNL     1       5.738   4.859  20.038  0.00  0.00    +0.000 HD
ENDROOT
BRANCH   8  15
ATOM     15  N   UNL     1       5.352   2.933  19.471  0.00  0.00    +0.000 NA
ATOM     16  C   UNL     1       4.211   2.431  19.847  0.00  0.00    +0.000 C 
BRANCH  16  17
ATOM     17  C   UNL     1       2.957   3.121  19.990  0.00  0.00    +0.000 A 
ATOM     18  C   UNL     1       2.149   3.405  21.077  0.00  0.00    +0.000 A 
ATOM     19  C   UNL     1       1.010   4.077  20.575  0.00  0.00    +0.000 A 
ATOM     20  C   UNL     1       1.201   4.188  19.219  0.00  0.00    +0.000 A 
ATOM     21  O   UNL     1       2.388   3.635  18.858  0.00  0.00    +0.000 OA
ENDBRANCH  16  17
ENDBRANCH   8  15
TORSDOF 2
ENDMDL
