MODEL 1
REMARK VINA RESULT:     -10.3      0.000      0.000
REMARK  Name = 
REMARK  7 active torsions:
REMARK  status: ('A' for Active; 'I' for Inactive)
REMARK    1  A    between atoms: C_1  and  C_2
REMARK    2  A    between atoms: N_4  and  C_5
REMARK    3  A    between atoms: C_8  and  S_9
REMARK    4  A    between atoms: S_9  and  N_12
REMARK    5  A    between atoms: N_12  and  C_13
REMARK    6  A    between atoms: C_16  and  N_17
REMARK    7  A    between atoms: N_17  and  C_18
REMARK                            x       y       z     vdW  Elec       q    Type
REMARK                         _______ _______ _______ _____ _____    ______ ____
ROOT
ATOM      1  C   UNL     1       0.679  10.235  19.508  0.00  0.00    +0.000 A 
ATOM      2  C   UNL     1       0.899   9.203  20.413  0.00  0.00    +0.000 A 
ATOM      3  C   UNL     1       1.578   8.050  19.996  0.00  0.00    +0.000 A 
ATOM      4  C   UNL     1       2.062   7.941  18.683  0.00  0.00    +0.000 A 
ATOM      5  C   UNL     1       2.018   9.076  17.878  0.00  0.00    +0.000 A 
ATOM      6  C   UNL     1       1.264  10.190  18.249  0.00  0.00    +0.000 A 
ENDROOT
BRANCH   1   7
ATOM      7  N   UNL     1      -0.099  11.354  19.895  0.00  0.00    +0.000 N 
ATOM      8  H   UNL     1       0.390  12.181  20.237  0.00  0.00    +0.000 HD
BRANCH   7   9
ATOM      9  S   UNL     1      -1.413  11.793  18.933  0.00  0.00    +0.000 S 
ATOM     10  O   UNL     1      -1.909  10.621  18.232  0.00  0.00    +0.000 OA
ATOM     11  O   UNL     1      -1.014  12.980  18.238  0.00  0.00    +0.000 OA
BRANCH   9  15
ATOM     12  C   UNL     1      -4.586  13.009  22.012  0.00  0.00    +0.000 A 
ATOM     13  C   UNL     1      -4.913  12.825  20.672  0.00  0.00    +0.000 A 
ATOM     14  C   UNL     1      -3.943  12.466  19.732  0.00  0.00    +0.000 A 
ATOM     15  C   UNL     1      -2.623  12.280  20.138  0.00  0.00    +0.000 A 
ATOM     16  C   UNL     1      -2.272  12.444  21.476  0.00  0.00    +0.000 A 
ATOM     17  C   UNL     1      -3.251  12.824  22.412  0.00  0.00    +0.000 A 
BRANCH  12  21
ATOM     18  C   UNL     1      -7.572  13.517  24.273  0.00  0.00    +0.000 C 
ATOM     19  C   UNL     1      -6.735  12.766  23.277  0.00  0.00    +0.000 C 
ATOM     20  O   UNL     1      -7.132  11.714  22.789  0.00  0.00    +0.000 OA
ATOM     21  N   UNL     1      -5.526  13.399  22.993  0.00  0.00    +0.000 N 
ATOM     22  H   UNL     1      -5.266  14.174  23.588  0.00  0.00    +0.000 HD
ENDBRANCH  12  21
ENDBRANCH   9  15
ENDBRANCH   7   9
ENDBRANCH   1   7
BRANCH   4  23
ATOM     23  N   UNL     1       2.516   6.695  18.202  0.00  0.00    +0.000 N 
ATOM     24  H   UNL     1       2.398   6.632  17.193  0.00  0.00    +0.000 HD
BRANCH  23  25
ATOM     25  C   UNL     1       3.601   5.834  18.609  0.00  0.00    +0.000 A 
ATOM     26  C   UNL     1       5.004   6.044  18.324  0.00  0.00    +0.000 A 
ATOM     27  C   UNL     1       5.635   6.936  17.415  0.00  0.00    +0.000 A 
ATOM     28  C   UNL     1       7.018   7.131  17.386  0.00  0.00    +0.000 A 
ATOM     29  C   UNL     1       7.821   6.397  18.237  0.00  0.00    +0.000 A 
ATOM     30  C   UNL     1       7.249   5.365  18.971  0.00  0.00    +0.000 A 
ATOM     31  C   UNL     1       5.884   5.125  18.908  0.00  0.00    +0.000 A 
ATOM     32  N   UNL     1       5.463   3.909  19.236  0.00  0.00    +0.000 NA
ATOM     33  C   UNL     1       4.183   3.662  18.962  0.00  0.00    +0.000 A 
ATOM     34  C   UNL     1       3.815   2.795  17.935  0.00  0.00    +0.000 A 
ATOM     35  C   UNL     1       2.469   2.624  17.593  0.00  0.00    +0.000 A 
ATOM     36  C   UNL     1       1.508   3.151  18.444  0.00  0.00    +0.000 A 
ATOM     37  C   UNL     1       1.916   4.112  19.356  0.00  0.00    +0.000 A 
ATOM     38  C   UNL     1       3.227   4.595  19.212  0.00  0.00    +0.000 A 
ENDBRANCH  23  25
ENDBRANCH   4  23
TORSDOF 6
ENDMDL
MODEL 2
REMARK VINA RESULT:     -10.3      1.660      2.249
REMARK  Name = 
REMARK  7 active torsions:
REMARK  status: ('A' for Active; 'I' for Inactive)
REMARK    1  A    between atoms: C_1  and  C_2
REMARK    2  A    between atoms: N_4  and  C_5
REMARK    3  A    between atoms: C_8  and  S_9
REMARK    4  A    between atoms: S_9  and  N_12
REMARK    5  A    between atoms: N_12  and  C_13
REMARK    6  A    between atoms: C_16  and  N_17
REMARK    7  A    between atoms: N_17  and  C_18
REMARK                            x       y       z     vdW  Elec       q    Type
REMARK                         _______ _______ _______ _____ _____    ______ ____
ROOT
ATOM      1  C   UNL     1       0.480   9.521  19.782  0.00  0.00    +0.000 A 
ATOM      2  C   UNL     1       1.260   9.251  18.663  0.00  0.00    +0.000 A 
ATOM      3  C   UNL     1       2.150   8.167  18.685  0.00  0.00    +0.000 A 
ATOM      4  C   UNL     1       2.237   7.338  19.814  0.00  0.00    +0.000 A 
ATOM      5  C   UNL     1       1.290   7.506  20.819  0.00  0.00    +0.000 A 
ATOM      6  C   UNL     1       0.468   8.634  20.850  0.00  0.00    +0.000 A 
ENDROOT
BRANCH   1   7
ATOM      7  N   UNL     1      -0.339  10.676  19.803  0.00  0.00    +0.000 N 
ATOM      8  H   UNL     1      -1.350  10.547  19.753  0.00  0.00    +0.000 HD
BRANCH   7   9
ATOM      9  S   UNL     1       0.050  11.921  20.874  0.00  0.00    +0.000 S 
ATOM     10  O   UNL     1       0.500  13.079  20.122  0.00  0.00    +0.000 OA
ATOM     11  O   UNL     1       0.853  11.322  21.898  0.00  0.00    +0.000 OA
BRANCH   9  15
ATOM     12  C   UNL     1      -3.979  12.916  22.824  0.00  0.00    +0.000 A 
ATOM     13  C   UNL     1      -3.000  12.204  23.511  0.00  0.00    +0.000 A 
ATOM     14  C   UNL     1      -1.776  11.891  22.912  0.00  0.00    +0.000 A 
ATOM     15  C   UNL     1      -1.523  12.302  21.604  0.00  0.00    +0.000 A 
ATOM     16  C   UNL     1      -2.480  13.027  20.900  0.00  0.00    +0.000 A 
ATOM     17  C   UNL     1      -3.716  13.321  21.504  0.00  0.00    +0.000 A 
BRANCH  12  21
ATOM     18  C   UNL     1      -7.637  13.367  23.663  0.00  0.00    +0.000 C 
ATOM     19  C   UNL     1      -6.472  12.719  22.969  0.00  0.00    +0.000 C 
ATOM     20  O   UNL     1      -6.649  11.843  22.130  0.00  0.00    +0.000 OA
ATOM     21  N   UNL     1      -5.241  13.231  23.377  0.00  0.00    +0.000 N 
ATOM     22  H   UNL     1      -5.244  13.834  24.187  0.00  0.00    +0.000 HD
ENDBRANCH  12  21
ENDBRANCH   9  15
ENDBRANCH   7   9
ENDBRANCH   1   7
BRANCH   4  23
ATOM     23  N   UNL     1       3.298   6.415  19.927  0.00  0.00    +0.000 N 
ATOM     24  H   UNL     1       3.526   6.243  20.904  0.00  0.00    +0.000 HD
BRANCH  23  25
ATOM     25  C   UNL     1       3.669   5.261  19.143  0.00  0.00    +0.000 A 
ATOM     26  C   UNL     1       4.282   5.286  17.832  0.00  0.00    +0.000 A 
ATOM     27  C   UNL     1       4.437   6.356  16.909  0.00  0.00    +0.000 A 
ATOM     28  C   UNL     1       5.209   6.248  15.750  0.00  0.00    +0.000 A 
ATOM     29  C   UNL     1       5.811   5.041  15.451  0.00  0.00    +0.000 A 
ATOM     30  C   UNL     1       5.492   3.927  16.217  0.00  0.00    +0.000 A 
ATOM     31  C   UNL     1       4.642   4.039  17.308  0.00  0.00    +0.000 A 
ATOM     32  N   UNL     1       4.021   2.938  17.713  0.00  0.00    +0.000 NA
ATOM     33  C   UNL     1       3.064   3.130  18.620  0.00  0.00    +0.000 A 
ATOM     34  C   UNL     1       1.717   2.979  18.296  0.00  0.00    +0.000 A 
ATOM     35  C   UNL     1       0.720   3.282  19.230  0.00  0.00    +0.000 A 
ATOM     36  C   UNL     1       1.104   3.509  20.543  0.00  0.00    +0.000 A 
ATOM     37  C   UNL     1       2.442   3.788  20.782  0.00  0.00    +0.000 A 
ATOM     38  C   UNL     1       3.249   3.995  19.652  0.00  0.00    +0.000 A 
ENDBRANCH  23  25
ENDBRANCH   4  23
TORSDOF 6
ENDMDL
MODEL 3
REMARK VINA RESULT:     -10.0      1.398      1.944
REMARK  Name = 
REMARK  7 active torsions:
REMARK  status: ('A' for Active; 'I' for Inactive)
REMARK    1  A    between atoms: C_1  and  C_2
REMARK    2  A    between atoms: N_4  and  C_5
REMARK    3  A    between atoms: C_8  and  S_9
REMARK    4  A    between atoms: S_9  and  N_12
REMARK    5  A    between atoms: N_12  and  C_13
REMARK    6  A    between atoms: C_16  and  N_17
REMARK    7  A    between atoms: N_17  and  C_18
REMARK                            x       y       z     vdW  Elec       q    Type
REMARK                         _______ _______ _______ _____ _____    ______ ____
ROOT
ATOM      1  C   UNL     1       0.658   9.878  19.439  0.00  0.00    +0.000 A 
ATOM      2  C   UNL     1       1.347   9.386  18.337  0.00  0.00    +0.000 A 
ATOM      3  C   UNL     1       2.146   8.242  18.474  0.00  0.00    +0.000 A 
ATOM      4  C   UNL     1       2.233   7.575  19.705  0.00  0.00    +0.000 A 
ATOM      5  C   UNL     1       1.363   7.965  20.719  0.00  0.00    +0.000 A 
ATOM      6  C   UNL     1       0.637   9.154  20.624  0.00  0.00    +0.000 A 
ENDROOT
BRANCH   1   7
ATOM      7  N   UNL     1      -0.063  11.092  19.331  0.00  0.00    +0.000 N 
ATOM      8  H   UNL     1       0.464  11.948  19.159  0.00  0.00    +0.000 HD
BRANCH   7   9
ATOM      9  S   UNL     1      -1.508  11.096  18.461  0.00  0.00    +0.000 S 
ATOM     10  O   UNL     1      -1.963   9.729  18.276  0.00  0.00    +0.000 OA
ATOM     11  O   UNL     1      -1.300  11.982  17.355  0.00  0.00    +0.000 OA
BRANCH   9  15
ATOM     12  C   UNL     1      -4.335  13.251  21.358  0.00  0.00    +0.000 A 
ATOM     13  C   UNL     1      -2.984  13.088  21.653  0.00  0.00    +0.000 A 
ATOM     14  C   UNL     1      -2.126  12.421  20.774  0.00  0.00    +0.000 A 
ATOM     15  C   UNL     1      -2.623  11.912  19.576  0.00  0.00    +0.000 A 
ATOM     16  C   UNL     1      -3.968  12.073  19.251  0.00  0.00    +0.000 A 
ATOM     17  C   UNL     1      -4.829  12.729  20.150  0.00  0.00    +0.000 A 
BRANCH  12  21
ATOM     18  C   UNL     1      -6.931  14.218  23.929  0.00  0.00    +0.000 C 
ATOM     19  C   UNL     1      -5.922  13.302  23.296  0.00  0.00    +0.000 C 
ATOM     20  O   UNL     1      -5.761  12.161  23.712  0.00  0.00    +0.000 OA
ATOM     21  N   UNL     1      -5.247  13.892  22.227  0.00  0.00    +0.000 N 
ATOM     22  H   UNL     1      -5.372  14.886  22.101  0.00  0.00    +0.000 HD
ENDBRANCH  12  21
ENDBRANCH   9  15
ENDBRANCH   7   9
ENDBRANCH   1   7
BRANCH   4  23
ATOM     23  N   UNL     1       3.221   6.587  19.901  0.00  0.00    +0.000 N 
ATOM     24  H   UNL     1       3.353   6.399  20.893  0.00  0.00    +0.000 HD
BRANCH  23  25
ATOM     25  C   UNL     1       3.586   5.415  19.142  0.00  0.00    +0.000 A 
ATOM     26  C   UNL     1       4.215   5.409  17.839  0.00  0.00    +0.000 A 
ATOM     27  C   UNL     1       4.395   6.460  16.899  0.00  0.00    +0.000 A 
ATOM     28  C   UNL     1       5.179   6.321  15.751  0.00  0.00    +0.000 A 
ATOM     29  C   UNL     1       5.769   5.102  15.481  0.00  0.00    +0.000 A 
ATOM     30  C   UNL     1       5.426   4.006  16.263  0.00  0.00    +0.000 A 
ATOM     31  C   UNL     1       4.565   4.148  17.342  0.00  0.00    +0.000 A 
ATOM     32  N   UNL     1       3.925   3.062  17.759  0.00  0.00    +0.000 NA
ATOM     33  C   UNL     1       2.960   3.283  18.650  0.00  0.00    +0.000 A 
ATOM     34  C   UNL     1       1.615   3.143  18.313  0.00  0.00    +0.000 A 
ATOM     35  C   UNL     1       0.611   3.476  19.229  0.00  0.00    +0.000 A 
ATOM     36  C   UNL     1       0.983   3.721  20.543  0.00  0.00    +0.000 A 
ATOM     37  C   UNL     1       2.321   3.988  20.793  0.00  0.00    +0.000 A 
ATOM     38  C   UNL     1       3.144   4.163  19.669  0.00  0.00    +0.000 A 
ENDBRANCH  23  25
ENDBRANCH   4  23
TORSDOF 6
ENDMDL
MODEL 4
REMARK VINA RESULT:     -10.0      3.250      4.780
REMARK  Name = 
REMARK  7 active torsions:
REMARK  status: ('A' for Active; 'I' for Inactive)
REMARK    1  A    between atoms: C_1  and  C_2
REMARK    2  A    between atoms: N_4  and  C_5
REMARK    3  A    between atoms: C_8  and  S_9
REMARK    4  A    between atoms: S_9  and  N_12
REMARK    5  A    between atoms: N_12  and  C_13
REMARK    6  A    between atoms: C_16  and  N_17
REMARK    7  A    between atoms: N_17  and  C_18
REMARK                            x       y       z     vdW  Elec       q    Type
REMARK                         _______ _______ _______ _____ _____    ______ ____
ROOT
ATOM      1  C   UNL     1       1.045   9.746  19.130  0.00  0.00    +0.000 A 
ATOM      2  C   UNL     1       1.514   8.985  18.065  0.00  0.00    +0.000 A 
ATOM      3  C   UNL     1       2.165   7.769  18.317  0.00  0.00    +0.000 A 
ATOM      4  C   UNL     1       2.321   7.301  19.631  0.00  0.00    +0.000 A 
ATOM      5  C   UNL     1       1.648   7.976  20.645  0.00  0.00    +0.000 A 
ATOM      6  C   UNL     1       1.081   9.231  20.420  0.00  0.00    +0.000 A 
ENDROOT
BRANCH   1   7
ATOM      7  N   UNL     1       0.483  11.023  18.886  0.00  0.00    +0.000 N 
ATOM      8  H   UNL     1       0.681  11.469  17.991  0.00  0.00    +0.000 HD
BRANCH   7   9
ATOM      9  S   UNL     1      -1.114  11.303  19.352  0.00  0.00    +0.000 S 
ATOM     10  O   UNL     1      -1.285  12.711  19.666  0.00  0.00    +0.000 OA
ATOM     11  O   UNL     1      -1.437  10.271  20.292  0.00  0.00    +0.000 OA
BRANCH   9  15
ATOM     12  C   UNL     1      -3.423  10.315  15.515  0.00  0.00    +0.000 A 
ATOM     13  C   UNL     1      -2.277   9.610  15.871  0.00  0.00    +0.000 A 
ATOM     14  C   UNL     1      -1.567   9.919  17.035  0.00  0.00    +0.000 A 
ATOM     15  C   UNL     1      -2.013  10.948  17.862  0.00  0.00    +0.000 A 
ATOM     16  C   UNL     1      -3.165  11.660  17.536  0.00  0.00    +0.000 A 
ATOM     17  C   UNL     1      -3.862  11.355  16.353  0.00  0.00    +0.000 A 
BRANCH  12  21
ATOM     18  C   UNL     1      -4.669   9.695  12.001  0.00  0.00    +0.000 C 
ATOM     19  C   UNL     1      -3.624   9.772  13.077  0.00  0.00    +0.000 C 
ATOM     20  O   UNL     1      -2.439   9.603  12.815  0.00  0.00    +0.000 OA
ATOM     21  N   UNL     1      -4.156  10.058  14.334  0.00  0.00    +0.000 N 
ATOM     22  H   UNL     1      -5.162  10.014  14.425  0.00  0.00    +0.000 HD
ENDBRANCH  12  21
ENDBRANCH   9  15
ENDBRANCH   7   9
ENDBRANCH   1   7
BRANCH   4  23
ATOM     23  N   UNL     1       3.186   6.218  19.893  0.00  0.00    +0.000 N 
ATOM     24  H   UNL     1       3.113   5.923  20.864  0.00  0.00    +0.000 HD
BRANCH  23  25
ATOM     25  C   UNL     1       3.612   5.099  19.087  0.00  0.00    +0.000 A 
ATOM     26  C   UNL     1       4.281   5.180  17.806  0.00  0.00    +0.000 A 
ATOM     27  C   UNL     1       4.457   6.284  16.928  0.00  0.00    +0.000 A 
ATOM     28  C   UNL     1       5.280   6.229  15.801  0.00  0.00    +0.000 A 
ATOM     29  C   UNL     1       5.917   5.044  15.488  0.00  0.00    +0.000 A 
ATOM     30  C   UNL     1       5.585   3.899  16.201  0.00  0.00    +0.000 A 
ATOM     31  C   UNL     1       4.686   3.958  17.257  0.00  0.00    +0.000 A 
ATOM     32  N   UNL     1       4.068   2.833  17.596  0.00  0.00    +0.000 NA
ATOM     33  C   UNL     1       3.070   2.977  18.465  0.00  0.00    +0.000 A 
ATOM     34  C   UNL     1       1.741   2.815  18.078  0.00  0.00    +0.000 A 
ATOM     35  C   UNL     1       0.699   3.069  18.976  0.00  0.00    +0.000 A 
ATOM     36  C   UNL     1       1.021   3.256  20.312  0.00  0.00    +0.000 A 
ATOM     37  C   UNL     1       2.342   3.549  20.620  0.00  0.00    +0.000 A 
ATOM     38  C   UNL     1       3.194   3.808  19.533  0.00  0.00    +0.000 A 
ENDBRANCH  23  25
ENDBRANCH   4  23
TORSDOF 6
ENDMDL
MODEL 5
REMARK VINA RESULT:     -10.0      0.923      3.146
REMARK  Name = 
REMARK  7 active torsions:
REMARK  status: ('A' for Active; 'I' for Inactive)
REMARK    1  A    between atoms: C_1  and  C_2
REMARK    2  A    between atoms: N_4  and  C_5
REMARK    3  A    between atoms: C_8  and  S_9
REMARK    4  A    between atoms: S_9  and  N_12
REMARK    5  A    between atoms: N_12  and  C_13
REMARK    6  A    between atoms: C_16  and  N_17
REMARK    7  A    between atoms: N_17  and  C_18
REMARK                            x       y       z     vdW  Elec       q    Type
REMARK                         _______ _______ _______ _____ _____    ______ ____
ROOT
ATOM      1  C   UNL     1       0.278  10.159  19.560  0.00  0.00    +0.000 A 
ATOM      2  C   UNL     1       0.669   9.990  18.237  0.00  0.00    +0.000 A 
ATOM      3  C   UNL     1       1.595   8.987  17.912  0.00  0.00    +0.000 A 
ATOM      4  C   UNL     1       2.105   8.138  18.906  0.00  0.00    +0.000 A 
ATOM      5  C   UNL     1       1.527   8.194  20.170  0.00  0.00    +0.000 A 
ATOM      6  C   UNL     1       0.679   9.245  20.525  0.00  0.00    +0.000 A 
ENDROOT
BRANCH   1   7
ATOM      7  N   UNL     1      -0.573  11.237  19.907  0.00  0.00    +0.000 N 
ATOM      8  H   UNL     1      -0.144  12.083  20.281  0.00  0.00    +0.000 HD
BRANCH   7   9
ATOM      9  S   UNL     1      -1.848  11.622  18.872  0.00  0.00    +0.000 S 
ATOM     10  O   UNL     1      -2.372  10.404  18.280  0.00  0.00    +0.000 OA
ATOM     11  O   UNL     1      -1.389  12.718  18.072  0.00  0.00    +0.000 OA
BRANCH   9  15
ATOM     12  C   UNL     1      -5.039  13.249  21.736  0.00  0.00    +0.000 A 
ATOM     13  C   UNL     1      -5.369  12.829  20.450  0.00  0.00    +0.000 A 
ATOM     14  C   UNL     1      -4.394  12.343  19.574  0.00  0.00    +0.000 A 
ATOM     15  C   UNL     1      -3.066  12.271  19.991  0.00  0.00    +0.000 A 
ATOM     16  C   UNL     1      -2.712  12.673  21.276  0.00  0.00    +0.000 A 
ATOM     17  C   UNL     1      -3.696  13.177  22.145  0.00  0.00    +0.000 A 
BRANCH  12  21
ATOM     18  C   UNL     1      -7.746  13.878  24.298  0.00  0.00    +0.000 C 
ATOM     19  C   UNL     1      -6.717  13.046  23.585  0.00  0.00    +0.000 C 
ATOM     20  O   UNL     1      -6.588  11.854  23.838  0.00  0.00    +0.000 OA
ATOM     21  N   UNL     1      -5.985  13.773  22.646  0.00  0.00    +0.000 N 
ATOM     22  H   UNL     1      -6.093  14.777  22.661  0.00  0.00    +0.000 HD
ENDBRANCH  12  21
ENDBRANCH   9  15
ENDBRANCH   7   9
ENDBRANCH   1   7
BRANCH   4  23
ATOM     23  N   UNL     1       3.211   7.308  18.621  0.00  0.00    +0.000 N 
ATOM     24  H   UNL     1       3.964   7.469  19.286  0.00  0.00    +0.000 HD
BRANCH  23  25
ATOM     25  C   UNL     1       3.308   5.963  18.108  0.00  0.00    +0.000 A 
ATOM     26  C   UNL     1       2.574   4.814  18.594  0.00  0.00    +0.000 A 
ATOM     27  C   UNL     1       1.813   4.643  19.783  0.00  0.00    +0.000 A 
ATOM     28  C   UNL     1       1.023   3.516  20.019  0.00  0.00    +0.000 A 
ATOM     29  C   UNL     1       1.010   2.495  19.088  0.00  0.00    +0.000 A 
ATOM     30  C   UNL     1       1.912   2.541  18.033  0.00  0.00    +0.000 A 
ATOM     31  C   UNL     1       2.759   3.628  17.873  0.00  0.00    +0.000 A 
ATOM     32  N   UNL     1       3.869   3.439  17.169  0.00  0.00    +0.000 NA
ATOM     33  C   UNL     1       4.746   4.439  17.219  0.00  0.00    +0.000 A 
ATOM     34  C   UNL     1       5.950   4.316  17.910  0.00  0.00    +0.000 A 
ATOM     35  C   UNL     1       6.816   5.408  18.039  0.00  0.00    +0.000 A 
ATOM     36  C   UNL     1       6.560   6.535  17.272  0.00  0.00    +0.000 A 
ATOM     37  C   UNL     1       5.294   6.665  16.721  0.00  0.00    +0.000 A 
ATOM     38  C   UNL     1       4.332   5.731  17.140  0.00  0.00    +0.000 A 
ENDBRANCH  23  25
ENDBRANCH   4  23
TORSDOF 6
ENDMDL
MODEL 6
REMARK VINA RESULT:      -9.9      0.711      1.075
REMARK  Name = 
REMARK  7 active torsions:
REMARK  status: ('A' for Active; 'I' for Inactive)
REMARK    1  A    between atoms: C_1  and  C_2
REMARK    2  A    between atoms: N_4  and  C_5
REMARK    3  A    between atoms: C_8  and  S_9
REMARK    4  A    between atoms: S_9  and  N_12
REMARK    5  A    between atoms: N_12  and  C_13
REMARK    6  A    between atoms: C_16  and  N_17
REMARK    7  A    between atoms: N_17  and  C_18
REMARK                            x       y       z     vdW  Elec       q    Type
REMARK                         _______ _______ _______ _____ _____    ______ ____
ROOT
ATOM      1  C   UNL     1       0.747  10.125  19.485  0.00  0.00    +0.000 A 
ATOM      2  C   UNL     1       0.834   9.238  20.551  0.00  0.00    +0.000 A 
ATOM      3  C   UNL     1       1.404   7.972  20.354  0.00  0.00    +0.000 A 
ATOM      4  C   UNL     1       1.912   7.606  19.099  0.00  0.00    +0.000 A 
ATOM      5  C   UNL     1       2.007   8.593  18.122  0.00  0.00    +0.000 A 
ATOM      6  C   UNL     1       1.360   9.820  18.277  0.00  0.00    +0.000 A 
ENDROOT
BRANCH   1   7
ATOM      7  N   UNL     1       0.076  11.361  19.653  0.00  0.00    +0.000 N 
ATOM      8  H   UNL     1       0.639  12.186  19.859  0.00  0.00    +0.000 HD
BRANCH   7   9
ATOM      9  S   UNL     1      -1.182  11.746  18.597  0.00  0.00    +0.000 S 
ATOM     10  O   UNL     1      -1.623  10.541  17.915  0.00  0.00    +0.000 OA
ATOM     11  O   UNL     1      -0.753  12.910  17.881  0.00  0.00    +0.000 OA
BRANCH   9  15
ATOM     12  C   UNL     1      -4.458  13.137  21.489  0.00  0.00    +0.000 A 
ATOM     13  C   UNL     1      -3.114  13.163  21.852  0.00  0.00    +0.000 A 
ATOM     14  C   UNL     1      -2.117  12.729  20.974  0.00  0.00    +0.000 A 
ATOM     15  C   UNL     1      -2.467  12.264  19.708  0.00  0.00    +0.000 A 
ATOM     16  C   UNL     1      -3.803  12.240  19.315  0.00  0.00    +0.000 A 
ATOM     17  C   UNL     1      -4.802  12.662  20.212  0.00  0.00    +0.000 A 
BRANCH  12  21
ATOM     18  C   UNL     1      -7.060  13.545  24.200  0.00  0.00    +0.000 C 
ATOM     19  C   UNL     1      -5.796  12.995  23.602  0.00  0.00    +0.000 C 
ATOM     20  O   UNL     1      -5.139  12.147  24.194  0.00  0.00    +0.000 OA
ATOM     21  N   UNL     1      -5.502  13.539  22.352  0.00  0.00    +0.000 N 
ATOM     22  H   UNL     1      -6.047  14.340  22.064  0.00  0.00    +0.000 HD
ENDBRANCH  12  21
ENDBRANCH   9  15
ENDBRANCH   7   9
ENDBRANCH   1   7
BRANCH   4  23
ATOM     23  N   UNL     1       2.250   6.260  18.843  0.00  0.00    +0.000 N 
ATOM     24  H   UNL     1       1.780   5.922  18.006  0.00  0.00    +0.000 HD
BRANCH  23  25
ATOM     25  C   UNL     1       3.468   5.511  19.040  0.00  0.00    +0.000 A 
ATOM     26  C   UNL     1       4.757   5.815  18.456  0.00  0.00    +0.000 A 
ATOM     27  C   UNL     1       5.102   6.706  17.404  0.00  0.00    +0.000 A 
ATOM     28  C   UNL     1       6.426   7.008  17.074  0.00  0.00    +0.000 A 
ATOM     29  C   UNL     1       7.451   6.386  17.760  0.00  0.00    +0.000 A 
ATOM     30  C   UNL     1       7.139   5.353  18.635  0.00  0.00    +0.000 A 
ATOM     31  C   UNL     1       5.818   5.002  18.872  0.00  0.00    +0.000 A 
ATOM     32  N   UNL     1       5.583   3.776  19.325  0.00  0.00    +0.000 NA
ATOM     33  C   UNL     1       4.302   3.414  19.338  0.00  0.00    +0.000 A 
ATOM     34  C   UNL     1       3.806   2.467  18.443  0.00  0.00    +0.000 A 
ATOM     35  C   UNL     1       2.439   2.171  18.401  0.00  0.00    +0.000 A 
ATOM     36  C   UNL     1       1.634   2.664  19.418  0.00  0.00    +0.000 A 
ATOM     37  C   UNL     1       2.136   3.702  20.189  0.00  0.00    +0.000 A 
ATOM     38  C   UNL     1       3.340   4.280  19.753  0.00  0.00    +0.000 A 
ENDBRANCH  23  25
ENDBRANCH   4  23
TORSDOF 6
ENDMDL
MODEL 7
REMARK VINA RESULT:      -9.9      1.557      1.983
REMARK  Name = 
REMARK  7 active torsions:
REMARK  status: ('A' for Active; 'I' for Inactive)
REMARK    1  A    between atoms: C_1  and  C_2
REMARK    2  A    between atoms: N_4  and  C_5
REMARK    3  A    between atoms: C_8  and  S_9
REMARK    4  A    between atoms: S_9  and  N_12
REMARK    5  A    between atoms: N_12  and  C_13
REMARK    6  A    between atoms: C_16  and  N_17
REMARK    7  A    between atoms: N_17  and  C_18
REMARK                            x       y       z     vdW  Elec       q    Type
REMARK                         _______ _______ _______ _____ _____    ______ ____
ROOT
ATOM      1  C   UNL     1       0.673   9.418  19.927  0.00  0.00    +0.000 A 
ATOM      2  C   UNL     1       1.426   9.175  18.784  0.00  0.00    +0.000 A 
ATOM      3  C   UNL     1       2.286   8.068  18.743  0.00  0.00    +0.000 A 
ATOM      4  C   UNL     1       2.370   7.189  19.833  0.00  0.00    +0.000 A 
ATOM      5  C   UNL     1       1.445   7.338  20.862  0.00  0.00    +0.000 A 
ATOM      6  C   UNL     1       0.655   8.486  20.956  0.00  0.00    +0.000 A 
ENDROOT
BRANCH   1   7
ATOM      7  N   UNL     1      -0.114  10.592  20.013  0.00  0.00    +0.000 N 
ATOM      8  H   UNL     1       0.243  11.367  20.572  0.00  0.00    +0.000 HD
BRANCH   7   9
ATOM      9  S   UNL     1      -0.866  11.162  18.614  0.00  0.00    +0.000 S 
ATOM     10  O   UNL     1      -1.221  10.037  17.766  0.00  0.00    +0.000 OA
ATOM     11  O   UNL     1      -0.052  12.241  18.141  0.00  0.00    +0.000 OA
BRANCH   9  15
ATOM     12  C   UNL     1      -4.762  12.955  20.236  0.00  0.00    +0.000 A 
ATOM     13  C   UNL     1      -4.752  12.163  19.091  0.00  0.00    +0.000 A 
ATOM     14  C   UNL     1      -3.563  11.626  18.591  0.00  0.00    +0.000 A 
ATOM     15  C   UNL     1      -2.361  11.880  19.249  0.00  0.00    +0.000 A 
ATOM     16  C   UNL     1      -2.345  12.657  20.404  0.00  0.00    +0.000 A 
ATOM     17  C   UNL     1      -3.544  13.209  20.890  0.00  0.00    +0.000 A 
BRANCH  12  21
ATOM     18  C   UNL     1      -7.911  13.875  22.114  0.00  0.00    +0.000 C 
ATOM     19  C   UNL     1      -6.619  13.136  21.909  0.00  0.00    +0.000 C 
ATOM     20  O   UNL     1      -6.260  12.268  22.696  0.00  0.00    +0.000 OA
ATOM     21  N   UNL     1      -5.935  13.542  20.763  0.00  0.00    +0.000 N 
ATOM     22  H   UNL     1      -6.273  14.374  20.301  0.00  0.00    +0.000 HD
ENDBRANCH  12  21
ENDBRANCH   9  15
ENDBRANCH   7   9
ENDBRANCH   1   7
BRANCH   4  23
ATOM     23  N   UNL     1       3.408   6.234  19.888  0.00  0.00    +0.000 N 
ATOM     24  H   UNL     1       3.657   6.025  20.852  0.00  0.00    +0.000 HD
BRANCH  23  25
ATOM     25  C   UNL     1       3.724   5.097  19.058  0.00  0.00    +0.000 A 
ATOM     26  C   UNL     1       4.308   5.147  17.734  0.00  0.00    +0.000 A 
ATOM     27  C   UNL     1       4.478   6.242  16.844  0.00  0.00    +0.000 A 
ATOM     28  C   UNL     1       5.220   6.149  15.665  0.00  0.00    +0.000 A 
ATOM     29  C   UNL     1       5.777   4.934  15.312  0.00  0.00    +0.000 A 
ATOM     30  C   UNL     1       5.439   3.806  16.049  0.00  0.00    +0.000 A 
ATOM     31  C   UNL     1       4.617   3.907  17.162  0.00  0.00    +0.000 A 
ATOM     32  N   UNL     1       3.970   2.813  17.545  0.00  0.00    +0.000 NA
ATOM     33  C   UNL     1       3.040   3.004  18.478  0.00  0.00    +0.000 A 
ATOM     34  C   UNL     1       1.682   2.906  18.181  0.00  0.00    +0.000 A 
ATOM     35  C   UNL     1       0.715   3.209  19.147  0.00  0.00    +0.000 A 
ATOM     36  C   UNL     1       1.136   3.380  20.458  0.00  0.00    +0.000 A 
ATOM     37  C   UNL     1       2.486   3.609  20.675  0.00  0.00    +0.000 A 
ATOM     38  C   UNL     1       3.275   3.827  19.534  0.00  0.00    +0.000 A 
ENDBRANCH  23  25
ENDBRANCH   4  23
TORSDOF 6
ENDMDL
MODEL 8
REMARK VINA RESULT:      -9.8      1.317      3.355
REMARK  Name = 
REMARK  7 active torsions:
REMARK  status: ('A' for Active; 'I' for Inactive)
REMARK    1  A    between atoms: C_1  and  C_2
REMARK    2  A    between atoms: N_4  and  C_5
REMARK    3  A    between atoms: C_8  and  S_9
REMARK    4  A    between atoms: S_9  and  N_12
REMARK    5  A    between atoms: N_12  and  C_13
REMARK    6  A    between atoms: C_16  and  N_17
REMARK    7  A    between atoms: N_17  and  C_18
REMARK                            x       y       z     vdW  Elec       q    Type
REMARK                         _______ _______ _______ _____ _____    ______ ____
ROOT
ATOM      1  C   UNL     1       0.305  10.022  19.375  0.00  0.00    +0.000 A 
ATOM      2  C   UNL     1       0.800   9.806  18.094  0.00  0.00    +0.000 A 
ATOM      3  C   UNL     1       1.760   8.805  17.882  0.00  0.00    +0.000 A 
ATOM      4  C   UNL     1       2.202   8.004  18.946  0.00  0.00    +0.000 A 
ATOM      5  C   UNL     1       1.527   8.102  20.159  0.00  0.00    +0.000 A 
ATOM      6  C   UNL     1       0.641   9.153  20.404  0.00  0.00    +0.000 A 
ENDROOT
BRANCH   1   7
ATOM      7  N   UNL     1      -0.583  11.100  19.611  0.00  0.00    +0.000 N 
ATOM      8  H   UNL     1      -1.575  10.889  19.711  0.00  0.00    +0.000 HD
BRANCH   7   9
ATOM      9  S   UNL     1      -0.117  12.305  20.695  0.00  0.00    +0.000 S 
ATOM     10  O   UNL     1       0.239  13.505  19.958  0.00  0.00    +0.000 OA
ATOM     11  O   UNL     1       0.790  11.680  21.612  0.00  0.00    +0.000 OA
BRANCH   9  15
ATOM     12  C   UNL     1      -4.037  13.116  22.932  0.00  0.00    +0.000 A 
ATOM     13  C   UNL     1      -3.773  13.705  21.699  0.00  0.00    +0.000 A 
ATOM     14  C   UNL     1      -2.574  13.466  21.023  0.00  0.00    +0.000 A 
ATOM     15  C   UNL     1      -1.621  12.619  21.586  0.00  0.00    +0.000 A 
ATOM     16  C   UNL     1      -1.865  12.007  22.813  0.00  0.00    +0.000 A 
ATOM     17  C   UNL     1      -3.067  12.268  23.495  0.00  0.00    +0.000 A 
BRANCH  12  21
ATOM     18  C   UNL     1      -7.564  13.404  24.260  0.00  0.00    +0.000 C 
ATOM     19  C   UNL     1      -6.489  12.848  23.370  0.00  0.00    +0.000 C 
ATOM     20  O   UNL     1      -6.760  12.046  22.483  0.00  0.00    +0.000 OA
ATOM     21  N   UNL     1      -5.222  13.350  23.666  0.00  0.00    +0.000 N 
ATOM     22  H   UNL     1      -5.129  13.879  24.522  0.00  0.00    +0.000 HD
ENDBRANCH  12  21
ENDBRANCH   9  15
ENDBRANCH   7   9
ENDBRANCH   1   7
BRANCH   4  23
ATOM     23  N   UNL     1       3.336   7.181  18.781  0.00  0.00    +0.000 N 
ATOM     24  H   UNL     1       3.946   7.238  19.594  0.00  0.00    +0.000 HD
BRANCH  23  25
ATOM     25  C   UNL     1       3.522   5.903  18.136  0.00  0.00    +0.000 A 
ATOM     26  C   UNL     1       2.855   4.668  18.489  0.00  0.00    +0.000 A 
ATOM     27  C   UNL     1       2.093   4.331  19.640  0.00  0.00    +0.000 A 
ATOM     28  C   UNL     1       1.372   3.139  19.745  0.00  0.00    +0.000 A 
ATOM     29  C   UNL     1       1.433   2.220  18.715  0.00  0.00    +0.000 A 
ATOM     30  C   UNL     1       2.343   2.429  17.687  0.00  0.00    +0.000 A 
ATOM     31  C   UNL     1       3.123   3.576  17.654  0.00  0.00    +0.000 A 
ATOM     32  N   UNL     1       4.250   3.528  16.955  0.00  0.00    +0.000 NA
ATOM     33  C   UNL     1       5.063   4.569  17.122  0.00  0.00    +0.000 A 
ATOM     34  C   UNL     1       6.264   4.448  17.819  0.00  0.00    +0.000 A 
ATOM     35  C   UNL     1       7.059   5.571  18.074  0.00  0.00    +0.000 A 
ATOM     36  C   UNL     1       6.743   6.754  17.422  0.00  0.00    +0.000 A 
ATOM     37  C   UNL     1       5.478   6.863  16.864  0.00  0.00    +0.000 A 
ATOM     38  C   UNL     1       4.570   5.835  17.168  0.00  0.00    +0.000 A 
ENDBRANCH  23  25
ENDBRANCH   4  23
TORSDOF 6
ENDMDL
MODEL 9
REMARK VINA RESULT:      -9.8      1.204      3.258
REMARK  Name = 
REMARK  7 active torsions:
REMARK  status: ('A' for Active; 'I' for Inactive)
REMARK    1  A    between atoms: C_1  and  C_2
REMARK    2  A    between atoms: N_4  and  C_5
REMARK    3  A    between atoms: C_8  and  S_9
REMARK    4  A    between atoms: S_9  and  N_12
REMARK    5  A    between atoms: N_12  and  C_13
REMARK    6  A    between atoms: C_16  and  N_17
REMARK    7  A    between atoms: N_17  and  C_18
REMARK                            x       y       z     vdW  Elec       q    Type
REMARK                         _______ _______ _______ _____ _____    ______ ____
ROOT
ATOM      1  C   UNL     1      -0.118   9.912  19.462  0.00  0.00    +0.000 A 
ATOM      2  C   UNL     1       0.375   9.274  20.595  0.00  0.00    +0.000 A 
ATOM      3  C   UNL     1       1.488   8.429  20.484  0.00  0.00    +0.000 A 
ATOM      4  C   UNL     1       2.125   8.245  19.247  0.00  0.00    +0.000 A 
ATOM      5  C   UNL     1       1.742   9.066  18.190  0.00  0.00    +0.000 A 
ATOM      6  C   UNL     1       0.580   9.836  18.264  0.00  0.00    +0.000 A 
ENDROOT
BRANCH   1   7
ATOM      7  N   UNL     1      -1.305  10.680  19.550  0.00  0.00    +0.000 N 
ATOM      8  H   UNL     1      -2.032  10.364  20.192  0.00  0.00    +0.000 HD
BRANCH   7   9
ATOM      9  S   UNL     1      -1.176  12.362  19.575  0.00  0.00    +0.000 S 
ATOM     10  O   UNL     1      -1.375  12.879  18.232  0.00  0.00    +0.000 OA
ATOM     11  O   UNL     1       0.001  12.655  20.335  0.00  0.00    +0.000 OA
BRANCH   9  15
ATOM     12  C   UNL     1      -4.733  13.645  22.169  0.00  0.00    +0.000 A 
ATOM     13  C   UNL     1      -3.422  13.798  22.613  0.00  0.00    +0.000 A 
ATOM     14  C   UNL     1      -2.339  13.397  21.826  0.00  0.00    +0.000 A 
ATOM     15  C   UNL     1      -2.568  12.836  20.570  0.00  0.00    +0.000 A 
ATOM     16  C   UNL     1      -3.869  12.684  20.098  0.00  0.00    +0.000 A 
ATOM     17  C   UNL     1      -4.954  13.073  20.904  0.00  0.00    +0.000 A 
BRANCH  12  21
ATOM     18  C   UNL     1      -7.823  13.828  24.338  0.00  0.00    +0.000 C 
ATOM     19  C   UNL     1      -6.595  13.169  23.776  0.00  0.00    +0.000 C 
ATOM     20  O   UNL     1      -6.325  12.006  24.051  0.00  0.00    +0.000 OA
ATOM     21  N   UNL     1      -5.860  14.009  22.940  0.00  0.00    +0.000 N 
ATOM     22  H   UNL     1      -6.118  14.986  22.934  0.00  0.00    +0.000 HD
ENDBRANCH  12  21
ENDBRANCH   9  15
ENDBRANCH   7   9
ENDBRANCH   1   7
BRANCH   4  23
ATOM     23  N   UNL     1       3.074   7.213  19.091  0.00  0.00    +0.000 N 
ATOM     24  H   UNL     1       3.678   7.151  19.908  0.00  0.00    +0.000 HD
BRANCH  23  25
ATOM     25  C   UNL     1       3.007   5.922  18.450  0.00  0.00    +0.000 A 
ATOM     26  C   UNL     1       2.304   4.760  18.950  0.00  0.00    +0.000 A 
ATOM     27  C   UNL     1       1.748   4.503  20.233  0.00  0.00    +0.000 A 
ATOM     28  C   UNL     1       0.949   3.389  20.500  0.00  0.00    +0.000 A 
ATOM     29  C   UNL     1       0.721   2.466  19.497  0.00  0.00    +0.000 A 
ATOM     30  C   UNL     1       1.431   2.581  18.310  0.00  0.00    +0.000 A 
ATOM     31  C   UNL     1       2.298   3.645  18.104  0.00  0.00    +0.000 A 
ATOM     32  N   UNL     1       3.260   3.483  17.203  0.00  0.00    +0.000 NA
ATOM     33  C   UNL     1       4.187   4.439  17.189  0.00  0.00    +0.000 A 
ATOM     34  C   UNL     1       5.482   4.200  17.645  0.00  0.00    +0.000 A 
ATOM     35  C   UNL     1       6.416   5.240  17.719  0.00  0.00    +0.000 A 
ATOM     36  C   UNL     1       6.097   6.447  17.114  0.00  0.00    +0.000 A 
ATOM     37  C   UNL     1       4.765   6.679  16.807  0.00  0.00    +0.000 A 
ATOM     38  C   UNL     1       3.837   5.747  17.301  0.00  0.00    +0.000 A 
ENDBRANCH  23  25
ENDBRANCH   4  23
TORSDOF 6
ENDMDL
