MODEL 1
REMARK VINA RESULT:      -9.8      0.000      0.000
REMARK  Name = 
REMARK  8 active torsions:
REMARK  status: ('A' for Active; 'I' for Inactive)
REMARK    1  A    between atoms: C_1  and  C_2
REMARK    2  A    between atoms: C_2  and  C_3
REMARK    3  A    between atoms: C_12  and  C_13
REMARK    4  A    between atoms: C_13  and  C_14
REMARK    5  A    between atoms: C_20  and  O_21
REMARK    6  A    between atoms: O_21  and  C_22
REMARK    7  A    between atoms: C_23  and  O_24
REMARK    8  A    between atoms: O_24  and  C_25
REMARK                            x       y       z     vdW  Elec       q    Type
REMARK                         _______ _______ _______ _____ _____    ______ ____
ROOT
ATOM      1  C   UNL     1       0.034  11.042  19.052  0.00  0.00    +0.000 C 
ATOM      2  C   UNL     1      -0.502  11.171  20.472  0.00  0.00    +0.000 A 
ATOM      3  C   UNL     1      -1.315  12.156  20.997  0.00  0.00    +0.000 A 
ATOM      4  C   UNL     1      -1.716  12.035  22.328  0.00  0.00    +0.000 A 
ATOM      5  C   UNL     1      -1.299  10.947  23.114  0.00  0.00    +0.000 A 
ATOM      6  C   UNL     1      -0.459   9.964  22.581  0.00  0.00    +0.000 A 
ATOM      7  C   UNL     1      -0.056  10.081  21.260  0.00  0.00    +0.000 A 
ATOM      8  C   UNL     1       0.775   9.223  20.446  0.00  0.00    +0.000 A 
ATOM      9  C   UNL     1       1.436   8.046  20.758  0.00  0.00    +0.000 A 
ATOM     10  C   UNL     1       2.144   7.371  19.749  0.00  0.00    +0.000 A 
ATOM     11  C   UNL     1       2.183   7.912  18.445  0.00  0.00    +0.000 A 
ATOM     12  C   UNL     1       1.534   9.110  18.134  0.00  0.00    +0.000 A 
ATOM     13  C   UNL     1       0.834   9.752  19.139  0.00  0.00    +0.000 A 
ENDROOT
BRANCH   1  15
ATOM     14  C   UNL     1      -2.113   9.937  18.145  0.00  0.00    +0.000 C 
ATOM     15  C   UNL     1      -1.058  11.025  17.973  0.00  0.00    +0.000 C 
ENDBRANCH   1  15
BRANCH  10  16
ATOM     16  C   UNL     1       2.858   6.075  20.060  0.00  0.00    +0.000 C 
BRANCH  16  17
ATOM     17  C   UNL     1       3.003   5.138  18.885  0.00  0.00    +0.000 A 
ATOM     18  C   UNL     1       1.941   4.279  18.590  0.00  0.00    +0.000 A 
ATOM     19  N   UNL     1       1.915   3.419  17.552  0.00  0.00    +0.000 NA
ATOM     20  C   UNL     1       3.008   3.413  16.761  0.00  0.00    +0.000 A 
ATOM     21  C   UNL     1       4.135   4.216  16.953  0.00  0.00    +0.000 A 
ATOM     22  C   UNL     1       5.238   4.163  16.086  0.00  0.00    +0.000 A 
ATOM     23  C   UNL     1       6.415   4.923  16.273  0.00  0.00    +0.000 A 
ATOM     24  C   UNL     1       6.482   5.752  17.393  0.00  0.00    +0.000 A 
ATOM     25  C   UNL     1       5.343   5.837  18.237  0.00  0.00    +0.000 A 
ATOM     26  C   UNL     1       4.153   5.089  18.049  0.00  0.00    +0.000 A 
BRANCH  23  27
ATOM     27  O   UNL     1       7.283   4.592  15.280  0.00  0.00    +0.000 OA
ATOM     28  C   UNL     1       7.041   4.804  13.914  0.00  0.00    +0.000 C 
ENDBRANCH  23  27
BRANCH  24  29
ATOM     29  O   UNL     1       7.545   6.379  17.981  0.00  0.00    +0.000 OA
ATOM     30  C   UNL     1       7.812   7.749  17.771  0.00  0.00    +0.000 C 
ENDBRANCH  24  29
ENDBRANCH  16  17
ENDBRANCH  10  16
TORSDOF 5
ENDMDL
MODEL 2
REMARK VINA RESULT:      -9.0      4.092      9.042
REMARK  Name = 
REMARK  8 active torsions:
REMARK  status: ('A' for Active; 'I' for Inactive)
REMARK    1  A    between atoms: C_1  and  C_2
REMARK    2  A    between atoms: C_2  and  C_3
REMARK    3  A    between atoms: C_12  and  C_13
REMARK    4  A    between atoms: C_13  and  C_14
REMARK    5  A    between atoms: C_20  and  O_21
REMARK    6  A    between atoms: O_21  and  C_22
REMARK    7  A    between atoms: C_23  and  O_24
REMARK    8  A    between atoms: O_24  and  C_25
REMARK                            x       y       z     vdW  Elec       q    Type
REMARK                         _______ _______ _______ _____ _____    ______ ____
ROOT
ATOM      1  C   UNL     1       2.535   5.149  20.376  0.00  0.00    +0.000 C 
ATOM      2  C   UNL     1       3.364   4.819  19.141  0.00  0.00    +0.000 A 
ATOM      3  C   UNL     1       4.018   3.642  18.835  0.00  0.00    +0.000 A 
ATOM      4  C   UNL     1       4.684   3.561  17.612  0.00  0.00    +0.000 A 
ATOM      5  C   UNL     1       4.695   4.646  16.720  0.00  0.00    +0.000 A 
ATOM      6  C   UNL     1       4.047   5.842  17.045  0.00  0.00    +0.000 A 
ATOM      7  C   UNL     1       3.386   5.929  18.261  0.00  0.00    +0.000 A 
ATOM      8  C   UNL     1       2.624   7.008  18.847  0.00  0.00    +0.000 A 
ATOM      9  C   UNL     1       2.355   8.283  18.376  0.00  0.00    +0.000 A 
ATOM     10  C   UNL     1       1.527   9.131  19.132  0.00  0.00    +0.000 A 
ATOM     11  C   UNL     1       1.002   8.676  20.362  0.00  0.00    +0.000 A 
ATOM     12  C   UNL     1       1.289   7.397  20.847  0.00  0.00    +0.000 A 
ATOM     13  C   UNL     1       2.097   6.575  20.083  0.00  0.00    +0.000 A 
ENDROOT
BRANCH   1  15
ATOM     14  C   UNL     1       1.681   3.032  21.577  0.00  0.00    +0.000 C 
ATOM     15  C   UNL     1       1.370   4.179  20.621  0.00  0.00    +0.000 C 
ENDBRANCH   1  15
BRANCH  10  16
ATOM     16  C   UNL     1       1.203  10.521  18.631  0.00  0.00    +0.000 C 
BRANCH  16  17
ATOM     17  C   UNL     1      -0.039  11.133  19.233  0.00  0.00    +0.000 A 
ATOM     18  C   UNL     1       0.068  11.758  20.477  0.00  0.00    +0.000 A 
ATOM     19  N   UNL     1      -0.945  12.378  21.115  0.00  0.00    +0.000 NA
ATOM     20  C   UNL     1      -2.133  12.376  20.479  0.00  0.00    +0.000 A 
ATOM     21  C   UNL     1      -2.372  11.781  19.237  0.00  0.00    +0.000 A 
ATOM     22  C   UNL     1      -3.636  11.822  18.627  0.00  0.00    +0.000 A 
ATOM     23  C   UNL     1      -3.930  11.191  17.397  0.00  0.00    +0.000 A 
ATOM     24  C   UNL     1      -2.907  10.476  16.774  0.00  0.00    +0.000 A 
ATOM     25  C   UNL     1      -1.620  10.482  17.372  0.00  0.00    +0.000 A 
ATOM     26  C   UNL     1      -1.313  11.123  18.599  0.00  0.00    +0.000 A 
BRANCH  23  27
ATOM     27  O   UNL     1      -5.247  11.396  17.131  0.00  0.00    +0.000 OA
ATOM     28  C   UNL     1      -5.955  12.555  17.486  0.00  0.00    +0.000 C 
ENDBRANCH  23  27
BRANCH  24  29
ATOM     29  O   UNL     1      -2.944   9.562  15.757  0.00  0.00    +0.000 OA
ATOM     30  C   UNL     1      -3.016   9.956  14.404  0.00  0.00    +0.000 C 
ENDBRANCH  24  29
ENDBRANCH  16  17
ENDBRANCH  10  16
TORSDOF 5
ENDMDL
MODEL 3
REMARK VINA RESULT:      -8.6      3.998      9.210
REMARK  Name = 
REMARK  8 active torsions:
REMARK  status: ('A' for Active; 'I' for Inactive)
REMARK    1  A    between atoms: C_1  and  C_2
REMARK    2  A    between atoms: C_2  and  C_3
REMARK    3  A    between atoms: C_12  and  C_13
REMARK    4  A    between atoms: C_13  and  C_14
REMARK    5  A    between atoms: C_20  and  O_21
REMARK    6  A    between atoms: O_21  and  C_22
REMARK    7  A    between atoms: C_23  and  O_24
REMARK    8  A    between atoms: O_24  and  C_25
REMARK                            x       y       z     vdW  Elec       q    Type
REMARK                         _______ _______ _______ _____ _____    ______ ____
ROOT
ATOM      1  C   UNL     1       3.470   5.113  19.088  0.00  0.00    +0.000 C 
ATOM      2  C   UNL     1       4.360   5.080  17.852  0.00  0.00    +0.000 A 
ATOM      3  C   UNL     1       5.149   4.046  17.389  0.00  0.00    +0.000 A 
ATOM      4  C   UNL     1       5.849   4.237  16.197  0.00  0.00    +0.000 A 
ATOM      5  C   UNL     1       5.760   5.450  15.493  0.00  0.00    +0.000 A 
ATOM      6  C   UNL     1       4.975   6.500  15.977  0.00  0.00    +0.000 A 
ATOM      7  C   UNL     1       4.280   6.315  17.163  0.00  0.00    +0.000 A 
ATOM      8  C   UNL     1       3.388   7.196  17.882  0.00  0.00    +0.000 A 
ATOM      9  C   UNL     1       2.989   8.495  17.611  0.00  0.00    +0.000 A 
ATOM     10  C   UNL     1       2.054   9.115  18.458  0.00  0.00    +0.000 A 
ATOM     11  C   UNL     1       1.553   8.410  19.575  0.00  0.00    +0.000 A 
ATOM     12  C   UNL     1       1.970   7.108  19.861  0.00  0.00    +0.000 A 
ATOM     13  C   UNL     1       2.882   6.513  19.009  0.00  0.00    +0.000 A 
ENDROOT
BRANCH   1  15
ATOM     14  C   UNL     1       1.438   3.998  17.953  0.00  0.00    +0.000 C 
ATOM     15  C   UNL     1       2.415   3.997  19.125  0.00  0.00    +0.000 C 
ENDBRANCH   1  15
BRANCH  10  16
ATOM     16  C   UNL     1       1.589  10.525  18.173  0.00  0.00    +0.000 C 
BRANCH  16  17
ATOM     17  C   UNL     1       0.654  11.101  19.210  0.00  0.00    +0.000 A 
ATOM     18  C   UNL     1       1.191  11.497  20.437  0.00  0.00    +0.000 A 
ATOM     19  N   UNL     1       0.486  12.060  21.438  0.00  0.00    +0.000 NA
ATOM     20  C   UNL     1      -0.831  12.240  21.206  0.00  0.00    +0.000 A 
ATOM     21  C   UNL     1      -1.488  11.881  20.026  0.00  0.00    +0.000 A 
ATOM     22  C   UNL     1      -2.863  12.103  19.848  0.00  0.00    +0.000 A 
ATOM     23  C   UNL     1      -3.573  11.710  18.691  0.00  0.00    +0.000 A 
ATOM     24  C   UNL     1      -2.865  11.051  17.687  0.00  0.00    +0.000 A 
ATOM     25  C   UNL     1      -1.466  10.875  17.853  0.00  0.00    +0.000 A 
ATOM     26  C   UNL     1      -0.743  11.278  19.005  0.00  0.00    +0.000 A 
BRANCH  23  27
ATOM     27  O   UNL     1      -4.880  12.039  18.876  0.00  0.00    +0.000 OA
ATOM     28  C   UNL     1      -5.425  12.455  20.100  0.00  0.00    +0.000 C 
ENDBRANCH  23  27
BRANCH  24  29
ATOM     29  O   UNL     1      -3.299  10.328  16.611  0.00  0.00    +0.000 OA
ATOM     30  C   UNL     1      -3.183  10.813  15.290  0.00  0.00    +0.000 C 
ENDBRANCH  24  29
ENDBRANCH  16  17
ENDBRANCH  10  16
TORSDOF 5
ENDMDL
MODEL 4
REMARK VINA RESULT:      -8.3      3.968      9.161
REMARK  Name = 
REMARK  8 active torsions:
REMARK  status: ('A' for Active; 'I' for Inactive)
REMARK    1  A    between atoms: C_1  and  C_2
REMARK    2  A    between atoms: C_2  and  C_3
REMARK    3  A    between atoms: C_12  and  C_13
REMARK    4  A    between atoms: C_13  and  C_14
REMARK    5  A    between atoms: C_20  and  O_21
REMARK    6  A    between atoms: O_21  and  C_22
REMARK    7  A    between atoms: C_23  and  O_24
REMARK    8  A    between atoms: O_24  and  C_25
REMARK                            x       y       z     vdW  Elec       q    Type
REMARK                         _______ _______ _______ _____ _____    ______ ____
ROOT
ATOM      1  C   UNL     1       3.771   5.445  19.570  0.00  0.00    +0.000 C 
ATOM      2  C   UNL     1       4.552   5.371  18.263  0.00  0.00    +0.000 A 
ATOM      3  C   UNL     1       5.476   4.426  17.868  0.00  0.00    +0.000 A 
ATOM      4  C   UNL     1       6.033   4.545  16.594  0.00  0.00    +0.000 A 
ATOM      5  C   UNL     1       5.670   5.602  15.742  0.00  0.00    +0.000 A 
ATOM      6  C   UNL     1       4.748   6.568  16.157  0.00  0.00    +0.000 A 
ATOM      7  C   UNL     1       4.194   6.454  17.422  0.00  0.00    +0.000 A 
ATOM      8  C   UNL     1       3.216   7.273  18.103  0.00  0.00    +0.000 A 
ATOM      9  C   UNL     1       2.568   8.429  17.698  0.00  0.00    +0.000 A 
ATOM     10  C   UNL     1       1.606   9.006  18.545  0.00  0.00    +0.000 A 
ATOM     11  C   UNL     1       1.332   8.409  19.796  0.00  0.00    +0.000 A 
ATOM     12  C   UNL     1       2.000   7.255  20.213  0.00  0.00    +0.000 A 
ATOM     13  C   UNL     1       2.935   6.697  19.361  0.00  0.00    +0.000 A 
ENDROOT
BRANCH   1  15
ATOM     14  C   UNL     1       1.890   3.845  18.822  0.00  0.00    +0.000 C 
ATOM     15  C   UNL     1       2.942   4.188  19.871  0.00  0.00    +0.000 C 
ENDBRANCH   1  15
BRANCH  10  16
ATOM     16  C   UNL     1       0.872  10.257  18.119  0.00  0.00    +0.000 C 
BRANCH  16  17
ATOM     17  C   UNL     1       1.416  11.538  18.707  0.00  0.00    +0.000 A 
ATOM     18  C   UNL     1       2.498  12.150  18.071  0.00  0.00    +0.000 A 
ATOM     19  N   UNL     1       3.060  13.312  18.461  0.00  0.00    +0.000 NA
ATOM     20  C   UNL     1       2.516  13.898  19.546  0.00  0.00    +0.000 A 
ATOM     21  C   UNL     1       1.438  13.384  20.273  0.00  0.00    +0.000 A 
ATOM     22  C   UNL     1       0.916  14.051  21.392  0.00  0.00    +0.000 A 
ATOM     23  C   UNL     1      -0.140  13.542  22.182  0.00  0.00    +0.000 A 
ATOM     24  C   UNL     1      -0.670  12.299  21.834  0.00  0.00    +0.000 A 
ATOM     25  C   UNL     1      -0.169  11.655  20.672  0.00  0.00    +0.000 A 
ATOM     26  C   UNL     1       0.880  12.166  19.866  0.00  0.00    +0.000 A 
BRANCH  23  27
ATOM     27  O   UNL     1      -0.357  14.418  23.199  0.00  0.00    +0.000 OA
ATOM     28  C   UNL     1      -0.102  15.796  23.123  0.00  0.00    +0.000 C 
ENDBRANCH  23  27
BRANCH  24  29
ATOM     29  O   UNL     1      -1.475  11.442  22.531  0.00  0.00    +0.000 OA
ATOM     30  C   UNL     1      -0.959  10.308  23.194  0.00  0.00    +0.000 C 
ENDBRANCH  24  29
ENDBRANCH  16  17
ENDBRANCH  10  16
TORSDOF 5
ENDMDL
MODEL 5
REMARK VINA RESULT:      -8.3      4.271      9.491
REMARK  Name = 
REMARK  8 active torsions:
REMARK  status: ('A' for Active; 'I' for Inactive)
REMARK    1  A    between atoms: C_1  and  C_2
REMARK    2  A    between atoms: C_2  and  C_3
REMARK    3  A    between atoms: C_12  and  C_13
REMARK    4  A    between atoms: C_13  and  C_14
REMARK    5  A    between atoms: C_20  and  O_21
REMARK    6  A    between atoms: O_21  and  C_22
REMARK    7  A    between atoms: C_23  and  O_24
REMARK    8  A    between atoms: O_24  and  C_25
REMARK                            x       y       z     vdW  Elec       q    Type
REMARK                         _______ _______ _______ _____ _____    ______ ____
ROOT
ATOM      1  C   UNL     1       2.576   5.327  20.325  0.00  0.00    +0.000 C 
ATOM      2  C   UNL     1       3.415   5.032  19.088  0.00  0.00    +0.000 A 
ATOM      3  C   UNL     1       4.100   3.876  18.770  0.00  0.00    +0.000 A 
ATOM      4  C   UNL     1       4.770   3.826  17.547  0.00  0.00    +0.000 A 
ATOM      5  C   UNL     1       4.754   4.922  16.667  0.00  0.00    +0.000 A 
ATOM      6  C   UNL     1       4.075   6.097  17.005  0.00  0.00    +0.000 A 
ATOM      7  C   UNL     1       3.411   6.152  18.220  0.00  0.00    +0.000 A 
ATOM      8  C   UNL     1       2.620   7.204  18.818  0.00  0.00    +0.000 A 
ATOM      9  C   UNL     1       2.319   8.477  18.361  0.00  0.00    +0.000 A 
ATOM     10  C   UNL     1       1.468   9.295  19.125  0.00  0.00    +0.000 A 
ATOM     11  C   UNL     1       0.953   8.812  20.349  0.00  0.00    +0.000 A 
ATOM     12  C   UNL     1       1.273   7.536  20.820  0.00  0.00    +0.000 A 
ATOM     13  C   UNL     1       2.102   6.744  20.047  0.00  0.00    +0.000 A 
ENDROOT
BRANCH   1  15
ATOM     14  C   UNL     1       1.768   3.185  21.515  0.00  0.00    +0.000 C 
ATOM     15  C   UNL     1       1.436   4.324  20.557  0.00  0.00    +0.000 C 
ENDBRANCH   1  15
BRANCH  10  16
ATOM     16  C   UNL     1       1.110  10.682  18.640  0.00  0.00    +0.000 C 
BRANCH  16  17
ATOM     17  C   UNL     1       0.433  11.554  19.670  0.00  0.00    +0.000 A 
ATOM     18  C   UNL     1       1.217  12.105  20.687  0.00  0.00    +0.000 A 
ATOM     19  N   UNL     1       0.758  12.930  21.650  0.00  0.00    +0.000 NA
ATOM     20  C   UNL     1      -0.557  13.224  21.598  0.00  0.00    +0.000 A 
ATOM     21  C   UNL     1      -1.447  12.733  20.638  0.00  0.00    +0.000 A 
ATOM     22  C   UNL     1      -2.806  13.086  20.639  0.00  0.00    +0.000 A 
ATOM     23  C   UNL     1      -3.746  12.574  19.717  0.00  0.00    +0.000 A 
ATOM     24  C   UNL     1      -3.293  11.654  18.771  0.00  0.00    +0.000 A 
ATOM     25  C   UNL     1      -1.909  11.341  18.746  0.00  0.00    +0.000 A 
ATOM     26  C   UNL     1      -0.956  11.861  19.658  0.00  0.00    +0.000 A 
BRANCH  23  27
ATOM     27  O   UNL     1      -4.963  13.091  20.036  0.00  0.00    +0.000 OA
ATOM     28  C   UNL     1      -5.720  12.702  21.152  0.00  0.00    +0.000 C 
ENDBRANCH  23  27
BRANCH  24  29
ATOM     29  O   UNL     1      -3.978  10.801  17.952  0.00  0.00    +0.000 OA
ATOM     30  C   UNL     1      -4.821  11.273  16.922  0.00  0.00    +0.000 C 
ENDBRANCH  24  29
ENDBRANCH  16  17
ENDBRANCH  10  16
TORSDOF 5
ENDMDL
MODEL 6
REMARK VINA RESULT:      -8.2      4.146      9.323
REMARK  Name = 
REMARK  8 active torsions:
REMARK  status: ('A' for Active; 'I' for Inactive)
REMARK    1  A    between atoms: C_1  and  C_2
REMARK    2  A    between atoms: C_2  and  C_3
REMARK    3  A    between atoms: C_12  and  C_13
REMARK    4  A    between atoms: C_13  and  C_14
REMARK    5  A    between atoms: C_20  and  O_21
REMARK    6  A    between atoms: O_21  and  C_22
REMARK    7  A    between atoms: C_23  and  O_24
REMARK    8  A    between atoms: O_24  and  C_25
REMARK                            x       y       z     vdW  Elec       q    Type
REMARK                         _______ _______ _______ _____ _____    ______ ____
ROOT
ATOM      1  C   UNL     1       2.561   5.308  20.382  0.00  0.00    +0.000 C 
ATOM      2  C   UNL     1       3.414   5.107  19.136  0.00  0.00    +0.000 A 
ATOM      3  C   UNL     1       4.160   4.004  18.775  0.00  0.00    +0.000 A 
ATOM      4  C   UNL     1       4.830   4.037  17.552  0.00  0.00    +0.000 A 
ATOM      5  C   UNL     1       4.754   5.163  16.715  0.00  0.00    +0.000 A 
ATOM      6  C   UNL     1       4.012   6.285  17.096  0.00  0.00    +0.000 A 
ATOM      7  C   UNL     1       3.347   6.258  18.312  0.00  0.00    +0.000 A 
ATOM      8  C   UNL     1       2.501   7.242  18.948  0.00  0.00    +0.000 A 
ATOM      9  C   UNL     1       2.130   8.513  18.539  0.00  0.00    +0.000 A 
ATOM     10  C   UNL     1       1.237   9.253  19.333  0.00  0.00    +0.000 A 
ATOM     11  C   UNL     1       0.750   8.697  20.537  0.00  0.00    +0.000 A 
ATOM     12  C   UNL     1       1.139   7.423  20.960  0.00  0.00    +0.000 A 
ATOM     13  C   UNL     1       2.010   6.707  20.159  0.00  0.00    +0.000 A 
ENDROOT
BRANCH   1  15
ATOM     14  C   UNL     1       1.829   3.141  21.575  0.00  0.00    +0.000 C 
ATOM     15  C   UNL     1       1.477   4.237  20.575  0.00  0.00    +0.000 C 
ENDBRANCH   1  15
BRANCH  10  16
ATOM     16  C   UNL     1       0.803  10.636  18.901  0.00  0.00    +0.000 C 
BRANCH  16  17
ATOM     17  C   UNL     1      -0.656  10.749  18.528  0.00  0.00    +0.000 A 
ATOM     18  C   UNL     1      -1.118  10.016  17.432  0.00  0.00    +0.000 A 
ATOM     19  N   UNL     1      -2.397   9.990  17.009  0.00  0.00    +0.000 NA
ATOM     20  C   UNL     1      -3.269  10.738  17.716  0.00  0.00    +0.000 A 
ATOM     21  C   UNL     1      -2.933  11.519  18.825  0.00  0.00    +0.000 A 
ATOM     22  C   UNL     1      -3.894  12.270  19.520  0.00  0.00    +0.000 A 
ATOM     23  C   UNL     1      -3.586  13.110  20.614  0.00  0.00    +0.000 A 
ATOM     24  C   UNL     1      -2.250  13.206  21.003  0.00  0.00    +0.000 A 
ATOM     25  C   UNL     1      -1.292  12.405  20.327  0.00  0.00    +0.000 A 
ATOM     26  C   UNL     1      -1.594  11.550  19.237  0.00  0.00    +0.000 A 
BRANCH  23  27
ATOM     27  O   UNL     1      -4.739  13.711  21.012  0.00  0.00    +0.000 OA
ATOM     28  C   UNL     1      -5.812  13.041  21.619  0.00  0.00    +0.000 C 
ENDBRANCH  23  27
BRANCH  24  29
ATOM     29  O   UNL     1      -1.615  14.107  21.812  0.00  0.00    +0.000 OA
ATOM     30  C   UNL     1      -1.035  13.725  23.041  0.00  0.00    +0.000 C 
ENDBRANCH  24  29
ENDBRANCH  16  17
ENDBRANCH  10  16
TORSDOF 5
ENDMDL
MODEL 7
REMARK VINA RESULT:      -8.2      3.904      9.110
REMARK  Name = 
REMARK  8 active torsions:
REMARK  status: ('A' for Active; 'I' for Inactive)
REMARK    1  A    between atoms: C_1  and  C_2
REMARK    2  A    between atoms: C_2  and  C_3
REMARK    3  A    between atoms: C_12  and  C_13
REMARK    4  A    between atoms: C_13  and  C_14
REMARK    5  A    between atoms: C_20  and  O_21
REMARK    6  A    between atoms: O_21  and  C_22
REMARK    7  A    between atoms: C_23  and  O_24
REMARK    8  A    between atoms: O_24  and  C_25
REMARK                            x       y       z     vdW  Elec       q    Type
REMARK                         _______ _______ _______ _____ _____    ______ ____
ROOT
ATOM      1  C   UNL     1       2.479   4.937  20.365  0.00  0.00    +0.000 C 
ATOM      2  C   UNL     1       3.276   4.557  19.124  0.00  0.00    +0.000 A 
ATOM      3  C   UNL     1       3.867   3.347  18.820  0.00  0.00    +0.000 A 
ATOM      4  C   UNL     1       4.513   3.223  17.590  0.00  0.00    +0.000 A 
ATOM      5  C   UNL     1       4.567   4.300  16.689  0.00  0.00    +0.000 A 
ATOM      6  C   UNL     1       3.983   5.529  17.011  0.00  0.00    +0.000 A 
ATOM      7  C   UNL     1       3.342   5.658  18.234  0.00  0.00    +0.000 A 
ATOM      8  C   UNL     1       2.641   6.777  18.820  0.00  0.00    +0.000 A 
ATOM      9  C   UNL     1       2.429   8.060  18.341  0.00  0.00    +0.000 A 
ATOM     10  C   UNL     1       1.653   8.954  19.100  0.00  0.00    +0.000 A 
ATOM     11  C   UNL     1       1.121   8.535  20.340  0.00  0.00    +0.000 A 
ATOM     12  C   UNL     1       1.351   7.248  20.832  0.00  0.00    +0.000 A 
ATOM     13  C   UNL     1       2.108   6.381  20.065  0.00  0.00    +0.000 A 
ENDROOT
BRANCH   1  15
ATOM     14  C   UNL     1       1.528   2.890  21.615  0.00  0.00    +0.000 C 
ATOM     15  C   UNL     1       1.270   4.028  20.632  0.00  0.00    +0.000 C 
ENDBRANCH   1  15
BRANCH  10  16
ATOM     16  C   UNL     1       1.393  10.354  18.591  0.00  0.00    +0.000 C 
BRANCH  16  17
ATOM     17  C   UNL     1      -0.044  10.808  18.705  0.00  0.00    +0.000 A 
ATOM     18  C   UNL     1      -0.970  10.304  17.789  0.00  0.00    +0.000 A 
ATOM     19  N   UNL     1      -2.288  10.591  17.793  0.00  0.00    +0.000 NA
ATOM     20  C   UNL     1      -2.708  11.426  18.765  0.00  0.00    +0.000 A 
ATOM     21  C   UNL     1      -1.882  12.001  19.735  0.00  0.00    +0.000 A 
ATOM     22  C   UNL     1      -2.388  12.859  20.724  0.00  0.00    +0.000 A 
ATOM     23  C   UNL     1      -1.579  13.498  21.691  0.00  0.00    +0.000 A 
ATOM     24  C   UNL     1      -0.204  13.272  21.638  0.00  0.00    +0.000 A 
ATOM     25  C   UNL     1       0.294  12.364  20.667  0.00  0.00    +0.000 A 
ATOM     26  C   UNL     1      -0.512  11.708  19.702  0.00  0.00    +0.000 A 
BRANCH  23  27
ATOM     27  O   UNL     1      -2.387  14.282  22.453  0.00  0.00    +0.000 OA
ATOM     28  C   UNL     1      -2.334  15.684  22.479  0.00  0.00    +0.000 C 
ENDBRANCH  23  27
BRANCH  24  29
ATOM     29  O   UNL     1       0.836  13.932  22.233  0.00  0.00    +0.000 OA
ATOM     30  C   UNL     1       1.359  15.131  21.703  0.00  0.00    +0.000 C 
ENDBRANCH  24  29
ENDBRANCH  16  17
ENDBRANCH  10  16
TORSDOF 5
ENDMDL
MODEL 8
REMARK VINA RESULT:      -8.1      3.736      9.045
REMARK  Name = 
REMARK  8 active torsions:
REMARK  status: ('A' for Active; 'I' for Inactive)
REMARK    1  A    between atoms: C_1  and  C_2
REMARK    2  A    between atoms: C_2  and  C_3
REMARK    3  A    between atoms: C_12  and  C_13
REMARK    4  A    between atoms: C_13  and  C_14
REMARK    5  A    between atoms: C_20  and  O_21
REMARK    6  A    between atoms: O_21  and  C_22
REMARK    7  A    between atoms: C_23  and  O_24
REMARK    8  A    between atoms: O_24  and  C_25
REMARK                            x       y       z     vdW  Elec       q    Type
REMARK                         _______ _______ _______ _____ _____    ______ ____
ROOT
ATOM      1  C   UNL     1       4.590   4.563  17.332  0.00  0.00    +0.000 C 
ATOM      2  C   UNL     1       3.559   3.565  17.844  0.00  0.00    +0.000 A 
ATOM      3  C   UNL     1       3.662   2.191  17.929  0.00  0.00    +0.000 A 
ATOM      4  C   UNL     1       2.592   1.485  18.479  0.00  0.00    +0.000 A 
ATOM      5  C   UNL     1       1.439   2.152  18.927  0.00  0.00    +0.000 A 
ATOM      6  C   UNL     1       1.333   3.542  18.819  0.00  0.00    +0.000 A 
ATOM      7  C   UNL     1       2.393   4.247  18.270  0.00  0.00    +0.000 A 
ATOM      8  C   UNL     1       2.575   5.665  18.056  0.00  0.00    +0.000 A 
ATOM      9  C   UNL     1       1.729   6.732  18.312  0.00  0.00    +0.000 A 
ATOM     10  C   UNL     1       2.180   8.039  18.056  0.00  0.00    +0.000 A 
ATOM     11  C   UNL     1       3.475   8.238  17.529  0.00  0.00    +0.000 A 
ATOM     12  C   UNL     1       4.321   7.161  17.252  0.00  0.00    +0.000 A 
ATOM     13  C   UNL     1       3.862   5.884  17.521  0.00  0.00    +0.000 A 
ENDROOT
BRANCH   1  15
ATOM     14  C   UNL     1       7.162   4.654  17.156  0.00  0.00    +0.000 C 
ATOM     15  C   UNL     1       5.942   4.488  18.056  0.00  0.00    +0.000 C 
ENDBRANCH   1  15
BRANCH  10  16
ATOM     16  C   UNL     1       1.282   9.222  18.343  0.00  0.00    +0.000 C 
BRANCH  16  17
ATOM     17  C   UNL     1       0.924   9.401  19.800  0.00  0.00    +0.000 A 
ATOM     18  C   UNL     1       1.613   8.641  20.748  0.00  0.00    +0.000 A 
ATOM     19  N   UNL     1       1.425   8.724  22.081  0.00  0.00    +0.000 NA
ATOM     20  C   UNL     1       0.499   9.613  22.494  0.00  0.00    +0.000 A 
ATOM     21  C   UNL     1      -0.260  10.425  21.647  0.00  0.00    +0.000 A 
ATOM     22  C   UNL     1      -1.205  11.335  22.146  0.00  0.00    +0.000 A 
ATOM     23  C   UNL     1      -2.026  12.138  21.322  0.00  0.00    +0.000 A 
ATOM     24  C   UNL     1      -1.896  11.996  19.941  0.00  0.00    +0.000 A 
ATOM     25  C   UNL     1      -0.904  11.109  19.445  0.00  0.00    +0.000 A 
ATOM     26  C   UNL     1      -0.067  10.311  20.264  0.00  0.00    +0.000 A 
BRANCH  23  27
ATOM     27  O   UNL     1      -2.845  12.861  22.132  0.00  0.00    +0.000 OA
ATOM     28  C   UNL     1      -4.246  12.802  22.096  0.00  0.00    +0.000 C 
ENDBRANCH  23  27
BRANCH  24  29
ATOM     29  O   UNL     1      -2.704  12.408  18.918  0.00  0.00    +0.000 OA
ATOM     30  C   UNL     1      -3.335  11.490  18.050  0.00  0.00    +0.000 C 
ENDBRANCH  24  29
ENDBRANCH  16  17
ENDBRANCH  10  16
TORSDOF 5
ENDMDL
MODEL 9
REMARK VINA RESULT:      -8.1      3.921      8.317
REMARK  Name = 
REMARK  8 active torsions:
REMARK  status: ('A' for Active; 'I' for Inactive)
REMARK    1  A    between atoms: C_1  and  C_2
REMARK    2  A    between atoms: C_2  and  C_3
REMARK    3  A    between atoms: C_12  and  C_13
REMARK    4  A    between atoms: C_13  and  C_14
REMARK    5  A    between atoms: C_20  and  O_21
REMARK    6  A    between atoms: O_21  and  C_22
REMARK    7  A    between atoms: C_23  and  O_24
REMARK    8  A    between atoms: O_24  and  C_25
REMARK                            x       y       z     vdW  Elec       q    Type
REMARK                         _______ _______ _______ _____ _____    ______ ____
ROOT
ATOM      1  C   UNL     1       3.417   5.464  17.820  0.00  0.00    +0.000 C 
ATOM      2  C   UNL     1       3.209   4.441  18.931  0.00  0.00    +0.000 A 
ATOM      3  C   UNL     1       3.614   3.123  18.971  0.00  0.00    +0.000 A 
ATOM      4  C   UNL     1       3.345   2.388  20.126  0.00  0.00    +0.000 A 
ATOM      5  C   UNL     1       2.673   2.972  21.214  0.00  0.00    +0.000 A 
ATOM      6  C   UNL     1       2.248   4.302  21.159  0.00  0.00    +0.000 A 
ATOM      7  C   UNL     1       2.511   5.035  20.012  0.00  0.00    +0.000 A 
ATOM      8  C   UNL     1       2.219   6.412  19.682  0.00  0.00    +0.000 A 
ATOM      9  C   UNL     1       1.563   7.394  20.406  0.00  0.00    +0.000 A 
ATOM     10  C   UNL     1       1.460   8.688  19.867  0.00  0.00    +0.000 A 
ATOM     11  C   UNL     1       2.009   8.957  18.593  0.00  0.00    +0.000 A 
ATOM     12  C   UNL     1       2.652   7.962  17.853  0.00  0.00    +0.000 A 
ATOM     13  C   UNL     1       2.753   6.698  18.407  0.00  0.00    +0.000 A 
ENDROOT
BRANCH   1  15
ATOM     14  C   UNL     1       5.204   5.449  15.959  0.00  0.00    +0.000 C 
ATOM     15  C   UNL     1       4.889   5.673  17.435  0.00  0.00    +0.000 C 
ENDBRANCH   1  15
BRANCH  10  16
ATOM     16  C   UNL     1       0.765   9.782  20.646  0.00  0.00    +0.000 C 
BRANCH  16  17
ATOM     17  C   UNL     1       0.033  10.793  19.795  0.00  0.00    +0.000 A 
ATOM     18  C   UNL     1      -1.159  10.402  19.181  0.00  0.00    +0.000 A 
ATOM     19  N   UNL     1      -1.934  11.207  18.427  0.00  0.00    +0.000 NA
ATOM     20  C   UNL     1      -1.499  12.474  18.275  0.00  0.00    +0.000 A 
ATOM     21  C   UNL     1      -0.322  12.985  18.829  0.00  0.00    +0.000 A 
ATOM     22  C   UNL     1       0.069  14.319  18.635  0.00  0.00    +0.000 A 
ATOM     23  C   UNL     1       1.275  14.860  19.137  0.00  0.00    +0.000 A 
ATOM     24  C   UNL     1       2.122  14.009  19.846  0.00  0.00    +0.000 A 
ATOM     25  C   UNL     1       1.695  12.675  20.081  0.00  0.00    +0.000 A 
ATOM     26  C   UNL     1       0.482  12.128  19.592  0.00  0.00    +0.000 A 
BRANCH  23  27
ATOM     27  O   UNL     1       1.351  16.154  18.726  0.00  0.00    +0.000 OA
ATOM     28  C   UNL     1       2.434  16.697  18.019  0.00  0.00    +0.000 C 
ENDBRANCH  23  27
BRANCH  24  29
ATOM     29  O   UNL     1       3.433  14.148  20.209  0.00  0.00    +0.000 OA
ATOM     30  C   UNL     1       3.853  15.145  21.116  0.00  0.00    +0.000 C 
ENDBRANCH  24  29
ENDBRANCH  16  17
ENDBRANCH  10  16
TORSDOF 5
ENDMDL
