MODEL 1
REMARK VINA RESULT:      -6.3      0.000      0.000
REMARK  Name = 
REMARK  7 active torsions:
REMARK  status: ('A' for Active; 'I' for Inactive)
REMARK    1  A    between atoms: C_1  and  O_2
REMARK    2  A    between atoms: O_2  and  C_3
REMARK    3  A    between atoms: C_6  and  O_7
REMARK    4  A    between atoms: O_7  and  C_8
REMARK    5  A    between atoms: C_9  and  S_10
REMARK    6  A    between atoms: S_10  and  N_13
REMARK    7  A    between atoms: C_18  and  C_19
REMARK                            x       y       z     vdW  Elec       q    Type
REMARK                         _______ _______ _______ _____ _____    ______ ____
ROOT
ATOM      1  N   UNL     1       0.633  14.983  19.444  0.00  0.00    +0.000 NA
ATOM      2  C   UNL     1      -0.524  15.586  20.155  0.00  0.00    +0.000 C 
ATOM      3  C   UNL     1      -1.143  16.727  19.363  0.00  0.00    +0.000 C 
ATOM      4  C   UNL     1      -0.088  17.765  19.018  0.00  0.00    +0.000 C 
ATOM      5  C   UNL     1       1.019  17.116  18.190  0.00  0.00    +0.000 C 
ATOM      6  C   UNL     1       1.683  15.916  18.881  0.00  0.00    +0.000 C 
ENDROOT
BRANCH   6   7
ATOM      7  C   UNL     1       2.819  16.354  19.839  0.00  0.00    +0.000 C 
ATOM      8  O   UNL     1       2.574  16.536  21.038  0.00  0.00    +0.000 OA
ATOM      9  N   UNL     1       4.110  16.607  19.342  0.00  0.00    +0.000 N 
ATOM     10  C   UNL     1       5.160  16.881  20.333  0.00  0.00    +0.000 C 
ATOM     11  C   UNL     1       5.857  15.564  20.735  0.00  0.00    +0.000 C 
ATOM     12  N   UNL     1       6.415  14.902  19.546  0.00  0.00    +0.000 N 
ATOM     13  C   UNL     1       7.774  14.705  19.406  0.00  0.00    +0.000 A 
ATOM     14  C   UNL     1       8.574  14.416  20.520  0.00  0.00    +0.000 A 
ATOM     15  C   UNL     1       9.957  14.248  20.389  0.00  0.00    +0.000 A 
ATOM     16  C   UNL     1      10.528  14.360  19.135  0.00  0.00    +0.000 A 
ATOM     17  C   UNL     1       9.681  14.616  18.071  0.00  0.00    +0.000 A 
ATOM     18  N   UNL     1       8.338  14.780  18.181  0.00  0.00    +0.000 NA
ATOM     19  C   UNL     1       5.502  14.756  18.385  0.00  0.00    +0.000 C 
ATOM     20  C   UNL     1       4.696  16.054  18.105  0.00  0.00    +0.000 C 
ENDBRANCH   6   7
BRANCH   1  21
ATOM     21  S   UNL     1       1.270  13.592  20.212  0.00  0.00    +0.000 S 
ATOM     22  O   UNL     1       0.972  13.667  21.628  0.00  0.00    +0.000 OA
ATOM     23  O   UNL     1       2.631  13.393  19.748  0.00  0.00    +0.000 OA
BRANCH  21  28
ATOM     24  C   UNL     1      -1.463  11.572  18.029  0.00  0.00    +0.000 A 
ATOM     25  C   UNL     1      -1.512  10.335  18.665  0.00  0.00    +0.000 A 
ATOM     26  C   UNL     1      -0.648  10.038  19.719  0.00  0.00    +0.000 A 
ATOM     27  C   UNL     1       0.254  10.995  20.198  0.00  0.00    +0.000 A 
ATOM     28  C   UNL     1       0.317  12.234  19.545  0.00  0.00    +0.000 A 
ATOM     29  C   UNL     1      -0.523  12.512  18.446  0.00  0.00    +0.000 A 
BRANCH  24  31
ATOM     30  C   UNL     1      -2.661  10.641  16.190  0.00  0.00    +0.000 C 
ATOM     31  O   UNL     1      -2.408  11.737  17.057  0.00  0.00    +0.000 OA
ENDBRANCH  24  31
BRANCH  27  32
ATOM     32  O   UNL     1       1.079  10.762  21.266  0.00  0.00    +0.000 OA
ATOM     33  C   UNL     1       0.756   9.619  22.059  0.00  0.00    +0.000 C 
ENDBRANCH  27  32
ENDBRANCH  21  28
ENDBRANCH   1  21
TORSDOF 5
ENDMDL
MODEL 2
REMARK VINA RESULT:      -6.3      4.233      8.754
REMARK  Name = 
REMARK  7 active torsions:
REMARK  status: ('A' for Active; 'I' for Inactive)
REMARK    1  A    between atoms: C_1  and  O_2
REMARK    2  A    between atoms: O_2  and  C_3
REMARK    3  A    between atoms: C_6  and  O_7
REMARK    4  A    between atoms: O_7  and  C_8
REMARK    5  A    between atoms: C_9  and  S_10
REMARK    6  A    between atoms: S_10  and  N_13
REMARK    7  A    between atoms: C_18  and  C_19
REMARK                            x       y       z     vdW  Elec       q    Type
REMARK                         _______ _______ _______ _____ _____    ______ ____
ROOT
ATOM      1  N   UNL     1       1.303  12.416  19.918  0.00  0.00    +0.000 NA
ATOM      2  C   UNL     1       2.209  12.963  18.875  0.00  0.00    +0.000 C 
ATOM      3  C   UNL     1       3.204  13.955  19.455  0.00  0.00    +0.000 C 
ATOM      4  C   UNL     1       2.476  15.057  20.206  0.00  0.00    +0.000 C 
ATOM      5  C   UNL     1       1.652  14.449  21.338  0.00  0.00    +0.000 C 
ATOM      6  C   UNL     1       0.641  13.393  20.865  0.00  0.00    +0.000 C 
ENDROOT
BRANCH   6   7
ATOM      7  C   UNL     1      -0.691  14.032  20.397  0.00  0.00    +0.000 C 
ATOM      8  O   UNL     1      -0.832  14.356  19.212  0.00  0.00    +0.000 OA
ATOM      9  N   UNL     1      -1.712  14.304  21.324  0.00  0.00    +0.000 N 
ATOM     10  C   UNL     1      -2.992  14.779  20.780  0.00  0.00    +0.000 C 
ATOM     11  C   UNL     1      -3.921  13.579  20.502  0.00  0.00    +0.000 C 
ATOM     12  N   UNL     1      -4.129  12.804  21.734  0.00  0.00    +0.000 N 
ATOM     13  C   UNL     1      -5.381  12.682  22.303  0.00  0.00    +0.000 A 
ATOM     14  C   UNL     1      -6.527  12.601  21.500  0.00  0.00    +0.000 A 
ATOM     15  C   UNL     1      -7.801  12.511  22.072  0.00  0.00    +0.000 A 
ATOM     16  C   UNL     1      -7.916  12.493  23.450  0.00  0.00    +0.000 A 
ATOM     17  C   UNL     1      -6.746  12.546  24.187  0.00  0.00    +0.000 A 
ATOM     18  N   UNL     1      -5.503  12.631  23.647  0.00  0.00    +0.000 NA
ATOM     19  C   UNL     1      -2.909  12.441  22.497  0.00  0.00    +0.000 C 
ATOM     20  C   UNL     1      -1.919  13.631  22.622  0.00  0.00    +0.000 C 
ENDBRANCH   6   7
BRANCH   1  21
ATOM     21  S   UNL     1       0.267  11.175  19.355  0.00  0.00    +0.000 S 
ATOM     22  O   UNL     1       0.167  11.275  17.913  0.00  0.00    +0.000 OA
ATOM     23  O   UNL     1      -0.925  11.159  20.184  0.00  0.00    +0.000 OA
BRANCH  21  28
ATOM     24  C   UNL     1       2.197   7.670  18.802  0.00  0.00    +0.000 A 
ATOM     25  C   UNL     1       2.175   7.102  20.073  0.00  0.00    +0.000 A 
ATOM     26  C   UNL     1       1.658   7.806  21.162  0.00  0.00    +0.000 A 
ATOM     27  C   UNL     1       1.102   9.079  20.994  0.00  0.00    +0.000 A 
ATOM     28  C   UNL     1       1.142   9.658  19.718  0.00  0.00    +0.000 A 
ATOM     29  C   UNL     1       1.712   8.964  18.630  0.00  0.00    +0.000 A 
BRANCH  24  31
ATOM     30  C   UNL     1       3.077   5.533  18.215  0.00  0.00    +0.000 C 
ATOM     31  O   UNL     1       2.676   6.841  17.830  0.00  0.00    +0.000 OA
ENDBRANCH  24  31
BRANCH  27  32
ATOM     32  O   UNL     1       0.535   9.778  22.026  0.00  0.00    +0.000 OA
ATOM     33  C   UNL     1      -0.427   9.064  22.802  0.00  0.00    +0.000 C 
ENDBRANCH  27  32
ENDBRANCH  21  28
ENDBRANCH   1  21
TORSDOF 5
ENDMDL
MODEL 3
REMARK VINA RESULT:      -6.2      1.508      1.808
REMARK  Name = 
REMARK  7 active torsions:
REMARK  status: ('A' for Active; 'I' for Inactive)
REMARK    1  A    between atoms: C_1  and  O_2
REMARK    2  A    between atoms: O_2  and  C_3
REMARK    3  A    between atoms: C_6  and  O_7
REMARK    4  A    between atoms: O_7  and  C_8
REMARK    5  A    between atoms: C_9  and  S_10
REMARK    6  A    between atoms: S_10  and  N_13
REMARK    7  A    between atoms: C_18  and  C_19
REMARK                            x       y       z     vdW  Elec       q    Type
REMARK                         _______ _______ _______ _____ _____    ______ ____
ROOT
ATOM      1  N   UNL     1       0.161  14.083  20.398  0.00  0.00    +0.000 NA
ATOM      2  C   UNL     1      -0.849  13.963  21.482  0.00  0.00    +0.000 C 
ATOM      3  C   UNL     1      -1.675  15.231  21.627  0.00  0.00    +0.000 C 
ATOM      4  C   UNL     1      -0.768  16.433  21.831  0.00  0.00    +0.000 C 
ATOM      5  C   UNL     1       0.170  16.576  20.635  0.00  0.00    +0.000 C 
ATOM      6  C   UNL     1       1.022  15.327  20.367  0.00  0.00    +0.000 C 
ENDROOT
BRANCH   6   7
ATOM      7  C   UNL     1       2.312  15.309  21.226  0.00  0.00    +0.000 C 
ATOM      8  O   UNL     1       2.313  14.728  22.318  0.00  0.00    +0.000 OA
ATOM      9  N   UNL     1       3.459  16.002  20.801  0.00  0.00    +0.000 N 
ATOM     10  C   UNL     1       4.678  15.820  21.600  0.00  0.00    +0.000 C 
ATOM     11  C   UNL     1       5.501  14.641  21.038  0.00  0.00    +0.000 C 
ATOM     12  N   UNL     1       5.829  14.880  19.625  0.00  0.00    +0.000 N 
ATOM     13  C   UNL     1       7.137  15.017  19.205  0.00  0.00    +0.000 A 
ATOM     14  C   UNL     1       8.163  14.272  19.804  0.00  0.00    +0.000 A 
ATOM     15  C   UNL     1       9.495  14.431  19.405  0.00  0.00    +0.000 A 
ATOM     16  C   UNL     1       9.788  15.332  18.397  0.00  0.00    +0.000 A 
ATOM     17  C   UNL     1       8.729  16.014  17.825  0.00  0.00    +0.000 A 
ATOM     18  N   UNL     1       7.431  15.870  18.200  0.00  0.00    +0.000 NA
ATOM     19  C   UNL     1       4.703  15.284  18.747  0.00  0.00    +0.000 C 
ATOM     20  C   UNL     1       3.800  16.360  19.409  0.00  0.00    +0.000 C 
ENDBRANCH   6   7
BRANCH   1  21
ATOM     21  S   UNL     1       1.011  12.633  20.080  0.00  0.00    +0.000 S 
ATOM     22  O   UNL     1       1.093  11.864  21.306  0.00  0.00    +0.000 OA
ATOM     23  O   UNL     1       2.209  12.957  19.325  0.00  0.00    +0.000 OA
BRANCH  21  28
ATOM     24  C   UNL     1      -2.281  11.509  18.027  0.00  0.00    +0.000 A 
ATOM     25  C   UNL     1      -1.941  10.239  17.570  0.00  0.00    +0.000 A 
ATOM     26  C   UNL     1      -0.664   9.718  17.788  0.00  0.00    +0.000 A 
ATOM     27  C   UNL     1       0.289  10.439  18.517  0.00  0.00    +0.000 A 
ATOM     28  C   UNL     1      -0.048  11.726  18.960  0.00  0.00    +0.000 A 
ATOM     29  C   UNL     1      -1.322  12.269  18.693  0.00  0.00    +0.000 A 
BRANCH  24  31
ATOM     30  C   UNL     1      -4.275  11.159  16.768  0.00  0.00    +0.000 C 
ATOM     31  O   UNL     1      -3.580  11.857  17.792  0.00  0.00    +0.000 OA
ENDBRANCH  24  31
BRANCH  27  32
ATOM     32  O   UNL     1       1.532   9.940  18.800  0.00  0.00    +0.000 OA
ATOM     33  C   UNL     1       1.880   8.729  18.128  0.00  0.00    +0.000 C 
ENDBRANCH  27  32
ENDBRANCH  21  28
ENDBRANCH   1  21
TORSDOF 5
ENDMDL
MODEL 4
REMARK VINA RESULT:      -6.2      5.887      8.645
REMARK  Name = 
REMARK  7 active torsions:
REMARK  status: ('A' for Active; 'I' for Inactive)
REMARK    1  A    between atoms: C_1  and  O_2
REMARK    2  A    between atoms: O_2  and  C_3
REMARK    3  A    between atoms: C_6  and  O_7
REMARK    4  A    between atoms: O_7  and  C_8
REMARK    5  A    between atoms: C_9  and  S_10
REMARK    6  A    between atoms: S_10  and  N_13
REMARK    7  A    between atoms: C_18  and  C_19
REMARK                            x       y       z     vdW  Elec       q    Type
REMARK                         _______ _______ _______ _____ _____    ______ ____
ROOT
ATOM      1  N   UNL     1      -0.704  10.786  20.350  0.00  0.00    +0.000 NA
ATOM      2  C   UNL     1       0.650  10.242  20.063  0.00  0.00    +0.000 C 
ATOM      3  C   UNL     1       0.971   9.039  20.935  0.00  0.00    +0.000 C 
ATOM      4  C   UNL     1       0.803   9.389  22.404  0.00  0.00    +0.000 C 
ATOM      5  C   UNL     1      -0.636   9.830  22.664  0.00  0.00    +0.000 C 
ATOM      6  C   UNL     1      -1.083  11.017  21.797  0.00  0.00    +0.000 C 
ENDROOT
BRANCH   6   7
ATOM      7  C   UNL     1      -0.678  12.377  22.420  0.00  0.00    +0.000 C 
ATOM      8  O   UNL     1       0.419  12.876  22.141  0.00  0.00    +0.000 OA
ATOM      9  N   UNL     1      -1.521  13.012  23.347  0.00  0.00    +0.000 N 
ATOM     10  C   UNL     1      -1.131  14.360  23.783  0.00  0.00    +0.000 C 
ATOM     11  C   UNL     1      -1.780  15.416  22.864  0.00  0.00    +0.000 C 
ATOM     12  N   UNL     1      -3.242  15.264  22.871  0.00  0.00    +0.000 N 
ATOM     13  C   UNL     1      -4.066  16.264  23.348  0.00  0.00    +0.000 A 
ATOM     14  C   UNL     1      -3.737  17.614  23.159  0.00  0.00    +0.000 A 
ATOM     15  C   UNL     1      -4.551  18.631  23.670  0.00  0.00    +0.000 A 
ATOM     16  C   UNL     1      -5.698  18.286  24.360  0.00  0.00    +0.000 A 
ATOM     17  C   UNL     1      -5.984  16.938  24.486  0.00  0.00    +0.000 A 
ATOM     18  N   UNL     1      -5.206  15.939  23.995  0.00  0.00    +0.000 NA
ATOM     19  C   UNL     1      -3.762  13.892  22.651  0.00  0.00    +0.000 C 
ATOM     20  C   UNL     1      -2.981  12.830  23.472  0.00  0.00    +0.000 C 
ENDBRANCH   6   7
BRANCH   1  21
ATOM     21  S   UNL     1      -1.185  12.040  19.290  0.00  0.00    +0.000 S 
ATOM     22  O   UNL     1      -0.068  12.375  18.430  0.00  0.00    +0.000 OA
ATOM     23  O   UNL     1      -1.859  13.066  20.066  0.00  0.00    +0.000 OA
BRANCH  21  28
ATOM     24  C   UNL     1      -2.922  10.179  16.154  0.00  0.00    +0.000 A 
ATOM     25  C   UNL     1      -4.275  10.440  16.351  0.00  0.00    +0.000 A 
ATOM     26  C   UNL     1      -4.715  11.109  17.494  0.00  0.00    +0.000 A 
ATOM     27  C   UNL     1      -3.803  11.580  18.445  0.00  0.00    +0.000 A 
ATOM     28  C   UNL     1      -2.443  11.299  18.256  0.00  0.00    +0.000 A 
ATOM     29  C   UNL     1      -2.006  10.577  17.126  0.00  0.00    +0.000 A 
BRANCH  24  31
ATOM     30  C   UNL     1      -3.297  10.056  13.803  0.00  0.00    +0.000 C 
ATOM     31  O   UNL     1      -2.638   9.571  14.965  0.00  0.00    +0.000 OA
ENDBRANCH  24  31
BRANCH  27  32
ATOM     32  O   UNL     1      -4.191  12.289  19.551  0.00  0.00    +0.000 OA
ATOM     33  C   UNL     1      -5.597  12.342  19.790  0.00  0.00    +0.000 C 
ENDBRANCH  27  32
ENDBRANCH  21  28
ENDBRANCH   1  21
TORSDOF 5
ENDMDL
MODEL 5
REMARK VINA RESULT:      -6.0      4.716      6.833
REMARK  Name = 
REMARK  7 active torsions:
REMARK  status: ('A' for Active; 'I' for Inactive)
REMARK    1  A    between atoms: C_1  and  O_2
REMARK    2  A    between atoms: O_2  and  C_3
REMARK    3  A    between atoms: C_6  and  O_7
REMARK    4  A    between atoms: O_7  and  C_8
REMARK    5  A    between atoms: C_9  and  S_10
REMARK    6  A    between atoms: S_10  and  N_13
REMARK    7  A    between atoms: C_18  and  C_19
REMARK                            x       y       z     vdW  Elec       q    Type
REMARK                         _______ _______ _______ _____ _____    ______ ____
ROOT
ATOM      1  N   UNL     1      -2.793  14.329  20.662  0.00  0.00    +0.000 NA
ATOM      2  C   UNL     1      -3.156  15.282  21.743  0.00  0.00    +0.000 C 
ATOM      3  C   UNL     1      -2.807  16.715  21.373  0.00  0.00    +0.000 C 
ATOM      4  C   UNL     1      -1.339  16.821  20.995  0.00  0.00    +0.000 C 
ATOM      5  C   UNL     1      -1.048  15.908  19.807  0.00  0.00    +0.000 C 
ATOM      6  C   UNL     1      -1.410  14.436  20.057  0.00  0.00    +0.000 C 
ENDROOT
BRANCH   6   7
ATOM      7  C   UNL     1      -0.269  13.671  20.774  0.00  0.00    +0.000 C 
ATOM      8  O   UNL     1      -0.142  13.768  22.000  0.00  0.00    +0.000 OA
ATOM      9  N   UNL     1       0.659  12.921  20.031  0.00  0.00    +0.000 N 
ATOM     10  C   UNL     1       1.622  12.115  20.793  0.00  0.00    +0.000 C 
ATOM     11  C   UNL     1       1.055  10.699  21.023  0.00  0.00    +0.000 C 
ATOM     12  N   UNL     1       0.741  10.063  19.734  0.00  0.00    +0.000 N 
ATOM     13  C   UNL     1       1.396   8.921  19.319  0.00  0.00    +0.000 A 
ATOM     14  C   UNL     1       1.779   7.939  20.243  0.00  0.00    +0.000 A 
ATOM     15  C   UNL     1       2.472   6.795  19.832  0.00  0.00    +0.000 A 
ATOM     16  C   UNL     1       2.768   6.639  18.491  0.00  0.00    +0.000 A 
ATOM     17  C   UNL     1       2.337   7.628  17.624  0.00  0.00    +0.000 A 
ATOM     18  N   UNL     1       1.662   8.742  18.007  0.00  0.00    +0.000 NA
ATOM     19  C   UNL     1      -0.057  10.871  18.779  0.00  0.00    +0.000 C 
ATOM     20  C   UNL     1       0.442  12.339  18.691  0.00  0.00    +0.000 C 
ENDBRANCH   6   7
BRANCH   1  21
ATOM     21  S   UNL     1      -3.308  12.723  20.954  0.00  0.00    +0.000 S 
ATOM     22  O   UNL     1      -2.890  12.336  22.286  0.00  0.00    +0.000 OA
ATOM     23  O   UNL     1      -2.959  11.912  19.801  0.00  0.00    +0.000 OA
BRANCH  21  28
ATOM     24  C   UNL     1      -7.109  12.690  22.321  0.00  0.00    +0.000 A 
ATOM     25  C   UNL     1      -7.855  12.560  21.153  0.00  0.00    +0.000 A 
ATOM     26  C   UNL     1      -7.236  12.574  19.903  0.00  0.00    +0.000 A 
ATOM     27  C   UNL     1      -5.843  12.667  19.794  0.00  0.00    +0.000 A 
ATOM     28  C   UNL     1      -5.094  12.818  20.969  0.00  0.00    +0.000 A 
ATOM     29  C   UNL     1      -5.728  12.855  22.228  0.00  0.00    +0.000 A 
BRANCH  24  31
ATOM     30  C   UNL     1      -7.795  13.693  24.372  0.00  0.00    +0.000 C 
ATOM     31  O   UNL     1      -7.845  12.599  23.467  0.00  0.00    +0.000 OA
ENDBRANCH  24  31
BRANCH  27  32
ATOM     32  O   UNL     1      -5.194  12.627  18.589  0.00  0.00    +0.000 OA
ATOM     33  C   UNL     1      -5.707  11.692  17.640  0.00  0.00    +0.000 C 
ENDBRANCH  27  32
ENDBRANCH  21  28
ENDBRANCH   1  21
TORSDOF 5
ENDMDL
MODEL 6
REMARK VINA RESULT:      -5.9      2.093      3.703
REMARK  Name = 
REMARK  7 active torsions:
REMARK  status: ('A' for Active; 'I' for Inactive)
REMARK    1  A    between atoms: C_1  and  O_2
REMARK    2  A    between atoms: O_2  and  C_3
REMARK    3  A    between atoms: C_6  and  O_7
REMARK    4  A    between atoms: O_7  and  C_8
REMARK    5  A    between atoms: C_9  and  S_10
REMARK    6  A    between atoms: S_10  and  N_13
REMARK    7  A    between atoms: C_18  and  C_19
REMARK                            x       y       z     vdW  Elec       q    Type
REMARK                         _______ _______ _______ _____ _____    ______ ____
ROOT
ATOM      1  N   UNL     1       3.308  16.157  20.986  0.00  0.00    +0.000 NA
ATOM      2  C   UNL     1       2.489  16.466  22.187  0.00  0.00    +0.000 C 
ATOM      3  C   UNL     1       2.345  17.964  22.402  0.00  0.00    +0.000 C 
ATOM      4  C   UNL     1       3.712  18.624  22.465  0.00  0.00    +0.000 C 
ATOM      5  C   UNL     1       4.465  18.371  21.161  0.00  0.00    +0.000 C 
ATOM      6  C   UNL     1       4.626  16.882  20.821  0.00  0.00    +0.000 C 
ENDROOT
BRANCH   6   7
ATOM      7  C   UNL     1       5.862  16.258  21.517  0.00  0.00    +0.000 C 
ATOM      8  O   UNL     1       5.778  15.878  22.691  0.00  0.00    +0.000 OA
ATOM      9  N   UNL     1       7.093  16.181  20.843  0.00  0.00    +0.000 N 
ATOM     10  C   UNL     1       8.175  15.452  21.519  0.00  0.00    +0.000 C 
ATOM     11  C   UNL     1       8.148  13.967  21.098  0.00  0.00    +0.000 C 
ATOM     12  N   UNL     1       8.270  13.853  19.637  0.00  0.00    +0.000 N 
ATOM     13  C   UNL     1       9.351  13.223  19.054  0.00  0.00    +0.000 A 
ATOM     14  C   UNL     1       9.943  12.107  19.662  0.00  0.00    +0.000 A 
ATOM     15  C   UNL     1      11.060  11.486  19.092  0.00  0.00    +0.000 A 
ATOM     16  C   UNL     1      11.571  11.984  17.907  0.00  0.00    +0.000 A 
ATOM     17  C   UNL     1      10.924  13.068  17.342  0.00  0.00    +0.000 A 
ATOM     18  N   UNL     1       9.839  13.681  17.880  0.00  0.00    +0.000 NA
ATOM     19  C   UNL     1       7.365  14.710  18.832  0.00  0.00    +0.000 C 
ATOM     20  C   UNL     1       7.291  16.161  19.379  0.00  0.00    +0.000 C 
ENDBRANCH   6   7
BRANCH   1  21
ATOM     21  S   UNL     1       3.371  14.491  20.601  0.00  0.00    +0.000 S 
ATOM     22  O   UNL     1       3.692  13.749  21.803  0.00  0.00    +0.000 OA
ATOM     23  O   UNL     1       4.162  14.327  19.394  0.00  0.00    +0.000 OA
BRANCH  21  28
ATOM     24  C   UNL     1      -0.078  12.410  20.302  0.00  0.00    +0.000 A 
ATOM     25  C   UNL     1      -0.741  13.059  19.265  0.00  0.00    +0.000 A 
ATOM     26  C   UNL     1      -0.207  14.210  18.684  0.00  0.00    +0.000 A 
ATOM     27  C   UNL     1       1.035  14.710  19.094  0.00  0.00    +0.000 A 
ATOM     28  C   UNL     1       1.692  14.068  20.152  0.00  0.00    +0.000 A 
ATOM     29  C   UNL     1       1.124  12.935  20.772  0.00  0.00    +0.000 A 
BRANCH  24  31
ATOM     30  C   UNL     1       0.124  10.126  20.957  0.00  0.00    +0.000 C 
ATOM     31  O   UNL     1      -0.691  11.267  20.727  0.00  0.00    +0.000 OA
ENDBRANCH  24  31
BRANCH  27  32
ATOM     32  O   UNL     1       1.618  15.803  18.511  0.00  0.00    +0.000 OA
ATOM     33  C   UNL     1       0.799  16.968  18.421  0.00  0.00    +0.000 C 
ENDBRANCH  27  32
ENDBRANCH  21  28
ENDBRANCH   1  21
TORSDOF 5
ENDMDL
MODEL 7
REMARK VINA RESULT:      -5.8      5.875      8.931
REMARK  Name = 
REMARK  7 active torsions:
REMARK  status: ('A' for Active; 'I' for Inactive)
REMARK    1  A    between atoms: C_1  and  O_2
REMARK    2  A    between atoms: O_2  and  C_3
REMARK    3  A    between atoms: C_6  and  O_7
REMARK    4  A    between atoms: O_7  and  C_8
REMARK    5  A    between atoms: C_9  and  S_10
REMARK    6  A    between atoms: S_10  and  N_13
REMARK    7  A    between atoms: C_18  and  C_19
REMARK                            x       y       z     vdW  Elec       q    Type
REMARK                         _______ _______ _______ _____ _____    ______ ____
ROOT
ATOM      1  N   UNL     1      -0.570  11.026  21.021  0.00  0.00    +0.000 NA
ATOM      2  C   UNL     1       0.846  10.594  21.155  0.00  0.00    +0.000 C 
ATOM      3  C   UNL     1       0.986   9.397  22.081  0.00  0.00    +0.000 C 
ATOM      4  C   UNL     1       0.356   9.695  23.431  0.00  0.00    +0.000 C 
ATOM      5  C   UNL     1      -1.124  10.018  23.246  0.00  0.00    +0.000 C 
ATOM      6  C   UNL     1      -1.384  11.190  22.287  0.00  0.00    +0.000 C 
ENDROOT
BRANCH   6   7
ATOM      7  C   UNL     1      -1.295  12.560  23.006  0.00  0.00    +0.000 C 
ATOM      8  O   UNL     1      -0.208  13.145  23.077  0.00  0.00    +0.000 OA
ATOM      9  N   UNL     1      -2.429  13.108  23.631  0.00  0.00    +0.000 N 
ATOM     10  C   UNL     1      -2.296  14.470  24.167  0.00  0.00    +0.000 C 
ATOM     11  C   UNL     1      -2.713  15.498  23.095  0.00  0.00    +0.000 C 
ATOM     12  N   UNL     1      -4.091  15.239  22.653  0.00  0.00    +0.000 N 
ATOM     13  C   UNL     1      -5.096  16.163  22.856  0.00  0.00    +0.000 A 
ATOM     14  C   UNL     1      -4.831  17.537  22.779  0.00  0.00    +0.000 A 
ATOM     15  C   UNL     1      -5.838  18.479  23.017  0.00  0.00    +0.000 A 
ATOM     16  C   UNL     1      -7.111  18.034  23.322  0.00  0.00    +0.000 A 
ATOM     17  C   UNL     1      -7.316  16.665  23.353  0.00  0.00    +0.000 A 
ATOM     18  N   UNL     1      -6.350  15.739  23.123  0.00  0.00    +0.000 NA
ATOM     19  C   UNL     1      -4.411  13.838  22.283  0.00  0.00    +0.000 C 
ATOM     20  C   UNL     1      -3.838  12.816  23.302  0.00  0.00    +0.000 C 
ENDBRANCH   6   7
BRANCH   1  21
ATOM     21  S   UNL     1      -0.810  12.267  19.868  0.00  0.00    +0.000 S 
ATOM     22  O   UNL     1       0.482  12.799  19.484  0.00  0.00    +0.000 OA
ATOM     23  O   UNL     1      -1.862  13.145  20.348  0.00  0.00    +0.000 OA
BRANCH  21  28
ATOM     24  C   UNL     1      -3.459  11.011  17.089  0.00  0.00    +0.000 A 
ATOM     25  C   UNL     1      -2.798   9.939  16.496  0.00  0.00    +0.000 A 
ATOM     26  C   UNL     1      -1.487   9.620  16.853  0.00  0.00    +0.000 A 
ATOM     27  C   UNL     1      -0.822  10.338  17.854  0.00  0.00    +0.000 A 
ATOM     28  C   UNL     1      -1.481  11.430  18.437  0.00  0.00    +0.000 A 
ATOM     29  C   UNL     1      -2.787  11.780  18.037  0.00  0.00    +0.000 A 
BRANCH  24  31
ATOM     30  C   UNL     1      -5.581  12.045  17.429  0.00  0.00    +0.000 C 
ATOM     31  O   UNL     1      -4.753  11.162  16.683  0.00  0.00    +0.000 OA
ENDBRANCH  24  31
BRANCH  27  32
ATOM     32  O   UNL     1       0.443  10.021  18.272  0.00  0.00    +0.000 OA
ATOM     33  C   UNL     1       1.075   8.951  17.571  0.00  0.00    +0.000 C 
ENDBRANCH  27  32
ENDBRANCH  21  28
ENDBRANCH   1  21
TORSDOF 5
ENDMDL
MODEL 8
REMARK VINA RESULT:      -5.8      3.370      7.432
REMARK  Name = 
REMARK  7 active torsions:
REMARK  status: ('A' for Active; 'I' for Inactive)
REMARK    1  A    between atoms: C_1  and  O_2
REMARK    2  A    between atoms: O_2  and  C_3
REMARK    3  A    between atoms: C_6  and  O_7
REMARK    4  A    between atoms: O_7  and  C_8
REMARK    5  A    between atoms: C_9  and  S_10
REMARK    6  A    between atoms: S_10  and  N_13
REMARK    7  A    between atoms: C_18  and  C_19
REMARK                            x       y       z     vdW  Elec       q    Type
REMARK                         _______ _______ _______ _____ _____    ______ ____
ROOT
ATOM      1  N   UNL     1      -0.589  14.531  20.977  0.00  0.00    +0.000 NA
ATOM      2  C   UNL     1      -1.305  15.708  20.419  0.00  0.00    +0.000 C 
ATOM      3  C   UNL     1      -2.700  15.852  21.006  0.00  0.00    +0.000 C 
ATOM      4  C   UNL     1      -3.489  14.568  20.815  0.00  0.00    +0.000 C 
ATOM      5  C   UNL     1      -2.767  13.414  21.507  0.00  0.00    +0.000 C 
ATOM      6  C   UNL     1      -1.325  13.210  21.020  0.00  0.00    +0.000 C 
ENDROOT
BRANCH   6   7
ATOM      7  C   UNL     1      -1.261  12.330  19.746  0.00  0.00    +0.000 C 
ATOM      8  O   UNL     1      -1.400  12.852  18.633  0.00  0.00    +0.000 OA
ATOM      9  N   UNL     1      -1.110  10.936  19.852  0.00  0.00    +0.000 N 
ATOM     10  C   UNL     1      -0.919  10.193  18.599  0.00  0.00    +0.000 C 
ATOM     11  C   UNL     1       0.587  10.070  18.288  0.00  0.00    +0.000 C 
ATOM     12  N   UNL     1       1.283   9.409  19.402  0.00  0.00    +0.000 N 
ATOM     13  C   UNL     1       1.913   8.192  19.235  0.00  0.00    +0.000 A 
ATOM     14  C   UNL     1       2.558   7.880  18.030  0.00  0.00    +0.000 A 
ATOM     15  C   UNL     1       3.170   6.635  17.844  0.00  0.00    +0.000 A 
ATOM     16  C   UNL     1       3.138   5.714  18.874  0.00  0.00    +0.000 A 
ATOM     17  C   UNL     1       2.513   6.093  20.048  0.00  0.00    +0.000 A 
ATOM     18  N   UNL     1       1.917   7.297  20.246  0.00  0.00    +0.000 NA
ATOM     19  C   UNL     1       1.002   9.940  20.759  0.00  0.00    +0.000 C 
ATOM     20  C   UNL     1      -0.511  10.203  20.985  0.00  0.00    +0.000 C 
ENDBRANCH   6   7
BRANCH   1  21
ATOM     21  S   UNL     1       1.042  14.410  20.475  0.00  0.00    +0.000 S 
ATOM     22  O   UNL     1       1.089  14.485  19.029  0.00  0.00    +0.000 OA
ATOM     23  O   UNL     1       1.661  13.304  21.183  0.00  0.00    +0.000 OA
BRANCH  21  28
ATOM     24  C   UNL     1       3.556  17.558  20.767  0.00  0.00    +0.000 A 
ATOM     25  C   UNL     1       3.392  17.963  22.089  0.00  0.00    +0.000 A 
ATOM     26  C   UNL     1       2.442  17.355  22.910  0.00  0.00    +0.000 A 
ATOM     27  C   UNL     1       1.666  16.288  22.441  0.00  0.00    +0.000 A 
ATOM     28  C   UNL     1       1.819  15.894  21.104  0.00  0.00    +0.000 A 
ATOM     29  C   UNL     1       2.744  16.546  20.262  0.00  0.00    +0.000 A 
BRANCH  24  31
ATOM     30  C   UNL     1       5.837  17.576  20.071  0.00  0.00    +0.000 C 
ATOM     31  O   UNL     1       4.562  18.204  20.107  0.00  0.00    +0.000 OA
ENDBRANCH  24  31
BRANCH  27  32
ATOM     32  O   UNL     1       0.764  15.628  23.232  0.00  0.00    +0.000 OA
ATOM     33  C   UNL     1      -0.064  16.456  24.048  0.00  0.00    +0.000 C 
ENDBRANCH  27  32
ENDBRANCH  21  28
ENDBRANCH   1  21
TORSDOF 5
ENDMDL
MODEL 9
REMARK VINA RESULT:      -5.8      4.865      6.553
REMARK  Name = 
REMARK  7 active torsions:
REMARK  status: ('A' for Active; 'I' for Inactive)
REMARK    1  A    between atoms: C_1  and  O_2
REMARK    2  A    between atoms: O_2  and  C_3
REMARK    3  A    between atoms: C_6  and  O_7
REMARK    4  A    between atoms: O_7  and  C_8
REMARK    5  A    between atoms: C_9  and  S_10
REMARK    6  A    between atoms: S_10  and  N_13
REMARK    7  A    between atoms: C_18  and  C_19
REMARK                            x       y       z     vdW  Elec       q    Type
REMARK                         _______ _______ _______ _____ _____    ______ ____
ROOT
ATOM      1  N   UNL     1      -2.954  14.301  20.616  0.00  0.00    +0.000 NA
ATOM      2  C   UNL     1      -3.440  15.168  21.721  0.00  0.00    +0.000 C 
ATOM      3  C   UNL     1      -3.041  16.620  21.517  0.00  0.00    +0.000 C 
ATOM      4  C   UNL     1      -1.537  16.734  21.330  0.00  0.00    +0.000 C 
ATOM      5  C   UNL     1      -1.108  15.917  20.113  0.00  0.00    +0.000 C 
ATOM      6  C   UNL     1      -1.507  14.436  20.194  0.00  0.00    +0.000 C 
ENDROOT
BRANCH   6   7
ATOM      7  C   UNL     1      -0.466  13.596  20.977  0.00  0.00    +0.000 C 
ATOM      8  O   UNL     1      -0.512  13.560  22.212  0.00  0.00    +0.000 OA
ATOM      9  N   UNL     1       0.566  12.929  20.295  0.00  0.00    +0.000 N 
ATOM     10  C   UNL     1       1.425  12.044  21.094  0.00  0.00    +0.000 C 
ATOM     11  C   UNL     1       0.850  10.612  21.089  0.00  0.00    +0.000 C 
ATOM     12  N   UNL     1       0.728  10.120  19.709  0.00  0.00    +0.000 N 
ATOM     13  C   UNL     1       1.449   9.028  19.269  0.00  0.00    +0.000 A 
ATOM     14  C   UNL     1       1.713   7.952  20.128  0.00  0.00    +0.000 A 
ATOM     15  C   UNL     1       2.472   6.858  19.698  0.00  0.00    +0.000 A 
ATOM     16  C   UNL     1       2.954   6.846  18.402  0.00  0.00    +0.000 A 
ATOM     17  C   UNL     1       2.633   7.923  17.594  0.00  0.00    +0.000 A 
ATOM     18  N   UNL     1       1.897   8.991  17.996  0.00  0.00    +0.000 NA
ATOM     19  C   UNL     1       0.059  11.027  18.744  0.00  0.00    +0.000 C 
ATOM     20  C   UNL     1       0.546  12.495  18.883  0.00  0.00    +0.000 C 
ENDBRANCH   6   7
BRANCH   1  21
ATOM     21  S   UNL     1      -3.510  12.685  20.708  0.00  0.00    +0.000 S 
ATOM     22  O   UNL     1      -3.482  12.263  22.093  0.00  0.00    +0.000 OA
ATOM     23  O   UNL     1      -2.838  11.908  19.681  0.00  0.00    +0.000 OA
BRANCH  21  28
ATOM     24  C   UNL     1      -6.790  13.261  18.422  0.00  0.00    +0.000 A 
ATOM     25  C   UNL     1      -7.814  13.323  19.362  0.00  0.00    +0.000 A 
ATOM     26  C   UNL     1      -7.558  13.095  20.715  0.00  0.00    +0.000 A 
ATOM     27  C   UNL     1      -6.255  12.852  21.167  0.00  0.00    +0.000 A 
ATOM     28  C   UNL     1      -5.228  12.771  20.217  0.00  0.00    +0.000 A 
ATOM     29  C   UNL     1      -5.499  12.950  18.844  0.00  0.00    +0.000 A 
BRANCH  24  31
ATOM     30  C   UNL     1      -7.036  14.910  16.717  0.00  0.00    +0.000 C 
ATOM     31  O   UNL     1      -7.181  13.564  17.149  0.00  0.00    +0.000 OA
ENDBRANCH  24  31
BRANCH  27  32
ATOM     32  O   UNL     1      -5.955  12.680  22.491  0.00  0.00    +0.000 OA
ATOM     33  C   UNL     1      -7.066  12.710  23.387  0.00  0.00    +0.000 C 
ENDBRANCH  27  32
ENDBRANCH  21  28
ENDBRANCH   1  21
TORSDOF 5
ENDMDL
