MODEL 1
REMARK VINA RESULT:      -7.2      0.000      0.000
REMARK  Name = 
REMARK  20 active torsions:
REMARK  status: ('A' for Active; 'I' for Inactive)
REMARK    1  A    between atoms: C_1  and  C_2
REMARK    2  A    between atoms: C_3  and  O_4
REMARK    3  A    between atoms: C_8  and  C_9
REMARK    4  A    between atoms: C_11  and  C_12
REMARK    5  A    between atoms: C_11  and  C_13
REMARK    6  A    between atoms: C_13  and  C_14
REMARK    7  A    between atoms: C_14  and  C_15
REMARK    8  A    between atoms: C_15  and  C_16
REMARK    9  A    between atoms: C_16  and  C_17
REMARK   10  A    between atoms: C_16  and  C_18
REMARK   11  A    between atoms: C_18  and  C_19
REMARK   12  A    between atoms: C_19  and  C_20
REMARK   13  A    between atoms: C_20  and  C_21
REMARK   14  A    between atoms: C_21  and  C_22
REMARK   15  A    between atoms: C_21  and  C_23
REMARK   16  A    between atoms: C_23  and  C_24
REMARK   17  A    between atoms: C_24  and  C_25
REMARK   18  A    between atoms: C_25  and  C_26
REMARK   19  A    between atoms: C_26  and  C_27
REMARK   20  A    between atoms: C_26  and  C_28
REMARK                            x       y       z     vdW  Elec       q    Type
REMARK                         _______ _______ _______ _____ _____    ______ ____
ROOT
ATOM      1  C   UNL     1       7.440   8.081  17.365  0.00  0.00    +0.000 C 
ENDROOT
BRANCH   1  11
ATOM      2  C   UNL     1       1.396   4.311  18.816  0.00  0.00    +0.000 C 
ATOM      3  C   UNL     1       2.733   4.324  18.127  0.00  0.00    +0.000 A 
ATOM      4  C   UNL     1       3.337   3.158  17.619  0.00  0.00    +0.000 A 
ATOM      5  C   UNL     1       4.595   3.196  17.025  0.00  0.00    +0.000 A 
ATOM      6  C   UNL     1       5.298   4.396  16.917  0.00  0.00    +0.000 A 
ATOM      7  C   UNL     1       4.722   5.568  17.436  0.00  0.00    +0.000 A 
ATOM      8  C   UNL     1       3.449   5.545  18.036  0.00  0.00    +0.000 A 
ATOM      9  C   UNL     1       2.883   6.815  18.640  0.00  0.00    +0.000 C 
ATOM     10  O   UNL     1       5.398   6.765  17.436  0.00  0.00    +0.000 OA
ATOM     11  C   UNL     1       6.832   6.652  17.446  0.00  0.00    +0.000 C 
ATOM     12  C   UNL     1       7.275   6.062  18.812  0.00  0.00    +0.000 C 
ATOM     13  C   UNL     1       7.270   5.787  16.254  0.00  0.00    +0.000 C 
ATOM     14  C   UNL     1       6.693   4.383  16.360  0.00  0.00    +0.000 C 
BRANCH   4  15
ATOM     15  O   UNL     1       2.782   1.914  17.683  0.00  0.00    +0.000 OA
ATOM     16  H   UNL     1       2.228   1.753  16.908  0.00  0.00    +0.000 HD
ENDBRANCH   4  15
ENDBRANCH   1  11
BRANCH   1  17
ATOM     17  C   UNL     1       8.476   8.514  18.413  0.00  0.00    +0.000 C 
BRANCH  17  18
ATOM     18  C   UNL     1       8.907   9.984  18.422  0.00  0.00    +0.000 C 
BRANCH  18  19
ATOM     19  C   UNL     1       9.816  10.446  19.585  0.00  0.00    +0.000 C 
ATOM     20  C   UNL     1       8.964  11.283  20.552  0.00  0.00    +0.000 C 
BRANCH  19  21
ATOM     21  C   UNL     1      11.046  11.247  19.105  0.00  0.00    +0.000 C 
BRANCH  21  22
ATOM     22  C   UNL     1      10.982  11.730  17.645  0.00  0.00    +0.000 C 
BRANCH  22  23
ATOM     23  C   UNL     1      11.667  13.074  17.367  0.00  0.00    +0.000 C 
BRANCH  23  24
ATOM     24  C   UNL     1      10.725  14.275  17.104  0.00  0.00    +0.000 C 
ATOM     25  C   UNL     1      11.574  15.553  17.095  0.00  0.00    +0.000 C 
BRANCH  24  26
ATOM     26  C   UNL     1       9.590  14.350  18.148  0.00  0.00    +0.000 C 
BRANCH  26  27
ATOM     27  C   UNL     1       9.788  15.341  19.304  0.00  0.00    +0.000 C 
BRANCH  27  28
ATOM     28  C   UNL     1      10.439  14.783  20.577  0.00  0.00    +0.000 C 
BRANCH  28  29
ATOM     29  C   UNL     1       9.520  14.618  21.802  0.00  0.00    +0.000 C 
ATOM     30  C   UNL     1       9.922  15.514  22.975  0.00  0.00    +0.000 C 
ATOM     31  C   UNL     1       8.073  14.933  21.405  0.00  0.00    +0.000 C 
ENDBRANCH  28  29
ENDBRANCH  27  28
ENDBRANCH  26  27
ENDBRANCH  24  26
ENDBRANCH  23  24
ENDBRANCH  22  23
ENDBRANCH  21  22
ENDBRANCH  19  21
ENDBRANCH  18  19
ENDBRANCH  17  18
ENDBRANCH   1  17
TORSDOF 13
ENDMDL
MODEL 2
REMARK VINA RESULT:      -7.1      5.702      9.856
REMARK  Name = 
REMARK  20 active torsions:
REMARK  status: ('A' for Active; 'I' for Inactive)
REMARK    1  A    between atoms: C_1  and  C_2
REMARK    2  A    between atoms: C_3  and  O_4
REMARK    3  A    between atoms: C_8  and  C_9
REMARK    4  A    between atoms: C_11  and  C_12
REMARK    5  A    between atoms: C_11  and  C_13
REMARK    6  A    between atoms: C_13  and  C_14
REMARK    7  A    between atoms: C_14  and  C_15
REMARK    8  A    between atoms: C_15  and  C_16
REMARK    9  A    between atoms: C_16  and  C_17
REMARK   10  A    between atoms: C_16  and  C_18
REMARK   11  A    between atoms: C_18  and  C_19
REMARK   12  A    between atoms: C_19  and  C_20
REMARK   13  A    between atoms: C_20  and  C_21
REMARK   14  A    between atoms: C_21  and  C_22
REMARK   15  A    between atoms: C_21  and  C_23
REMARK   16  A    between atoms: C_23  and  C_24
REMARK   17  A    between atoms: C_24  and  C_25
REMARK   18  A    between atoms: C_25  and  C_26
REMARK   19  A    between atoms: C_26  and  C_27
REMARK   20  A    between atoms: C_26  and  C_28
REMARK                            x       y       z     vdW  Elec       q    Type
REMARK                         _______ _______ _______ _____ _____    ______ ____
ROOT
ATOM      1  C   UNL     1       2.075   8.421  17.719  0.00  0.00    +0.000 C 
ENDROOT
BRANCH   1  11
ATOM      2  C   UNL     1      -4.331  11.831  17.275  0.00  0.00    +0.000 C 
ATOM      3  C   UNL     1      -3.154  11.477  18.143  0.00  0.00    +0.000 A 
ATOM      4  C   UNL     1      -2.911  12.097  19.384  0.00  0.00    +0.000 A 
ATOM      5  C   UNL     1      -1.789  11.778  20.143  0.00  0.00    +0.000 A 
ATOM      6  C   UNL     1      -0.867  10.833  19.693  0.00  0.00    +0.000 A 
ATOM      7  C   UNL     1      -1.080  10.217  18.449  0.00  0.00    +0.000 A 
ATOM      8  C   UNL     1      -2.212  10.526  17.672  0.00  0.00    +0.000 A 
ATOM      9  C   UNL     1      -2.380   9.890  16.306  0.00  0.00    +0.000 C 
ATOM     10  O   UNL     1      -0.167   9.340  17.912  0.00  0.00    +0.000 OA
ATOM     11  C   UNL     1       1.189   9.532  18.350  0.00  0.00    +0.000 C 
ATOM     12  C   UNL     1       1.708  10.882  17.785  0.00  0.00    +0.000 C 
ATOM     13  C   UNL     1       1.228   9.476  19.885  0.00  0.00    +0.000 C 
ATOM     14  C   UNL     1       0.382  10.587  20.491  0.00  0.00    +0.000 C 
BRANCH   4  15
ATOM     15  O   UNL     1      -3.708  13.059  19.932  0.00  0.00    +0.000 OA
ATOM     16  H   UNL     1      -3.684  13.005  20.896  0.00  0.00    +0.000 HD
ENDBRANCH   4  15
ENDBRANCH   1  11
BRANCH   1  17
ATOM     17  C   UNL     1       2.775   7.409  18.638  0.00  0.00    +0.000 C 
BRANCH  17  18
ATOM     18  C   UNL     1       2.802   5.944  18.194  0.00  0.00    +0.000 C 
BRANCH  18  19
ATOM     19  C   UNL     1       2.408   4.880  19.246  0.00  0.00    +0.000 C 
ATOM     20  C   UNL     1       1.769   5.605  20.441  0.00  0.00    +0.000 C 
BRANCH  19  21
ATOM     21  C   UNL     1       3.603   4.016  19.704  0.00  0.00    +0.000 C 
BRANCH  21  22
ATOM     22  C   UNL     1       4.835   4.064  18.782  0.00  0.00    +0.000 C 
BRANCH  22  23
ATOM     23  C   UNL     1       5.927   5.057  19.197  0.00  0.00    +0.000 C 
BRANCH  23  24
ATOM     24  C   UNL     1       7.154   5.151  18.256  0.00  0.00    +0.000 C 
ATOM     25  C   UNL     1       7.634   6.608  18.244  0.00  0.00    +0.000 C 
BRANCH  24  26
ATOM     26  C   UNL     1       6.822   4.647  16.834  0.00  0.00    +0.000 C 
BRANCH  26  27
ATOM     27  C   UNL     1       6.064   5.622  15.922  0.00  0.00    +0.000 C 
BRANCH  27  28
ATOM     28  C   UNL     1       5.517   5.042  14.610  0.00  0.00    +0.000 C 
BRANCH  28  29
ATOM     29  C   UNL     1       6.480   4.154  13.799  0.00  0.00    +0.000 C 
ATOM     30  C   UNL     1       5.790   3.427  12.642  0.00  0.00    +0.000 C 
ATOM     31  C   UNL     1       7.622   5.012  13.240  0.00  0.00    +0.000 C 
ENDBRANCH  28  29
ENDBRANCH  27  28
ENDBRANCH  26  27
ENDBRANCH  24  26
ENDBRANCH  23  24
ENDBRANCH  22  23
ENDBRANCH  21  22
ENDBRANCH  19  21
ENDBRANCH  18  19
ENDBRANCH  17  18
ENDBRANCH   1  17
TORSDOF 13
ENDMDL
MODEL 3
REMARK VINA RESULT:      -7.0      1.724      2.331
REMARK  Name = 
REMARK  20 active torsions:
REMARK  status: ('A' for Active; 'I' for Inactive)
REMARK    1  A    between atoms: C_1  and  C_2
REMARK    2  A    between atoms: C_3  and  O_4
REMARK    3  A    between atoms: C_8  and  C_9
REMARK    4  A    between atoms: C_11  and  C_12
REMARK    5  A    between atoms: C_11  and  C_13
REMARK    6  A    between atoms: C_13  and  C_14
REMARK    7  A    between atoms: C_14  and  C_15
REMARK    8  A    between atoms: C_15  and  C_16
REMARK    9  A    between atoms: C_16  and  C_17
REMARK   10  A    between atoms: C_16  and  C_18
REMARK   11  A    between atoms: C_18  and  C_19
REMARK   12  A    between atoms: C_19  and  C_20
REMARK   13  A    between atoms: C_20  and  C_21
REMARK   14  A    between atoms: C_21  and  C_22
REMARK   15  A    between atoms: C_21  and  C_23
REMARK   16  A    between atoms: C_23  and  C_24
REMARK   17  A    between atoms: C_24  and  C_25
REMARK   18  A    between atoms: C_25  and  C_26
REMARK   19  A    between atoms: C_26  and  C_27
REMARK   20  A    between atoms: C_26  and  C_28
REMARK                            x       y       z     vdW  Elec       q    Type
REMARK                         _______ _______ _______ _____ _____    ______ ____
ROOT
ATOM      1  C   UNL     1       6.734   7.850  17.143  0.00  0.00    +0.000 C 
ENDROOT
BRANCH   1  11
ATOM      2  C   UNL     1       1.204   4.103  20.014  0.00  0.00    +0.000 C 
ATOM      3  C   UNL     1       2.338   4.110  19.025  0.00  0.00    +0.000 A 
ATOM      4  C   UNL     1       2.798   2.940  18.391  0.00  0.00    +0.000 A 
ATOM      5  C   UNL     1       3.877   2.973  17.512  0.00  0.00    +0.000 A 
ATOM      6  C   UNL     1       4.538   4.171  17.235  0.00  0.00    +0.000 A 
ATOM      7  C   UNL     1       4.106   5.345  17.872  0.00  0.00    +0.000 A 
ATOM      8  C   UNL     1       3.014   5.329  18.760  0.00  0.00    +0.000 A 
ATOM      9  C   UNL     1       2.612   6.602  19.477  0.00  0.00    +0.000 C 
ATOM     10  O   UNL     1       4.765   6.540  17.706  0.00  0.00    +0.000 OA
ATOM     11  C   UNL     1       6.158   6.423  17.372  0.00  0.00    +0.000 C 
ATOM     12  C   UNL     1       6.915   5.835  18.594  0.00  0.00    +0.000 C 
ATOM     13  C   UNL     1       6.296   5.553  16.113  0.00  0.00    +0.000 C 
ATOM     14  C   UNL     1       5.758   4.152  16.360  0.00  0.00    +0.000 C 
BRANCH   4  15
ATOM     15  O   UNL     1       2.272   1.698  18.590  0.00  0.00    +0.000 OA
ATOM     16  H   UNL     1       2.917   1.018  18.354  0.00  0.00    +0.000 HD
ENDBRANCH   4  15
ENDBRANCH   1  11
BRANCH   1  17
ATOM     17  C   UNL     1       8.035   8.256  17.851  0.00  0.00    +0.000 C 
BRANCH  17  18
ATOM     18  C   UNL     1       8.213   9.731  18.222  0.00  0.00    +0.000 C 
BRANCH  18  19
ATOM     19  C   UNL     1       9.583  10.154  18.799  0.00  0.00    +0.000 C 
ATOM     20  C   UNL     1       9.358  10.678  20.226  0.00  0.00    +0.000 C 
BRANCH  19  21
ATOM     21  C   UNL     1      10.299  11.213  17.933  0.00  0.00    +0.000 C 
BRANCH  21  22
ATOM     22  C   UNL     1      11.114  12.257  18.718  0.00  0.00    +0.000 C 
BRANCH  22  23
ATOM     23  C   UNL     1      10.852  13.718  18.334  0.00  0.00    +0.000 C 
BRANCH  23  24
ATOM     24  C   UNL     1       9.848  14.486  19.229  0.00  0.00    +0.000 C 
ATOM     25  C   UNL     1      10.255  14.273  20.693  0.00  0.00    +0.000 C 
BRANCH  24  26
ATOM     26  C   UNL     1       8.393  14.038  18.969  0.00  0.00    +0.000 C 
BRANCH  26  27
ATOM     27  C   UNL     1       7.640  14.773  17.851  0.00  0.00    +0.000 C 
BRANCH  27  28
ATOM     28  C   UNL     1       6.109  14.656  17.870  0.00  0.00    +0.000 C 
BRANCH  28  29
ATOM     29  C   UNL     1       5.384  15.325  19.053  0.00  0.00    +0.000 C 
ATOM     30  C   UNL     1       5.385  16.853  18.966  0.00  0.00    +0.000 C 
ATOM     31  C   UNL     1       3.935  14.828  19.115  0.00  0.00    +0.000 C 
ENDBRANCH  28  29
ENDBRANCH  27  28
ENDBRANCH  26  27
ENDBRANCH  24  26
ENDBRANCH  23  24
ENDBRANCH  22  23
ENDBRANCH  21  22
ENDBRANCH  19  21
ENDBRANCH  18  19
ENDBRANCH  17  18
ENDBRANCH   1  17
TORSDOF 13
ENDMDL
MODEL 4
REMARK VINA RESULT:      -7.0      5.842     10.384
REMARK  Name = 
REMARK  20 active torsions:
REMARK  status: ('A' for Active; 'I' for Inactive)
REMARK    1  A    between atoms: C_1  and  C_2
REMARK    2  A    between atoms: C_3  and  O_4
REMARK    3  A    between atoms: C_8  and  C_9
REMARK    4  A    between atoms: C_11  and  C_12
REMARK    5  A    between atoms: C_11  and  C_13
REMARK    6  A    between atoms: C_13  and  C_14
REMARK    7  A    between atoms: C_14  and  C_15
REMARK    8  A    between atoms: C_15  and  C_16
REMARK    9  A    between atoms: C_16  and  C_17
REMARK   10  A    between atoms: C_16  and  C_18
REMARK   11  A    between atoms: C_18  and  C_19
REMARK   12  A    between atoms: C_19  and  C_20
REMARK   13  A    between atoms: C_20  and  C_21
REMARK   14  A    between atoms: C_21  and  C_22
REMARK   15  A    between atoms: C_21  and  C_23
REMARK   16  A    between atoms: C_23  and  C_24
REMARK   17  A    between atoms: C_24  and  C_25
REMARK   18  A    between atoms: C_25  and  C_26
REMARK   19  A    between atoms: C_26  and  C_27
REMARK   20  A    between atoms: C_26  and  C_28
REMARK                            x       y       z     vdW  Elec       q    Type
REMARK                         _______ _______ _______ _____ _____    ______ ____
ROOT
ATOM      1  C   UNL     1       2.340   9.429  18.553  0.00  0.00    +0.000 C 
ENDROOT
BRANCH   1  11
ATOM      2  C   UNL     1      -4.472  11.522  17.114  0.00  0.00    +0.000 C 
ATOM      3  C   UNL     1      -3.370  11.447  18.136  0.00  0.00    +0.000 A 
ATOM      4  C   UNL     1      -3.407  12.166  19.346  0.00  0.00    +0.000 A 
ATOM      5  C   UNL     1      -2.352  12.108  20.253  0.00  0.00    +0.000 A 
ATOM      6  C   UNL     1      -1.221  11.334  19.985  0.00  0.00    +0.000 A 
ATOM      7  C   UNL     1      -1.157  10.625  18.775  0.00  0.00    +0.000 A 
ATOM      8  C   UNL     1      -2.218  10.670  17.851  0.00  0.00    +0.000 A 
ATOM      9  C   UNL     1      -2.090   9.942  16.527  0.00  0.00    +0.000 C 
ATOM     10  O   UNL     1      -0.037   9.912  18.415  0.00  0.00    +0.000 OA
ATOM     11  C   UNL     1       1.192  10.382  18.992  0.00  0.00    +0.000 C 
ATOM     12  C   UNL     1       1.523  11.775  18.391  0.00  0.00    +0.000 C 
ATOM     13  C   UNL     1       1.044  10.415  20.521  0.00  0.00    +0.000 C 
ATOM     14  C   UNL     1      -0.062  11.374  20.938  0.00  0.00    +0.000 C 
BRANCH   4  15
ATOM     15  O   UNL     1      -4.429  12.985  19.724  0.00  0.00    +0.000 OA
ATOM     16  H   UNL     1      -4.167  13.911  19.639  0.00  0.00    +0.000 HD
ENDBRANCH   4  15
ENDBRANCH   1  11
BRANCH   1  17
ATOM     17  C   UNL     1       1.993   8.019  18.053  0.00  0.00    +0.000 C 
BRANCH  17  18
ATOM     18  C   UNL     1       3.141   7.141  17.545  0.00  0.00    +0.000 C 
BRANCH  18  19
ATOM     19  C   UNL     1       3.151   5.662  17.996  0.00  0.00    +0.000 C 
ATOM     20  C   UNL     1       1.701   5.239  18.278  0.00  0.00    +0.000 C 
BRANCH  19  21
ATOM     21  C   UNL     1       4.044   5.416  19.231  0.00  0.00    +0.000 C 
BRANCH  21  22
ATOM     22  C   UNL     1       5.549   5.287  18.935  0.00  0.00    +0.000 C 
BRANCH  22  23
ATOM     23  C   UNL     1       5.903   4.518  17.656  0.00  0.00    +0.000 C 
BRANCH  23  24
ATOM     24  C   UNL     1       6.764   5.282  16.620  0.00  0.00    +0.000 C 
ATOM     25  C   UNL     1       7.157   6.634  17.232  0.00  0.00    +0.000 C 
BRANCH  24  26
ATOM     26  C   UNL     1       6.022   5.457  15.277  0.00  0.00    +0.000 C 
BRANCH  26  27
ATOM     27  C   UNL     1       5.609   4.169  14.551  0.00  0.00    +0.000 C 
BRANCH  27  28
ATOM     28  C   UNL     1       6.401   3.818  13.284  0.00  0.00    +0.000 C 
BRANCH  28  29
ATOM     29  C   UNL     1       5.740   2.814  12.319  0.00  0.00    +0.000 C 
ATOM     30  C   UNL     1       4.583   3.423  11.524  0.00  0.00    +0.000 C 
ATOM     31  C   UNL     1       6.791   2.276  11.340  0.00  0.00    +0.000 C 
ENDBRANCH  28  29
ENDBRANCH  27  28
ENDBRANCH  26  27
ENDBRANCH  24  26
ENDBRANCH  23  24
ENDBRANCH  22  23
ENDBRANCH  21  22
ENDBRANCH  19  21
ENDBRANCH  18  19
ENDBRANCH  17  18
ENDBRANCH   1  17
TORSDOF 13
ENDMDL
MODEL 5
REMARK VINA RESULT:      -6.9      5.783     10.152
REMARK  Name = 
REMARK  20 active torsions:
REMARK  status: ('A' for Active; 'I' for Inactive)
REMARK    1  A    between atoms: C_1  and  C_2
REMARK    2  A    between atoms: C_3  and  O_4
REMARK    3  A    between atoms: C_8  and  C_9
REMARK    4  A    between atoms: C_11  and  C_12
REMARK    5  A    between atoms: C_11  and  C_13
REMARK    6  A    between atoms: C_13  and  C_14
REMARK    7  A    between atoms: C_14  and  C_15
REMARK    8  A    between atoms: C_15  and  C_16
REMARK    9  A    between atoms: C_16  and  C_17
REMARK   10  A    between atoms: C_16  and  C_18
REMARK   11  A    between atoms: C_18  and  C_19
REMARK   12  A    between atoms: C_19  and  C_20
REMARK   13  A    between atoms: C_20  and  C_21
REMARK   14  A    between atoms: C_21  and  C_22
REMARK   15  A    between atoms: C_21  and  C_23
REMARK   16  A    between atoms: C_23  and  C_24
REMARK   17  A    between atoms: C_24  and  C_25
REMARK   18  A    between atoms: C_25  and  C_26
REMARK   19  A    between atoms: C_26  and  C_27
REMARK   20  A    between atoms: C_26  and  C_28
REMARK                            x       y       z     vdW  Elec       q    Type
REMARK                         _______ _______ _______ _____ _____    ______ ____
ROOT
ATOM      1  C   UNL     1       2.085   8.051  17.508  0.00  0.00    +0.000 C 
ENDROOT
BRANCH   1  11
ATOM      2  C   UNL     1      -3.967  12.059  17.914  0.00  0.00    +0.000 C 
ATOM      3  C   UNL     1      -2.782  11.495  18.651  0.00  0.00    +0.000 A 
ATOM      4  C   UNL     1      -2.409  11.931  19.936  0.00  0.00    +0.000 A 
ATOM      5  C   UNL     1      -1.282  11.420  20.573  0.00  0.00    +0.000 A 
ATOM      6  C   UNL     1      -0.485  10.457  19.952  0.00  0.00    +0.000 A 
ATOM      7  C   UNL     1      -0.829  10.023  18.662  0.00  0.00    +0.000 A 
ATOM      8  C   UNL     1      -1.968  10.528  18.006  0.00  0.00    +0.000 A 
ATOM      9  C   UNL     1      -2.276  10.084  16.591  0.00  0.00    +0.000 C 
ATOM     10  O   UNL     1      -0.039   9.140  17.963  0.00  0.00    +0.000 OA
ATOM     11  C   UNL     1       1.352   9.152  18.326  0.00  0.00    +0.000 C 
ATOM     12  C   UNL     1       1.968  10.509  17.890  0.00  0.00    +0.000 C 
ATOM     13  C   UNL     1       1.473   8.902  19.838  0.00  0.00    +0.000 C 
ATOM     14  C   UNL     1       0.777  10.001  20.627  0.00  0.00    +0.000 C 
BRANCH   4  15
ATOM     15  O   UNL     1      -3.073  12.886  20.648  0.00  0.00    +0.000 OA
ATOM     16  H   UNL     1      -4.027  12.799  20.517  0.00  0.00    +0.000 HD
ENDBRANCH   4  15
ENDBRANCH   1  11
BRANCH   1  17
ATOM     17  C   UNL     1       3.260   7.299  18.151  0.00  0.00    +0.000 C 
BRANCH  17  18
ATOM     18  C   UNL     1       4.668   7.595  17.626  0.00  0.00    +0.000 C 
BRANCH  18  19
ATOM     19  C   UNL     1       5.570   6.382  17.300  0.00  0.00    +0.000 C 
ATOM     20  C   UNL     1       7.023   6.876  17.223  0.00  0.00    +0.000 C 
BRANCH  19  21
ATOM     21  C   UNL     1       5.165   5.664  15.994  0.00  0.00    +0.000 C 
BRANCH  21  22
ATOM     22  C   UNL     1       5.018   4.136  16.106  0.00  0.00    +0.000 C 
BRANCH  22  23
ATOM     23  C   UNL     1       5.314   3.548  17.492  0.00  0.00    +0.000 C 
BRANCH  23  24
ATOM     24  C   UNL     1       4.088   3.326  18.411  0.00  0.00    +0.000 C 
ATOM     25  C   UNL     1       4.584   2.715  19.728  0.00  0.00    +0.000 C 
BRANCH  24  26
ATOM     26  C   UNL     1       3.021   2.437  17.735  0.00  0.00    +0.000 C 
BRANCH  26  27
ATOM     27  C   UNL     1       1.627   2.432  18.379  0.00  0.00    +0.000 C 
BRANCH  27  28
ATOM     28  C   UNL     1       1.070   3.796  18.808  0.00  0.00    +0.000 C 
BRANCH  28  29
ATOM     29  C   UNL     1       0.916   4.028  20.324  0.00  0.00    +0.000 C 
ATOM     30  C   UNL     1       1.290   2.801  21.157  0.00  0.00    +0.000 C 
ATOM     31  C   UNL     1       1.792   5.211  20.754  0.00  0.00    +0.000 C 
ENDBRANCH  28  29
ENDBRANCH  27  28
ENDBRANCH  26  27
ENDBRANCH  24  26
ENDBRANCH  23  24
ENDBRANCH  22  23
ENDBRANCH  21  22
ENDBRANCH  19  21
ENDBRANCH  18  19
ENDBRANCH  17  18
ENDBRANCH   1  17
TORSDOF 13
ENDMDL
MODEL 6
REMARK VINA RESULT:      -6.9      1.042      1.403
REMARK  Name = 
REMARK  20 active torsions:
REMARK  status: ('A' for Active; 'I' for Inactive)
REMARK    1  A    between atoms: C_1  and  C_2
REMARK    2  A    between atoms: C_3  and  O_4
REMARK    3  A    between atoms: C_8  and  C_9
REMARK    4  A    between atoms: C_11  and  C_12
REMARK    5  A    between atoms: C_11  and  C_13
REMARK    6  A    between atoms: C_13  and  C_14
REMARK    7  A    between atoms: C_14  and  C_15
REMARK    8  A    between atoms: C_15  and  C_16
REMARK    9  A    between atoms: C_16  and  C_17
REMARK   10  A    between atoms: C_16  and  C_18
REMARK   11  A    between atoms: C_18  and  C_19
REMARK   12  A    between atoms: C_19  and  C_20
REMARK   13  A    between atoms: C_20  and  C_21
REMARK   14  A    between atoms: C_21  and  C_22
REMARK   15  A    between atoms: C_21  and  C_23
REMARK   16  A    between atoms: C_23  and  C_24
REMARK   17  A    between atoms: C_24  and  C_25
REMARK   18  A    between atoms: C_25  and  C_26
REMARK   19  A    between atoms: C_26  and  C_27
REMARK   20  A    between atoms: C_26  and  C_28
REMARK                            x       y       z     vdW  Elec       q    Type
REMARK                         _______ _______ _______ _____ _____    ______ ____
ROOT
ATOM      1  C   UNL     1       7.445   7.420  16.720  0.00  0.00    +0.000 C 
ENDROOT
BRANCH   1  11
ATOM      2  C   UNL     1       1.429   4.377  19.441  0.00  0.00    +0.000 C 
ATOM      3  C   UNL     1       2.573   4.250  18.472  0.00  0.00    +0.000 A 
ATOM      4  C   UNL     1       2.892   3.040  17.829  0.00  0.00    +0.000 A 
ATOM      5  C   UNL     1       3.983   2.944  16.969  0.00  0.00    +0.000 A 
ATOM      6  C   UNL     1       4.796   4.051  16.721  0.00  0.00    +0.000 A 
ATOM      7  C   UNL     1       4.506   5.264  17.367  0.00  0.00    +0.000 A 
ATOM      8  C   UNL     1       3.404   5.376  18.236  0.00  0.00    +0.000 A 
ATOM      9  C   UNL     1       3.155   6.682  18.965  0.00  0.00    +0.000 C 
ATOM     10  O   UNL     1       5.315   6.367  17.230  0.00  0.00    +0.000 OA
ATOM     11  C   UNL     1       6.688   6.076  16.919  0.00  0.00    +0.000 C 
ATOM     12  C   UNL     1       7.340   5.381  18.145  0.00  0.00    +0.000 C 
ATOM     13  C   UNL     1       6.738   5.211  15.650  0.00  0.00    +0.000 C 
ATOM     14  C   UNL     1       6.020   3.887  15.867  0.00  0.00    +0.000 C 
BRANCH   4  15
ATOM     15  O   UNL     1       2.208   1.873  18.001  0.00  0.00    +0.000 OA
ATOM     16  H   UNL     1       2.816   1.158  18.232  0.00  0.00    +0.000 HD
ENDBRANCH   4  15
ENDBRANCH   1  11
BRANCH   1  17
ATOM     17  C   UNL     1       7.415   8.469  17.841  0.00  0.00    +0.000 C 
BRANCH  17  18
ATOM     18  C   UNL     1       8.660   8.602  18.724  0.00  0.00    +0.000 C 
BRANCH  18  19
ATOM     19  C   UNL     1       9.313  10.001  18.818  0.00  0.00    +0.000 C 
ATOM     20  C   UNL     1       9.192  10.487  20.271  0.00  0.00    +0.000 C 
BRANCH  19  21
ATOM     21  C   UNL     1       8.688  11.023  17.845  0.00  0.00    +0.000 C 
BRANCH  21  22
ATOM     22  C   UNL     1       9.449  12.355  17.717  0.00  0.00    +0.000 C 
BRANCH  22  23
ATOM     23  C   UNL     1      10.976  12.232  17.639  0.00  0.00    +0.000 C 
BRANCH  23  24
ATOM     24  C   UNL     1      11.780  13.147  18.596  0.00  0.00    +0.000 C 
ATOM     25  C   UNL     1      12.326  12.279  19.737  0.00  0.00    +0.000 C 
BRANCH  24  26
ATOM     26  C   UNL     1      10.921  14.315  19.126  0.00  0.00    +0.000 C 
BRANCH  26  27
ATOM     27  C   UNL     1      10.749  14.401  20.650  0.00  0.00    +0.000 C 
BRANCH  27  28
ATOM     28  C   UNL     1       9.414  13.894  21.214  0.00  0.00    +0.000 C 
BRANCH  28  29
ATOM     29  C   UNL     1       9.100  14.272  22.674  0.00  0.00    +0.000 C 
ATOM     30  C   UNL     1       9.657  15.641  23.070  0.00  0.00    +0.000 C 
ATOM     31  C   UNL     1       7.581  14.268  22.890  0.00  0.00    +0.000 C 
ENDBRANCH  28  29
ENDBRANCH  27  28
ENDBRANCH  26  27
ENDBRANCH  24  26
ENDBRANCH  23  24
ENDBRANCH  22  23
ENDBRANCH  21  22
ENDBRANCH  19  21
ENDBRANCH  18  19
ENDBRANCH  17  18
ENDBRANCH   1  17
TORSDOF 13
ENDMDL
MODEL 7
REMARK VINA RESULT:      -6.9      2.982     10.898
REMARK  Name = 
REMARK  20 active torsions:
REMARK  status: ('A' for Active; 'I' for Inactive)
REMARK    1  A    between atoms: C_1  and  C_2
REMARK    2  A    between atoms: C_3  and  O_4
REMARK    3  A    between atoms: C_8  and  C_9
REMARK    4  A    between atoms: C_11  and  C_12
REMARK    5  A    between atoms: C_11  and  C_13
REMARK    6  A    between atoms: C_13  and  C_14
REMARK    7  A    between atoms: C_14  and  C_15
REMARK    8  A    between atoms: C_15  and  C_16
REMARK    9  A    between atoms: C_16  and  C_17
REMARK   10  A    between atoms: C_16  and  C_18
REMARK   11  A    between atoms: C_18  and  C_19
REMARK   12  A    between atoms: C_19  and  C_20
REMARK   13  A    between atoms: C_20  and  C_21
REMARK   14  A    between atoms: C_21  and  C_22
REMARK   15  A    between atoms: C_21  and  C_23
REMARK   16  A    between atoms: C_23  and  C_24
REMARK   17  A    between atoms: C_24  and  C_25
REMARK   18  A    between atoms: C_25  and  C_26
REMARK   19  A    between atoms: C_26  and  C_27
REMARK   20  A    between atoms: C_26  and  C_28
REMARK                            x       y       z     vdW  Elec       q    Type
REMARK                         _______ _______ _______ _____ _____    ______ ____
ROOT
ATOM      1  C   UNL     1       8.928   9.934  19.090  0.00  0.00    +0.000 C 
ENDROOT
BRANCH   1  11
ATOM      2  C   UNL     1       8.389  17.122  18.149  0.00  0.00    +0.000 C 
ATOM      3  C   UNL     1       9.192  15.988  18.725  0.00  0.00    +0.000 A 
ATOM      4  C   UNL     1      10.513  16.148  19.183  0.00  0.00    +0.000 A 
ATOM      5  C   UNL     1      11.244  15.069  19.672  0.00  0.00    +0.000 A 
ATOM      6  C   UNL     1      10.687  13.791  19.719  0.00  0.00    +0.000 A 
ATOM      7  C   UNL     1       9.376  13.605  19.248  0.00  0.00    +0.000 A 
ATOM      8  C   UNL     1       8.623  14.688  18.755  0.00  0.00    +0.000 A 
ATOM      9  C   UNL     1       7.235  14.443  18.198  0.00  0.00    +0.000 C 
ATOM     10  O   UNL     1       8.800  12.358  19.190  0.00  0.00    +0.000 OA
ATOM     11  C   UNL     1       9.727  11.267  19.062  0.00  0.00    +0.000 C 
ATOM     12  C   UNL     1      10.400  11.348  17.665  0.00  0.00    +0.000 C 
ATOM     13  C   UNL     1      10.741  11.338  20.214  0.00  0.00    +0.000 C 
ATOM     14  C   UNL     1      11.537  12.634  20.158  0.00  0.00    +0.000 C 
BRANCH   4  15
ATOM     15  O   UNL     1      11.195  17.329  19.168  0.00  0.00    +0.000 OA
ATOM     16  H   UNL     1      11.753  17.384  18.381  0.00  0.00    +0.000 HD
ENDBRANCH   4  15
ENDBRANCH   1  11
BRANCH   1  17
ATOM     17  C   UNL     1       8.069   9.549  17.876  0.00  0.00    +0.000 C 
BRANCH  17  18
ATOM     18  C   UNL     1       8.081   8.084  17.430  0.00  0.00    +0.000 C 
BRANCH  18  19
ATOM     19  C   UNL     1       6.987   7.159  18.012  0.00  0.00    +0.000 C 
ATOM     20  C   UNL     1       7.657   5.849  18.455  0.00  0.00    +0.000 C 
BRANCH  19  21
ATOM     21  C   UNL     1       5.843   6.879  17.013  0.00  0.00    +0.000 C 
BRANCH  21  22
ATOM     22  C   UNL     1       5.609   5.394  16.687  0.00  0.00    +0.000 C 
BRANCH  22  23
ATOM     23  C   UNL     1       4.531   4.699  17.529  0.00  0.00    +0.000 C 
BRANCH  23  24
ATOM     24  C   UNL     1       3.332   5.581  17.958  0.00  0.00    +0.000 C 
ATOM     25  C   UNL     1       3.519   5.954  19.434  0.00  0.00    +0.000 C 
BRANCH  24  26
ATOM     26  C   UNL     1       1.983   4.868  17.715  0.00  0.00    +0.000 C 
BRANCH  26  27
ATOM     27  C   UNL     1       1.436   4.027  18.877  0.00  0.00    +0.000 C 
BRANCH  27  28
ATOM     28  C   UNL     1       2.002   2.607  19.016  0.00  0.00    +0.000 C 
BRANCH  28  29
ATOM     29  C   UNL     1       2.686   2.269  20.354  0.00  0.00    +0.000 C 
ATOM     30  C   UNL     1       4.213   2.341  20.279  0.00  0.00    +0.000 C 
ATOM     31  C   UNL     1       2.193   3.232  21.441  0.00  0.00    +0.000 C 
ENDBRANCH  28  29
ENDBRANCH  27  28
ENDBRANCH  26  27
ENDBRANCH  24  26
ENDBRANCH  23  24
ENDBRANCH  22  23
ENDBRANCH  21  22
ENDBRANCH  19  21
ENDBRANCH  18  19
ENDBRANCH  17  18
ENDBRANCH   1  17
TORSDOF 13
ENDMDL
MODEL 8
REMARK VINA RESULT:      -6.9      2.832     10.633
REMARK  Name = 
REMARK  20 active torsions:
REMARK  status: ('A' for Active; 'I' for Inactive)
REMARK    1  A    between atoms: C_1  and  C_2
REMARK    2  A    between atoms: C_3  and  O_4
REMARK    3  A    between atoms: C_8  and  C_9
REMARK    4  A    between atoms: C_11  and  C_12
REMARK    5  A    between atoms: C_11  and  C_13
REMARK    6  A    between atoms: C_13  and  C_14
REMARK    7  A    between atoms: C_14  and  C_15
REMARK    8  A    between atoms: C_15  and  C_16
REMARK    9  A    between atoms: C_16  and  C_17
REMARK   10  A    between atoms: C_16  and  C_18
REMARK   11  A    between atoms: C_18  and  C_19
REMARK   12  A    between atoms: C_19  and  C_20
REMARK   13  A    between atoms: C_20  and  C_21
REMARK   14  A    between atoms: C_21  and  C_22
REMARK   15  A    between atoms: C_21  and  C_23
REMARK   16  A    between atoms: C_23  and  C_24
REMARK   17  A    between atoms: C_24  and  C_25
REMARK   18  A    between atoms: C_25  and  C_26
REMARK   19  A    between atoms: C_26  and  C_27
REMARK   20  A    between atoms: C_26  and  C_28
REMARK                            x       y       z     vdW  Elec       q    Type
REMARK                         _______ _______ _______ _____ _____    ______ ____
ROOT
ATOM      1  C   UNL     1       9.624   9.914  18.084  0.00  0.00    +0.000 C 
ENDROOT
BRANCH   1  11
ATOM      2  C   UNL     1       8.656  14.502  23.640  0.00  0.00    +0.000 C 
ATOM      3  C   UNL     1       9.435  14.187  22.392  0.00  0.00    +0.000 A 
ATOM      4  C   UNL     1      10.277  15.126  21.765  0.00  0.00    +0.000 A 
ATOM      5  C   UNL     1      10.952  14.818  20.587  0.00  0.00    +0.000 A 
ATOM      6  C   UNL     1      10.809  13.565  19.989  0.00  0.00    +0.000 A 
ATOM      7  C   UNL     1       9.959  12.621  20.587  0.00  0.00    +0.000 A 
ATOM      8  C   UNL     1       9.274  12.917  21.781  0.00  0.00    +0.000 A 
ATOM      9  C   UNL     1       8.316  11.898  22.367  0.00  0.00    +0.000 C 
ATOM     10  O   UNL     1       9.711  11.401  20.004  0.00  0.00    +0.000 OA
ATOM     11  C   UNL     1       9.858  11.371  18.574  0.00  0.00    +0.000 C 
ATOM     12  C   UNL     1       8.735  12.235  17.940  0.00  0.00    +0.000 C 
ATOM     13  C   UNL     1      11.266  11.866  18.209  0.00  0.00    +0.000 C 
ATOM     14  C   UNL     1      11.473  13.302  18.668  0.00  0.00    +0.000 C 
BRANCH   4  15
ATOM     15  O   UNL     1      10.486  16.395  22.218  0.00  0.00    +0.000 OA
ATOM     16  H   UNL     1      11.347  16.719  21.923  0.00  0.00    +0.000 HD
ENDBRANCH   4  15
ENDBRANCH   1  11
BRANCH   1  17
ATOM     17  C   UNL     1       8.272   9.239  18.360  0.00  0.00    +0.000 C 
BRANCH  17  18
ATOM     18  C   UNL     1       7.777   8.198  17.351  0.00  0.00    +0.000 C 
BRANCH  18  19
ATOM     19  C   UNL     1       7.177   6.891  17.920  0.00  0.00    +0.000 C 
ATOM     20  C   UNL     1       8.119   6.375  19.019  0.00  0.00    +0.000 C 
BRANCH  19  21
ATOM     21  C   UNL     1       6.953   5.812  16.839  0.00  0.00    +0.000 C 
BRANCH  21  22
ATOM     22  C   UNL     1       5.831   4.804  17.144  0.00  0.00    +0.000 C 
BRANCH  22  23
ATOM     23  C   UNL     1       4.754   5.296  18.119  0.00  0.00    +0.000 C 
BRANCH  23  24
ATOM     24  C   UNL     1       3.498   5.936  17.476  0.00  0.00    +0.000 C 
ATOM     25  C   UNL     1       3.549   7.448  17.734  0.00  0.00    +0.000 C 
BRANCH  24  26
ATOM     26  C   UNL     1       2.196   5.308  18.018  0.00  0.00    +0.000 C 
BRANCH  26  27
ATOM     27  C   UNL     1       1.979   3.818  17.718  0.00  0.00    +0.000 C 
BRANCH  27  28
ATOM     28  C   UNL     1       1.204   3.016  18.773  0.00  0.00    +0.000 C 
BRANCH  28  29
ATOM     29  C   UNL     1       1.951   2.706  20.084  0.00  0.00    +0.000 C 
ATOM     30  C   UNL     1       3.453   2.494  19.880  0.00  0.00    +0.000 C 
ATOM     31  C   UNL     1       1.739   3.853  21.079  0.00  0.00    +0.000 C 
ENDBRANCH  28  29
ENDBRANCH  27  28
ENDBRANCH  26  27
ENDBRANCH  24  26
ENDBRANCH  23  24
ENDBRANCH  22  23
ENDBRANCH  21  22
ENDBRANCH  19  21
ENDBRANCH  18  19
ENDBRANCH  17  18
ENDBRANCH   1  17
TORSDOF 13
ENDMDL
MODEL 9
REMARK VINA RESULT:      -6.8      2.920     10.919
REMARK  Name = 
REMARK  20 active torsions:
REMARK  status: ('A' for Active; 'I' for Inactive)
REMARK    1  A    between atoms: C_1  and  C_2
REMARK    2  A    between atoms: C_3  and  O_4
REMARK    3  A    between atoms: C_8  and  C_9
REMARK    4  A    between atoms: C_11  and  C_12
REMARK    5  A    between atoms: C_11  and  C_13
REMARK    6  A    between atoms: C_13  and  C_14
REMARK    7  A    between atoms: C_14  and  C_15
REMARK    8  A    between atoms: C_15  and  C_16
REMARK    9  A    between atoms: C_16  and  C_17
REMARK   10  A    between atoms: C_16  and  C_18
REMARK   11  A    between atoms: C_18  and  C_19
REMARK   12  A    between atoms: C_19  and  C_20
REMARK   13  A    between atoms: C_20  and  C_21
REMARK   14  A    between atoms: C_21  and  C_22
REMARK   15  A    between atoms: C_21  and  C_23
REMARK   16  A    between atoms: C_23  and  C_24
REMARK   17  A    between atoms: C_24  and  C_25
REMARK   18  A    between atoms: C_25  and  C_26
REMARK   19  A    between atoms: C_26  and  C_27
REMARK   20  A    between atoms: C_26  and  C_28
REMARK                            x       y       z     vdW  Elec       q    Type
REMARK                         _______ _______ _______ _____ _____    ______ ____
ROOT
ATOM      1  C   UNL     1       8.434  10.123  17.583  0.00  0.00    +0.000 C 
ENDROOT
BRANCH   1  11
ATOM      2  C   UNL     1       8.999  17.160  19.319  0.00  0.00    +0.000 C 
ATOM      3  C   UNL     1       9.279  15.740  19.727  0.00  0.00    +0.000 A 
ATOM      4  C   UNL     1      10.149  15.410  20.785  0.00  0.00    +0.000 A 
ATOM      5  C   UNL     1      10.420  14.085  21.110  0.00  0.00    +0.000 A 
ATOM      6  C   UNL     1       9.838  13.039  20.393  0.00  0.00    +0.000 A 
ATOM      7  C   UNL     1       8.983  13.346  19.322  0.00  0.00    +0.000 A 
ATOM      8  C   UNL     1       8.696  14.682  18.984  0.00  0.00    +0.000 A 
ATOM      9  C   UNL     1       7.818  14.978  17.784  0.00  0.00    +0.000 C 
ATOM     10  O   UNL     1       8.444  12.364  18.524  0.00  0.00    +0.000 OA
ATOM     11  C   UNL     1       9.213  11.151  18.452  0.00  0.00    +0.000 C 
ATOM     12  C   UNL     1      10.539  11.448  17.701  0.00  0.00    +0.000 C 
ATOM     13  C   UNL     1       9.442  10.622  19.876  0.00  0.00    +0.000 C 
ATOM     14  C   UNL     1      10.231  11.624  20.707  0.00  0.00    +0.000 C 
BRANCH   4  15
ATOM     15  O   UNL     1      10.811  16.325  21.549  0.00  0.00    +0.000 OA
ATOM     16  H   UNL     1      11.763  16.160  21.520  0.00  0.00    +0.000 HD
ENDBRANCH   4  15
ENDBRANCH   1  11
BRANCH   1  17
ATOM     17  C   UNL     1       8.330   8.667  18.059  0.00  0.00    +0.000 C 
BRANCH  17  18
ATOM     18  C   UNL     1       7.018   7.923  17.793  0.00  0.00    +0.000 C 
BRANCH  18  19
ATOM     19  C   UNL     1       7.121   6.449  17.337  0.00  0.00    +0.000 C 
ATOM     20  C   UNL     1       6.060   6.212  16.250  0.00  0.00    +0.000 C 
BRANCH  19  21
ATOM     21  C   UNL     1       6.949   5.447  18.498  0.00  0.00    +0.000 C 
BRANCH  21  22
ATOM     22  C   UNL     1       5.492   5.130  18.879  0.00  0.00    +0.000 C 
BRANCH  22  23
ATOM     23  C   UNL     1       5.191   3.651  19.151  0.00  0.00    +0.000 C 
BRANCH  23  24
ATOM     24  C   UNL     1       3.820   3.134  18.650  0.00  0.00    +0.000 C 
ATOM     25  C   UNL     1       4.047   1.789  17.947  0.00  0.00    +0.000 C 
BRANCH  24  26
ATOM     26  C   UNL     1       3.129   4.155  17.721  0.00  0.00    +0.000 C 
BRANCH  26  27
ATOM     27  C   UNL     1       1.642   4.427  17.989  0.00  0.00    +0.000 C 
BRANCH  27  28
ATOM     28  C   UNL     1       0.941   3.476  18.969  0.00  0.00    +0.000 C 
BRANCH  28  29
ATOM     29  C   UNL     1       0.895   3.923  20.443  0.00  0.00    +0.000 C 
ATOM     30  C   UNL     1       1.550   2.918  21.393  0.00  0.00    +0.000 C 
ATOM     31  C   UNL     1       1.594   5.280  20.591  0.00  0.00    +0.000 C 
ENDBRANCH  28  29
ENDBRANCH  27  28
ENDBRANCH  26  27
ENDBRANCH  24  26
ENDBRANCH  23  24
ENDBRANCH  22  23
ENDBRANCH  21  22
ENDBRANCH  19  21
ENDBRANCH  18  19
ENDBRANCH  17  18
ENDBRANCH   1  17
TORSDOF 13
ENDMDL
