MODEL 1
REMARK VINA RESULT:      -4.7      0.000      0.000
REMARK  Name = 
REMARK  3 active torsions:
REMARK  status: ('A' for Active; 'I' for Inactive)
REMARK    1  A    between atoms: C_2  and  O_4
REMARK    2  A    between atoms: O_4  and  C_5
REMARK    3  A    between atoms: C_5  and  C_7
REMARK                            x       y       z     vdW  Elec       q    Type
REMARK                         _______ _______ _______ _____ _____    ______ ____
ROOT
ATOM      1  C   UNL     1       2.041   2.424  19.783  0.00  0.00    +0.000 C 
ATOM      2 CL   UNL     1       3.824   2.638  19.640  0.00  0.00    +0.000 Cl
ENDROOT
BRANCH   1   3
ATOM      3  C   UNL     1       1.464   3.310  20.917  0.00  0.00    +0.000 C 
ATOM      4  F   UNL     1       2.392   4.151  21.437  0.00  0.00    +0.000 F 
ATOM      5  F   UNL     1       0.453   4.086  20.447  0.00  0.00    +0.000 F 
ATOM      6  F   UNL     1       0.960   2.601  21.954  0.00  0.00    +0.000 F 
ENDBRANCH   1   3
BRANCH   1   7
ATOM      7  O   UNL     1       1.429   2.721  18.523  0.00  0.00    +0.000 OA
BRANCH   7   9
ATOM      8  F   UNL     1       2.575   3.144  16.637  0.00  0.00    +0.000 F 
ATOM      9  C   UNL     1       2.134   3.695  17.791  0.00  0.00    +0.000 C 
ATOM     10  F   UNL     1       1.256   4.669  17.455  0.00  0.00    +0.000 F 
ENDBRANCH   7   9
ENDBRANCH   1   7
TORSDOF 3
ENDMDL
MODEL 2
REMARK VINA RESULT:      -4.6      1.033      3.580
REMARK  Name = 
REMARK  3 active torsions:
REMARK  status: ('A' for Active; 'I' for Inactive)
REMARK    1  A    between atoms: C_2  and  O_4
REMARK    2  A    between atoms: O_4  and  C_5
REMARK    3  A    between atoms: C_5  and  C_7
REMARK                            x       y       z     vdW  Elec       q    Type
REMARK                         _______ _______ _______ _____ _____    ______ ____
ROOT
ATOM      1  C   UNL     1       2.734   2.956  18.927  0.00  0.00    +0.000 C 
ATOM      2 CL   UNL     1       3.540   1.457  18.337  0.00  0.00    +0.000 Cl
ENDROOT
BRANCH   1   3
ATOM      3  C   UNL     1       2.326   3.870  17.742  0.00  0.00    +0.000 C 
ATOM      4  F   UNL     1       2.964   5.065  17.770  0.00  0.00    +0.000 F 
ATOM      5  F   UNL     1       2.644   3.284  16.558  0.00  0.00    +0.000 F 
ATOM      6  F   UNL     1       1.000   4.139  17.698  0.00  0.00    +0.000 F 
ENDBRANCH   1   3
BRANCH   1   7
ATOM      7  O   UNL     1       1.602   2.598  19.727  0.00  0.00    +0.000 OA
BRANCH   7   9
ATOM      8  F   UNL     1       0.620   4.399  20.644  0.00  0.00    +0.000 F 
ATOM      9  C   UNL     1       1.484   3.387  20.887  0.00  0.00    +0.000 C 
ATOM     10  F   UNL     1       0.930   2.615  21.851  0.00  0.00    +0.000 F 
ENDBRANCH   7   9
ENDBRANCH   1   7
TORSDOF 3
ENDMDL
MODEL 3
REMARK VINA RESULT:      -4.6      1.374      3.503
REMARK  Name = 
REMARK  3 active torsions:
REMARK  status: ('A' for Active; 'I' for Inactive)
REMARK    1  A    between atoms: C_2  and  O_4
REMARK    2  A    between atoms: O_4  and  C_5
REMARK    3  A    between atoms: C_5  and  C_7
REMARK                            x       y       z     vdW  Elec       q    Type
REMARK                         _______ _______ _______ _____ _____    ______ ____
ROOT
ATOM      1  C   UNL     1       2.685   3.557  19.326  0.00  0.00    +0.000 C 
ATOM      2 CL   UNL     1       4.348   3.610  18.636  0.00  0.00    +0.000 Cl
ENDROOT
BRANCH   1   3
ATOM      3  C   UNL     1       1.651   3.127  18.252  0.00  0.00    +0.000 C 
ATOM      4  F   UNL     1       1.089   4.188  17.624  0.00  0.00    +0.000 F 
ATOM      5  F   UNL     1       2.248   2.375  17.291  0.00  0.00    +0.000 F 
ATOM      6  F   UNL     1       0.633   2.385  18.748  0.00  0.00    +0.000 F 
ENDBRANCH   1   3
BRANCH   1   7
ATOM      7  O   UNL     1       2.670   2.672  20.451  0.00  0.00    +0.000 OA
BRANCH   7   9
ATOM      8  F   UNL     1       1.714   4.519  21.300  0.00  0.00    +0.000 F 
ATOM      9  C   UNL     1       2.105   3.260  21.599  0.00  0.00    +0.000 C 
ATOM     10  F   UNL     1       0.988   2.561  21.907  0.00  0.00    +0.000 F 
ENDBRANCH   7   9
ENDBRANCH   1   7
TORSDOF 3
ENDMDL
MODEL 4
REMARK VINA RESULT:      -4.6      6.148      7.138
REMARK  Name = 
REMARK  3 active torsions:
REMARK  status: ('A' for Active; 'I' for Inactive)
REMARK    1  A    between atoms: C_2  and  O_4
REMARK    2  A    between atoms: O_4  and  C_5
REMARK    3  A    between atoms: C_5  and  C_7
REMARK                            x       y       z     vdW  Elec       q    Type
REMARK                         _______ _______ _______ _____ _____    ______ ____
ROOT
ATOM      1  C   UNL     1       6.450   4.185  16.161  0.00  0.00    +0.000 C 
ATOM      2 CL   UNL     1       5.027   4.463  17.230  0.00  0.00    +0.000 Cl
ENDROOT
BRANCH   1   3
ATOM      3  C   UNL     1       6.220   4.804  14.758  0.00  0.00    +0.000 C 
ATOM      4  F   UNL     1       5.550   3.968  13.930  0.00  0.00    +0.000 F 
ATOM      5  F   UNL     1       5.478   5.938  14.854  0.00  0.00    +0.000 F 
ATOM      6  F   UNL     1       7.366   5.143  14.122  0.00  0.00    +0.000 F 
ENDBRANCH   1   3
BRANCH   1   7
ATOM      7  O   UNL     1       7.620   4.724  16.787  0.00  0.00    +0.000 OA
BRANCH   7   9
ATOM      8  F   UNL     1       8.112   5.717  18.741  0.00  0.00    +0.000 F 
ATOM      9  C   UNL     1       7.333   5.806  17.640  0.00  0.00    +0.000 C 
ATOM     10  F   UNL     1       7.688   6.941  16.993  0.00  0.00    +0.000 F 
ENDBRANCH   7   9
ENDBRANCH   1   7
TORSDOF 3
ENDMDL
MODEL 5
REMARK VINA RESULT:      -4.6      6.175      7.129
REMARK  Name = 
REMARK  3 active torsions:
REMARK  status: ('A' for Active; 'I' for Inactive)
REMARK    1  A    between atoms: C_2  and  O_4
REMARK    2  A    between atoms: O_4  and  C_5
REMARK    3  A    between atoms: C_5  and  C_7
REMARK                            x       y       z     vdW  Elec       q    Type
REMARK                         _______ _______ _______ _____ _____    ______ ____
ROOT
ATOM      1  C   UNL     1       6.525   4.262  16.292  0.00  0.00    +0.000 C 
ATOM      2 CL   UNL     1       5.103   4.527  17.365  0.00  0.00    +0.000 Cl
ENDROOT
BRANCH   1   3
ATOM      3  C   UNL     1       6.264   4.831  14.873  0.00  0.00    +0.000 C 
ATOM      4  F   UNL     1       5.495   5.947  14.899  0.00  0.00    +0.000 F 
ATOM      5  F   UNL     1       7.434   5.176  14.276  0.00  0.00    +0.000 F 
ATOM      6  F   UNL     1       5.649   3.956  14.044  0.00  0.00    +0.000 F 
ENDBRANCH   1   3
BRANCH   1   7
ATOM      7  O   UNL     1       7.683   4.855  16.889  0.00  0.00    +0.000 OA
BRANCH   7   9
ATOM      8  F   UNL     1       8.155   5.961  18.787  0.00  0.00    +0.000 F 
ATOM      9  C   UNL     1       7.373   5.975  17.684  0.00  0.00    +0.000 C 
ATOM     10  F   UNL     1       7.703   7.081  16.977  0.00  0.00    +0.000 F 
ENDBRANCH   7   9
ENDBRANCH   1   7
TORSDOF 3
ENDMDL
MODEL 6
REMARK VINA RESULT:      -4.6      6.141      7.085
REMARK  Name = 
REMARK  3 active torsions:
REMARK  status: ('A' for Active; 'I' for Inactive)
REMARK    1  A    between atoms: C_2  and  O_4
REMARK    2  A    between atoms: O_4  and  C_5
REMARK    3  A    between atoms: C_5  and  C_7
REMARK                            x       y       z     vdW  Elec       q    Type
REMARK                         _______ _______ _______ _____ _____    ______ ____
ROOT
ATOM      1  C   UNL     1       6.491   4.225  16.199  0.00  0.00    +0.000 C 
ATOM      2 CL   UNL     1       5.100   4.413  17.328  0.00  0.00    +0.000 Cl
ENDROOT
BRANCH   1   3
ATOM      3  C   UNL     1       6.178   4.862  14.820  0.00  0.00    +0.000 C 
ATOM      4  F   UNL     1       7.302   5.176  14.131  0.00  0.00    +0.000 F 
ATOM      5  F   UNL     1       5.473   3.998  14.046  0.00  0.00    +0.000 F 
ATOM      6  F   UNL     1       5.445   5.997  14.903  0.00  0.00    +0.000 F 
ENDBRANCH   1   3
BRANCH   1   7
ATOM      7  O   UNL     1       7.660   4.804  16.791  0.00  0.00    +0.000 OA
BRANCH   7   9
ATOM      8  F   UNL     1       8.109   5.778  18.765  0.00  0.00    +0.000 F 
ATOM      9  C   UNL     1       7.360   5.883  17.645  0.00  0.00    +0.000 C 
ATOM     10  F   UNL     1       7.742   7.019  17.016  0.00  0.00    +0.000 F 
ENDBRANCH   7   9
ENDBRANCH   1   7
TORSDOF 3
ENDMDL
MODEL 7
REMARK VINA RESULT:      -4.6      1.099      3.582
REMARK  Name = 
REMARK  3 active torsions:
REMARK  status: ('A' for Active; 'I' for Inactive)
REMARK    1  A    between atoms: C_2  and  O_4
REMARK    2  A    between atoms: O_4  and  C_5
REMARK    3  A    between atoms: C_5  and  C_7
REMARK                            x       y       z     vdW  Elec       q    Type
REMARK                         _______ _______ _______ _____ _____    ______ ____
ROOT
ATOM      1  C   UNL     1       2.812   2.967  18.964  0.00  0.00    +0.000 C 
ATOM      2 CL   UNL     1       3.550   1.477  18.271  0.00  0.00    +0.000 Cl
ENDROOT
BRANCH   1   3
ATOM      3  C   UNL     1       2.496   4.000  17.851  0.00  0.00    +0.000 C 
ATOM      4  F   UNL     1       3.118   3.706  16.684  0.00  0.00    +0.000 F 
ATOM      5  F   UNL     1       1.163   4.023  17.588  0.00  0.00    +0.000 F 
ATOM      6  F   UNL     1       2.850   5.266  18.172  0.00  0.00    +0.000 F 
ENDBRANCH   1   3
BRANCH   1   7
ATOM      7  O   UNL     1       1.635   2.611  19.699  0.00  0.00    +0.000 OA
BRANCH   7   9
ATOM      8  F   UNL     1       0.511   4.360  20.551  0.00  0.00    +0.000 F 
ATOM      9  C   UNL     1       1.439   3.419  20.835  0.00  0.00    +0.000 C 
ATOM     10  F   UNL     1       0.922   2.633  21.809  0.00  0.00    +0.000 F 
ENDBRANCH   7   9
ENDBRANCH   1   7
TORSDOF 3
ENDMDL
MODEL 8
REMARK VINA RESULT:      -4.6      1.167      1.689
REMARK  Name = 
REMARK  3 active torsions:
REMARK  status: ('A' for Active; 'I' for Inactive)
REMARK    1  A    between atoms: C_2  and  O_4
REMARK    2  A    between atoms: O_4  and  C_5
REMARK    3  A    between atoms: C_5  and  C_7
REMARK                            x       y       z     vdW  Elec       q    Type
REMARK                         _______ _______ _______ _____ _____    ______ ____
ROOT
ATOM      1  C   UNL     1       2.618   3.315  19.942  0.00  0.00    +0.000 C 
ATOM      2 CL   UNL     1       3.384   4.939  20.085  0.00  0.00    +0.000 Cl
ENDROOT
BRANCH   1   3
ATOM      3  C   UNL     1       1.188   3.320  20.542  0.00  0.00    +0.000 C 
ATOM      4  F   UNL     1       0.284   2.726  19.726  0.00  0.00    +0.000 F 
ATOM      5  F   UNL     1       1.162   2.637  21.716  0.00  0.00    +0.000 F 
ATOM      6  F   UNL     1       0.716   4.561  20.805  0.00  0.00    +0.000 F 
ENDBRANCH   1   3
BRANCH   1   7
ATOM      7  O   UNL     1       2.607   2.918  18.566  0.00  0.00    +0.000 OA
BRANCH   7   9
ATOM      8  F   UNL     1       3.261   3.629  16.538  0.00  0.00    +0.000 F 
ATOM      9  C   UNL     1       2.656   4.014  17.683  0.00  0.00    +0.000 C 
ATOM     10  F   UNL     1       1.381   4.340  17.368  0.00  0.00    +0.000 F 
ENDBRANCH   7   9
ENDBRANCH   1   7
TORSDOF 3
ENDMDL
MODEL 9
REMARK VINA RESULT:      -4.5      2.129      3.014
REMARK  Name = 
REMARK  3 active torsions:
REMARK  status: ('A' for Active; 'I' for Inactive)
REMARK    1  A    between atoms: C_2  and  O_4
REMARK    2  A    between atoms: O_4  and  C_5
REMARK    3  A    between atoms: C_5  and  C_7
REMARK                            x       y       z     vdW  Elec       q    Type
REMARK                         _______ _______ _______ _____ _____    ______ ____
ROOT
ATOM      1  C   UNL     1       2.360   3.382  19.237  0.00  0.00    +0.000 C 
ATOM      2 CL   UNL     1       2.054   4.013  17.577  0.00  0.00    +0.000 Cl
ENDROOT
BRANCH   1   3
ATOM      3  C   UNL     1       1.030   3.169  20.004  0.00  0.00    +0.000 C 
ATOM      4  F   UNL     1       0.105   2.514  19.261  0.00  0.00    +0.000 F 
ATOM      5  F   UNL     1       1.238   2.420  21.118  0.00  0.00    +0.000 F 
ATOM      6  F   UNL     1       0.451   4.322  20.414  0.00  0.00    +0.000 F 
ENDBRANCH   1   3
BRANCH   1   7
ATOM      7  O   UNL     1       3.114   2.168  19.147  0.00  0.00    +0.000 OA
BRANCH   7   9
ATOM      8  F   UNL     1       4.866   3.497  19.608  0.00  0.00    +0.000 F 
ATOM      9  C   UNL     1       4.364   2.255  19.789  0.00  0.00    +0.000 C 
ATOM     10  F   UNL     1       4.152   2.103  21.117  0.00  0.00    +0.000 F 
ENDBRANCH   7   9
ENDBRANCH   1   7
TORSDOF 3
ENDMDL
