MODEL 1
REMARK VINA RESULT:      -7.6      0.000      0.000
REMARK  Name = 
REMARK  4 active torsions:
REMARK  status: ('A' for Active; 'I' for Inactive)
REMARK    1  A    between atoms: C_2  and  C_3
REMARK    2  A    between atoms: C_5  and  C_6
REMARK    3  A    between atoms: C_9  and  O_10
REMARK    4  A    between atoms: C_18  and  O_19
REMARK                            x       y       z     vdW  Elec       q    Type
REMARK                         _______ _______ _______ _____ _____    ______ ____
ROOT
ATOM      1  C   UNL     1       6.566   5.943  17.590  0.00  0.00    +0.000 A 
ATOM      2  C   UNL     1       5.741   5.527  18.636  0.00  0.00    +0.000 A 
ATOM      3  C   UNL     1       4.878   4.463  18.426  0.00  0.00    +0.000 A 
ATOM      4  N   UNL     1       4.843   3.807  17.241  0.00  0.00    +0.000 NA
ATOM      5  C   UNL     1       5.621   4.215  16.225  0.00  0.00    +0.000 A 
ATOM      6  C   UNL     1       5.518   3.560  15.004  0.00  0.00    +0.000 A 
ATOM      7  C   UNL     1       6.267   3.945  13.888  0.00  0.00    +0.000 A 
ATOM      8  C   UNL     1       7.153   5.000  14.007  0.00  0.00    +0.000 A 
ATOM      9  C   UNL     1       7.295   5.669  15.216  0.00  0.00    +0.000 A 
ATOM     10  C   UNL     1       6.518   5.294  16.341  0.00  0.00    +0.000 A 
ENDROOT
BRANCH   3  11
ATOM     11  C   UNL     1       3.899   4.016  19.434  0.00  0.00    +0.000 A 
ATOM     12  C   UNL     1       4.091   2.816  20.151  0.00  0.00    +0.000 A 
ATOM     13  C   UNL     1       3.134   2.341  21.058  0.00  0.00    +0.000 A 
ATOM     14  C   UNL     1       1.963   3.062  21.256  0.00  0.00    +0.000 A 
ATOM     15  C   UNL     1       1.764   4.259  20.578  0.00  0.00    +0.000 A 
ATOM     16  F   UNL     1       0.639   4.966  20.758  0.00  0.00    +0.000 F 
ATOM     17  C   UNL     1       2.716   4.734  19.678  0.00  0.00    +0.000 A 
BRANCH  14  18
ATOM     18  O   UNL     1       0.992   2.608  22.102  0.00  0.00    +0.000 OA
ATOM     19  H   UNL     1       0.515   3.368  22.474  0.00  0.00    +0.000 HD
ENDBRANCH  14  18
ENDBRANCH   3  11
BRANCH   1  21
ATOM     20  N   UNL     1       8.125   7.969  18.028  0.00  0.00    +0.000 NA
ATOM     21  C   UNL     1       7.428   7.064  17.823  0.00  0.00    +0.000 C 
ENDBRANCH   1  21
BRANCH   8  22
ATOM     22  O   UNL     1       7.909   5.425  12.957  0.00  0.00    +0.000 OA
ATOM     23  H   UNL     1       7.661   4.924  12.161  0.00  0.00    +0.000 HD
ENDBRANCH   8  22
TORSDOF 4
ENDMDL
MODEL 2
REMARK VINA RESULT:      -7.5      4.084      5.715
REMARK  Name = 
REMARK  4 active torsions:
REMARK  status: ('A' for Active; 'I' for Inactive)
REMARK    1  A    between atoms: C_2  and  C_3
REMARK    2  A    between atoms: C_5  and  C_6
REMARK    3  A    between atoms: C_9  and  O_10
REMARK    4  A    between atoms: C_18  and  O_19
REMARK                            x       y       z     vdW  Elec       q    Type
REMARK                         _______ _______ _______ _____ _____    ______ ____
ROOT
ATOM      1  C   UNL     1       4.043   5.541  17.464  0.00  0.00    +0.000 A 
ATOM      2  C   UNL     1       3.533   6.799  17.786  0.00  0.00    +0.000 A 
ATOM      3  C   UNL     1       2.582   6.900  18.790  0.00  0.00    +0.000 A 
ATOM      4  N   UNL     1       2.164   5.810  19.478  0.00  0.00    +0.000 NA
ATOM      5  C   UNL     1       2.638   4.594  19.158  0.00  0.00    +0.000 A 
ATOM      6  C   UNL     1       2.144   3.488  19.841  0.00  0.00    +0.000 A 
ATOM      7  C   UNL     1       2.559   2.186  19.546  0.00  0.00    +0.000 A 
ATOM      8  C   UNL     1       3.506   1.993  18.555  0.00  0.00    +0.000 A 
ATOM      9  C   UNL     1       4.032   3.074  17.862  0.00  0.00    +0.000 A 
ATOM     10  C   UNL     1       3.594   4.393  18.145  0.00  0.00    +0.000 A 
ENDROOT
BRANCH   3  11
ATOM     11  C   UNL     1       1.912   8.168  19.133  0.00  0.00    +0.000 A 
ATOM     12  C   UNL     1       1.792   9.206  18.186  0.00  0.00    +0.000 A 
ATOM     13  C   UNL     1       1.224  10.443  18.519  0.00  0.00    +0.000 A 
ATOM     14  C   UNL     1       0.772  10.661  19.815  0.00  0.00    +0.000 A 
ATOM     15  C   UNL     1       0.858   9.643  20.758  0.00  0.00    +0.000 A 
ATOM     16  F   UNL     1       0.426   9.837  22.012  0.00  0.00    +0.000 F 
ATOM     17  C   UNL     1       1.420   8.412  20.427  0.00  0.00    +0.000 A 
BRANCH  14  18
ATOM     18  O   UNL     1       0.250  11.866  20.185  0.00  0.00    +0.000 OA
ATOM     19  H   UNL     1      -0.523  12.062  19.631  0.00  0.00    +0.000 HD
ENDBRANCH  14  18
ENDBRANCH   3  11
BRANCH   1  21
ATOM     20  N   UNL     1       5.767   5.387  15.532  0.00  0.00    +0.000 NA
ATOM     21  C   UNL     1       5.002   5.459  16.403  0.00  0.00    +0.000 C 
ENDBRANCH   1  21
BRANCH   8  22
ATOM     22  O   UNL     1       3.948   0.749  18.220  0.00  0.00    +0.000 OA
ATOM     23  H   UNL     1       4.508   0.812  17.428  0.00  0.00    +0.000 HD
ENDBRANCH   8  22
TORSDOF 4
ENDMDL
MODEL 3
REMARK VINA RESULT:      -7.4      4.236      5.739
REMARK  Name = 
REMARK  4 active torsions:
REMARK  status: ('A' for Active; 'I' for Inactive)
REMARK    1  A    between atoms: C_2  and  C_3
REMARK    2  A    between atoms: C_5  and  C_6
REMARK    3  A    between atoms: C_9  and  O_10
REMARK    4  A    between atoms: C_18  and  O_19
REMARK                            x       y       z     vdW  Elec       q    Type
REMARK                         _______ _______ _______ _____ _____    ______ ____
ROOT
ATOM      1  C   UNL     1       3.662   6.242  17.942  0.00  0.00    +0.000 A 
ATOM      2  C   UNL     1       3.103   7.375  18.534  0.00  0.00    +0.000 A 
ATOM      3  C   UNL     1       2.275   7.217  19.635  0.00  0.00    +0.000 A 
ATOM      4  N   UNL     1       2.025   5.993  20.159  0.00  0.00    +0.000 NA
ATOM      5  C   UNL     1       2.546   4.897  19.581  0.00  0.00    +0.000 A 
ATOM      6  C   UNL     1       2.221   3.652  20.106  0.00  0.00    +0.000 A 
ATOM      7  C   UNL     1       2.692   2.462  19.542  0.00  0.00    +0.000 A 
ATOM      8  C   UNL     1       3.524   2.527  18.438  0.00  0.00    +0.000 A 
ATOM      9  C   UNL     1       3.882   3.754  17.896  0.00  0.00    +0.000 A 
ATOM     10  C   UNL     1       3.384   4.960  18.452  0.00  0.00    +0.000 A 
ENDROOT
BRANCH   3  11
ATOM     11  C   UNL     1       1.560   8.342  20.267  0.00  0.00    +0.000 A 
ATOM     12  C   UNL     1       1.157   9.462  19.511  0.00  0.00    +0.000 A 
ATOM     13  C   UNL     1       0.542  10.570  20.111  0.00  0.00    +0.000 A 
ATOM     14  C   UNL     1       0.327  10.572  21.483  0.00  0.00    +0.000 A 
ATOM     15  C   UNL     1       0.694   9.468  22.243  0.00  0.00    +0.000 A 
ATOM     16  F   UNL     1       0.494   9.455  23.569  0.00  0.00    +0.000 F 
ATOM     17  C   UNL     1       1.303   8.365  21.648  0.00  0.00    +0.000 A 
BRANCH  14  18
ATOM     18  O   UNL     1      -0.232  11.650  22.106  0.00  0.00    +0.000 OA
ATOM     19  H   UNL     1      -1.018  11.932  21.609  0.00  0.00    +0.000 HD
ENDBRANCH  14  18
ENDBRANCH   3  11
BRANCH   1  21
ATOM     20  N   UNL     1       5.152   6.597  15.849  0.00  0.00    +0.000 NA
ATOM     21  C   UNL     1       4.489   6.430  16.787  0.00  0.00    +0.000 C 
ENDBRANCH   1  21
BRANCH   8  22
ATOM     22  O   UNL     1       4.013   1.404  17.843  0.00  0.00    +0.000 OA
ATOM     23  H   UNL     1       4.948   1.544  17.616  0.00  0.00    +0.000 HD
ENDBRANCH   8  22
TORSDOF 4
ENDMDL
MODEL 4
REMARK VINA RESULT:      -7.4      3.918      5.304
REMARK  Name = 
REMARK  4 active torsions:
REMARK  status: ('A' for Active; 'I' for Inactive)
REMARK    1  A    between atoms: C_2  and  C_3
REMARK    2  A    between atoms: C_5  and  C_6
REMARK    3  A    between atoms: C_9  and  O_10
REMARK    4  A    between atoms: C_18  and  O_19
REMARK                            x       y       z     vdW  Elec       q    Type
REMARK                         _______ _______ _______ _____ _____    ______ ____
ROOT
ATOM      1  C   UNL     1       2.774   4.578  18.865  0.00  0.00    +0.000 A 
ATOM      2  C   UNL     1       2.095   5.617  19.500  0.00  0.00    +0.000 A 
ATOM      3  C   UNL     1       2.346   6.922  19.107  0.00  0.00    +0.000 A 
ATOM      4  N   UNL     1       3.213   7.201  18.102  0.00  0.00    +0.000 NA
ATOM      5  C   UNL     1       3.884   6.205  17.500  0.00  0.00    +0.000 A 
ATOM      6  C   UNL     1       4.810   6.529  16.516  0.00  0.00    +0.000 A 
ATOM      7  C   UNL     1       5.574   5.555  15.866  0.00  0.00    +0.000 A 
ATOM      8  C   UNL     1       5.389   4.225  16.199  0.00  0.00    +0.000 A 
ATOM      9  C   UNL     1       4.462   3.863  17.166  0.00  0.00    +0.000 A 
ATOM     10  C   UNL     1       3.704   4.852  17.843  0.00  0.00    +0.000 A 
ENDROOT
BRANCH   3  11
ATOM     11  C   UNL     1       1.754   8.091  19.784  0.00  0.00    +0.000 A 
ATOM     12  C   UNL     1       1.429   9.259  19.064  0.00  0.00    +0.000 A 
ATOM     13  C   UNL     1       0.935  10.403  19.705  0.00  0.00    +0.000 A 
ATOM     14  C   UNL     1       0.764  10.394  21.084  0.00  0.00    +0.000 A 
ATOM     15  C   UNL     1       1.056   9.245  21.809  0.00  0.00    +0.000 A 
ATOM     16  F   UNL     1       0.897   9.220  23.141  0.00  0.00    +0.000 F 
ATOM     17  C   UNL     1       1.544   8.106  21.173  0.00  0.00    +0.000 A 
BRANCH  14  18
ATOM     18  O   UNL     1       0.323  11.504  21.746  0.00  0.00    +0.000 OA
ATOM     19  H   UNL     1       0.280  12.248  21.124  0.00  0.00    +0.000 HD
ENDBRANCH  14  18
ENDBRANCH   3  11
BRANCH   1  21
ATOM     20  N   UNL     1       2.301   2.154  19.659  0.00  0.00    +0.000 NA
ATOM     21  C   UNL     1       2.520   3.240  19.311  0.00  0.00    +0.000 C 
ENDBRANCH   1  21
BRANCH   8  22
ATOM     22  O   UNL     1       6.104   3.231  15.603  0.00  0.00    +0.000 OA
ATOM     23  H   UNL     1       6.529   2.687  16.289  0.00  0.00    +0.000 HD
ENDBRANCH   8  22
TORSDOF 4
ENDMDL
MODEL 5
REMARK VINA RESULT:      -7.4      1.153      1.368
REMARK  Name = 
REMARK  4 active torsions:
REMARK  status: ('A' for Active; 'I' for Inactive)
REMARK    1  A    between atoms: C_2  and  C_3
REMARK    2  A    between atoms: C_5  and  C_6
REMARK    3  A    between atoms: C_9  and  O_10
REMARK    4  A    between atoms: C_18  and  O_19
REMARK                            x       y       z     vdW  Elec       q    Type
REMARK                         _______ _______ _______ _____ _____    ______ ____
ROOT
ATOM      1  C   UNL     1       6.355   6.106  17.106  0.00  0.00    +0.000 A 
ATOM      2  C   UNL     1       5.458   5.708  18.099  0.00  0.00    +0.000 A 
ATOM      3  C   UNL     1       4.641   4.613  17.864  0.00  0.00    +0.000 A 
ATOM      4  N   UNL     1       4.719   3.910  16.707  0.00  0.00    +0.000 NA
ATOM      5  C   UNL     1       5.567   4.302  15.741  0.00  0.00    +0.000 A 
ATOM      6  C   UNL     1       5.579   3.597  14.543  0.00  0.00    +0.000 A 
ATOM      7  C   UNL     1       6.406   3.960  13.476  0.00  0.00    +0.000 A 
ATOM      8  C   UNL     1       7.254   5.044  13.623  0.00  0.00    +0.000 A 
ATOM      9  C   UNL     1       7.280   5.762  14.811  0.00  0.00    +0.000 A 
ATOM     10  C   UNL     1       6.424   5.409  15.885  0.00  0.00    +0.000 A 
ENDROOT
BRANCH   3  11
ATOM     11  C   UNL     1       3.595   4.177  18.807  0.00  0.00    +0.000 A 
ATOM     12  C   UNL     1       3.273   4.950  19.942  0.00  0.00    +0.000 A 
ATOM     13  C   UNL     1       2.334   4.513  20.886  0.00  0.00    +0.000 A 
ATOM     14  C   UNL     1       1.705   3.287  20.708  0.00  0.00    +0.000 A 
ATOM     15  C   UNL     1       1.990   2.521  19.584  0.00  0.00    +0.000 A 
ATOM     16  F   UNL     1       1.391   1.335  19.398  0.00  0.00    +0.000 F 
ATOM     17  C   UNL     1       2.921   2.955  18.643  0.00  0.00    +0.000 A 
BRANCH  14  18
ATOM     18  O   UNL     1       0.815   2.812  21.628  0.00  0.00    +0.000 OA
ATOM     19  H   UNL     1       0.162   3.503  21.824  0.00  0.00    +0.000 HD
ENDBRANCH  14  18
ENDBRANCH   3  11
BRANCH   1  21
ATOM     20  N   UNL     1       7.819   8.199  17.553  0.00  0.00    +0.000 NA
ATOM     21  C   UNL     1       7.166   7.258  17.362  0.00  0.00    +0.000 C 
ENDBRANCH   1  21
BRANCH   8  22
ATOM     22  O   UNL     1       8.081   5.448  12.620  0.00  0.00    +0.000 OA
ATOM     23  H   UNL     1       8.581   6.229  12.913  0.00  0.00    +0.000 HD
ENDBRANCH   8  22
TORSDOF 4
ENDMDL
MODEL 6
REMARK VINA RESULT:      -7.4      1.126      1.485
REMARK  Name = 
REMARK  4 active torsions:
REMARK  status: ('A' for Active; 'I' for Inactive)
REMARK    1  A    between atoms: C_2  and  C_3
REMARK    2  A    between atoms: C_5  and  C_6
REMARK    3  A    between atoms: C_9  and  O_10
REMARK    4  A    between atoms: C_18  and  O_19
REMARK                            x       y       z     vdW  Elec       q    Type
REMARK                         _______ _______ _______ _____ _____    ______ ____
ROOT
ATOM      1  C   UNL     1       6.387   5.947  17.111  0.00  0.00    +0.000 A 
ATOM      2  C   UNL     1       5.484   5.493  18.072  0.00  0.00    +0.000 A 
ATOM      3  C   UNL     1       4.669   4.413  17.769  0.00  0.00    +0.000 A 
ATOM      4  N   UNL     1       4.755   3.778  16.575  0.00  0.00    +0.000 NA
ATOM      5  C   UNL     1       5.610   4.224  15.639  0.00  0.00    +0.000 A 
ATOM      6  C   UNL     1       5.631   3.588  14.403  0.00  0.00    +0.000 A 
ATOM      7  C   UNL     1       6.466   4.012  13.364  0.00  0.00    +0.000 A 
ATOM      8  C   UNL     1       7.311   5.085  13.579  0.00  0.00    +0.000 A 
ATOM      9  C   UNL     1       7.329   5.735  14.806  0.00  0.00    +0.000 A 
ATOM     10  C   UNL     1       6.465   5.321  15.852  0.00  0.00    +0.000 A 
ENDROOT
BRANCH   3  11
ATOM     11  C   UNL     1       3.616   3.924  18.679  0.00  0.00    +0.000 A 
ATOM     12  C   UNL     1       2.258   4.219  18.442  0.00  0.00    +0.000 A 
ATOM     13  C   UNL     1       1.253   3.824  19.337  0.00  0.00    +0.000 A 
ATOM     14  C   UNL     1       1.599   3.129  20.490  0.00  0.00    +0.000 A 
ATOM     15  C   UNL     1       2.930   2.807  20.729  0.00  0.00    +0.000 A 
ATOM     16  F   UNL     1       3.280   2.137  21.837  0.00  0.00    +0.000 F 
ATOM     17  C   UNL     1       3.929   3.196  19.840  0.00  0.00    +0.000 A 
BRANCH  14  18
ATOM     18  O   UNL     1       0.653   2.764  21.402  0.00  0.00    +0.000 OA
ATOM     19  H   UNL     1      -0.219   3.058  21.091  0.00  0.00    +0.000 HD
ENDBRANCH  14  18
ENDBRANCH   3  11
BRANCH   1  21
ATOM     20  N   UNL     1       7.844   8.014  17.688  0.00  0.00    +0.000 NA
ATOM     21  C   UNL     1       7.196   7.084  17.437  0.00  0.00    +0.000 C 
ENDBRANCH   1  21
BRANCH   8  22
ATOM     22  O   UNL     1       8.146   5.547  12.607  0.00  0.00    +0.000 OA
ATOM     23  H   UNL     1       7.699   6.253  12.110  0.00  0.00    +0.000 HD
ENDBRANCH   8  22
TORSDOF 4
ENDMDL
MODEL 7
REMARK VINA RESULT:      -7.4      4.122      5.707
REMARK  Name = 
REMARK  4 active torsions:
REMARK  status: ('A' for Active; 'I' for Inactive)
REMARK    1  A    between atoms: C_2  and  C_3
REMARK    2  A    between atoms: C_5  and  C_6
REMARK    3  A    between atoms: C_9  and  O_10
REMARK    4  A    between atoms: C_18  and  O_19
REMARK                            x       y       z     vdW  Elec       q    Type
REMARK                         _______ _______ _______ _____ _____    ______ ____
ROOT
ATOM      1  C   UNL     1       3.872   5.620  17.699  0.00  0.00    +0.000 A 
ATOM      2  C   UNL     1       3.354   6.842  18.129  0.00  0.00    +0.000 A 
ATOM      3  C   UNL     1       2.474   6.857  19.201  0.00  0.00    +0.000 A 
ATOM      4  N   UNL     1       2.135   5.717  19.851  0.00  0.00    +0.000 NA
ATOM      5  C   UNL     1       2.617   4.536  19.428  0.00  0.00    +0.000 A 
ATOM      6  C   UNL     1       2.202   3.379  20.078  0.00  0.00    +0.000 A 
ATOM      7  C   UNL     1       2.629   2.109  19.678  0.00  0.00    +0.000 A 
ATOM      8  C   UNL     1       3.507   2.001  18.615  0.00  0.00    +0.000 A 
ATOM      9  C   UNL     1       3.955   3.136  17.951  0.00  0.00    +0.000 A 
ATOM     10  C   UNL     1       3.503   4.423  18.341  0.00  0.00    +0.000 A 
ENDROOT
BRANCH   3  11
ATOM     11  C   UNL     1       1.797   8.083  19.664  0.00  0.00    +0.000 A 
ATOM     12  C   UNL     1       1.345   8.204  20.994  0.00  0.00    +0.000 A 
ATOM     13  C   UNL     1       0.635   9.332  21.429  0.00  0.00    +0.000 A 
ATOM     14  C   UNL     1       0.363  10.356  20.531  0.00  0.00    +0.000 A 
ATOM     15  C   UNL     1       0.821  10.268  19.222  0.00  0.00    +0.000 A 
ATOM     16  F   UNL     1       0.566  11.248  18.343  0.00  0.00    +0.000 F 
ATOM     17  C   UNL     1       1.529   9.149  18.789  0.00  0.00    +0.000 A 
BRANCH  14  18
ATOM     18  O   UNL     1      -0.359  11.450  20.910  0.00  0.00    +0.000 OA
ATOM     19  H   UNL     1      -0.603  11.362  21.846  0.00  0.00    +0.000 HD
ENDBRANCH  14  18
ENDBRANCH   3  11
BRANCH   1  21
ATOM     20  N   UNL     1       5.464   5.650  15.652  0.00  0.00    +0.000 NA
ATOM     21  C   UNL     1       4.755   5.628  16.571  0.00  0.00    +0.000 C 
ENDBRANCH   1  21
BRANCH   8  22
ATOM     22  O   UNL     1       3.957   0.793  18.177  0.00  0.00    +0.000 OA
ATOM     23  H   UNL     1       4.441   0.351  18.895  0.00  0.00    +0.000 HD
ENDBRANCH   8  22
TORSDOF 4
ENDMDL
MODEL 8
REMARK VINA RESULT:      -7.4      4.379      5.890
REMARK  Name = 
REMARK  4 active torsions:
REMARK  status: ('A' for Active; 'I' for Inactive)
REMARK    1  A    between atoms: C_2  and  C_3
REMARK    2  A    between atoms: C_5  and  C_6
REMARK    3  A    between atoms: C_9  and  O_10
REMARK    4  A    between atoms: C_18  and  O_19
REMARK                            x       y       z     vdW  Elec       q    Type
REMARK                         _______ _______ _______ _____ _____    ______ ____
ROOT
ATOM      1  C   UNL     1       2.466   4.890  20.071  0.00  0.00    +0.000 A 
ATOM      2  C   UNL     1       1.766   5.959  20.630  0.00  0.00    +0.000 A 
ATOM      3  C   UNL     1       1.854   7.205  20.030  0.00  0.00    +0.000 A 
ATOM      4  N   UNL     1       2.580   7.394  18.901  0.00  0.00    +0.000 NA
ATOM      5  C   UNL     1       3.272   6.372  18.370  0.00  0.00    +0.000 A 
ATOM      6  C   UNL     1       4.055   6.613  17.247  0.00  0.00    +0.000 A 
ATOM      7  C   UNL     1       4.832   5.612  16.655  0.00  0.00    +0.000 A 
ATOM      8  C   UNL     1       4.805   4.337  17.191  0.00  0.00    +0.000 A 
ATOM      9  C   UNL     1       4.022   4.056  18.303  0.00  0.00    +0.000 A 
ATOM     10  C   UNL     1       3.253   5.076  18.919  0.00  0.00    +0.000 A 
ENDROOT
BRANCH   3  11
ATOM     11  C   UNL     1       1.233   8.415  20.601  0.00  0.00    +0.000 A 
ATOM     12  C   UNL     1       1.056   9.577  19.822  0.00  0.00    +0.000 A 
ATOM     13  C   UNL     1       0.536  10.757  20.371  0.00  0.00    +0.000 A 
ATOM     14  C   UNL     1       0.189  10.791  21.716  0.00  0.00    +0.000 A 
ATOM     15  C   UNL     1       0.333   9.649  22.496  0.00  0.00    +0.000 A 
ATOM     16  F   UNL     1       0.004   9.665  23.795  0.00  0.00    +0.000 F 
ATOM     17  C   UNL     1       0.848   8.475  21.951  0.00  0.00    +0.000 A 
BRANCH  14  18
ATOM     18  O   UNL     1      -0.283  11.934  22.293  0.00  0.00    +0.000 OA
ATOM     19  H   UNL     1      -0.800  12.430  21.637  0.00  0.00    +0.000 HD
ENDBRANCH  14  18
ENDBRANCH   3  11
BRANCH   1  21
ATOM     20  N   UNL     1       2.306   2.596  21.272  0.00  0.00    +0.000 NA
ATOM     21  C   UNL     1       2.383   3.619  20.727  0.00  0.00    +0.000 C 
ENDBRANCH   1  21
BRANCH   8  22
ATOM     22  O   UNL     1       5.540   3.321  16.661  0.00  0.00    +0.000 OA
ATOM     23  H   UNL     1       5.343   2.499  17.140  0.00  0.00    +0.000 HD
ENDBRANCH   8  22
TORSDOF 4
ENDMDL
MODEL 9
REMARK VINA RESULT:      -7.4      3.917      5.176
REMARK  Name = 
REMARK  4 active torsions:
REMARK  status: ('A' for Active; 'I' for Inactive)
REMARK    1  A    between atoms: C_2  and  C_3
REMARK    2  A    between atoms: C_5  and  C_6
REMARK    3  A    between atoms: C_9  and  O_10
REMARK    4  A    between atoms: C_18  and  O_19
REMARK                            x       y       z     vdW  Elec       q    Type
REMARK                         _______ _______ _______ _____ _____    ______ ____
ROOT
ATOM      1  C   UNL     1       2.897   4.497  18.498  0.00  0.00    +0.000 A 
ATOM      2  C   UNL     1       2.206   5.529  19.135  0.00  0.00    +0.000 A 
ATOM      3  C   UNL     1       2.489   6.840  18.786  0.00  0.00    +0.000 A 
ATOM      4  N   UNL     1       3.398   7.133  17.824  0.00  0.00    +0.000 NA
ATOM      5  C   UNL     1       4.079   6.143  17.222  0.00  0.00    +0.000 A 
ATOM      6  C   UNL     1       5.047   6.480  16.283  0.00  0.00    +0.000 A 
ATOM      7  C   UNL     1       5.824   5.513  15.637  0.00  0.00    +0.000 A 
ATOM      8  C   UNL     1       5.609   4.177  15.927  0.00  0.00    +0.000 A 
ATOM      9  C   UNL     1       4.640   3.803  16.848  0.00  0.00    +0.000 A 
ATOM     10  C   UNL     1       3.869   4.785  17.521  0.00  0.00    +0.000 A 
ENDROOT
BRANCH   3  11
ATOM     11  C   UNL     1       1.887   7.999  19.470  0.00  0.00    +0.000 A 
ATOM     12  C   UNL     1       1.561   7.943  20.841  0.00  0.00    +0.000 A 
ATOM     13  C   UNL     1       0.921   9.010  21.488  0.00  0.00    +0.000 A 
ATOM     14  C   UNL     1       0.592  10.150  20.765  0.00  0.00    +0.000 A 
ATOM     15  C   UNL     1       0.926  10.234  19.418  0.00  0.00    +0.000 A 
ATOM     16  F   UNL     1       0.615  11.327  18.706  0.00  0.00    +0.000 F 
ATOM     17  C   UNL     1       1.565   9.177  18.775  0.00  0.00    +0.000 A 
BRANCH  14  18
ATOM     18  O   UNL     1      -0.067  11.190  21.352  0.00  0.00    +0.000 OA
ATOM     19  H   UNL     1       0.561  11.913  21.515  0.00  0.00    +0.000 HD
ENDBRANCH  14  18
ENDBRANCH   3  11
BRANCH   1  21
ATOM     20  N   UNL     1       2.388   2.057  19.217  0.00  0.00    +0.000 NA
ATOM     21  C   UNL     1       2.607   3.152  18.898  0.00  0.00    +0.000 C 
ENDBRANCH   1  21
BRANCH   8  22
ATOM     22  O   UNL     1       6.334   3.189  15.334  0.00  0.00    +0.000 OA
ATOM     23  H   UNL     1       7.037   3.588  14.794  0.00  0.00    +0.000 HD
ENDBRANCH   8  22
TORSDOF 4
ENDMDL
