MODEL 1
REMARK VINA RESULT:      -7.0      0.000      0.000
REMARK  Name = 
REMARK  6 active torsions:
REMARK  status: ('A' for Active; 'I' for Inactive)
REMARK    1  A    between atoms: C_1  and  C_2
REMARK    2  A    between atoms: C_4  and  C_5
REMARK    3  A    between atoms: C_5  and  N_6
REMARK    4  A    between atoms: N_12  and  C_13
REMARK    5  A    between atoms: C_13  and  C_14
REMARK    6  A    between atoms: C_17  and  C_18
REMARK                            x       y       z     vdW  Elec       q    Type
REMARK                         _______ _______ _______ _____ _____    ______ ____
ROOT
ATOM      1  N   UNL     1       2.592   6.585  19.457  0.00  0.00    +0.000 NA
ATOM      2  C   UNL     1       1.568   6.864  20.488  0.00  0.00    +0.000 C 
ATOM      3  C   UNL     1       1.550   8.371  20.762  0.00  0.00    +0.000 C 
ATOM      4  N   UNL     1       1.251   9.124  19.540  0.00  0.00    +0.000 N 
ATOM      5  C   UNL     1       0.309  10.119  19.621  0.00  0.00    +0.000 C 
ATOM      6  O   UNL     1      -0.270  10.387  20.677  0.00  0.00    +0.000 OA
ATOM      7  N   UNL     1      -0.016  10.768  18.468  0.00  0.00    +0.000 N 
ATOM      8  C   UNL     1       2.073   8.752  18.379  0.00  0.00    +0.000 C 
ATOM      9  C   UNL     1       2.159   7.216  18.196  0.00  0.00    +0.000 C 
ATOM     10  H   UNL     1       0.686  10.874  17.754  0.00  0.00    +0.000 HD
ENDROOT
BRANCH   1  11
ATOM     11  C   UNL     1       2.896   5.158  19.340  0.00  0.00    +0.000 C 
BRANCH  11  15
ATOM     12  C   UNL     1       7.413   4.540  17.023  0.00  0.00    +0.000 C 
ATOM     13  C   UNL     1       6.288   4.765  17.959  0.00  0.00    +0.000 A 
ATOM     14  C   UNL     1       4.905   4.642  17.709  0.00  0.00    +0.000 A 
ATOM     15  C   UNL     1       4.311   4.974  18.905  0.00  0.00    +0.000 A 
ATOM     16  O   UNL     1       5.278   5.275  19.813  0.00  0.00    +0.000 OA
ATOM     17  N   UNL     1       6.523   5.142  19.222  0.00  0.00    +0.000 NA
ENDBRANCH  11  15
ENDBRANCH   1  11
BRANCH   7  18
ATOM     18  C   UNL     1      -1.001  11.825  18.533  0.00  0.00    +0.000 C 
BRANCH  18  19
ATOM     19  C   UNL     1      -2.187  11.467  17.701  0.00  0.00    +0.000 A 
ATOM     20  C   UNL     1      -3.504  11.671  18.070  0.00  0.00    +0.000 A 
ATOM     21  S   UNL     1      -4.556  11.181  16.818  0.00  0.00    +0.000 S 
ATOM     22  C   UNL     1      -3.196  10.720  15.873  0.00  0.00    +0.000 A 
ATOM     23  C   UNL     1      -3.398  10.150  14.512  0.00  0.00    +0.000 C 
ATOM     24  N   UNL     1      -2.019  10.911  16.436  0.00  0.00    +0.000 NA
ENDBRANCH  18  19
ENDBRANCH   7  18
TORSDOF 4
ENDMDL
MODEL 2
REMARK VINA RESULT:      -6.7      1.214      1.254
REMARK  Name = 
REMARK  6 active torsions:
REMARK  status: ('A' for Active; 'I' for Inactive)
REMARK    1  A    between atoms: C_1  and  C_2
REMARK    2  A    between atoms: C_4  and  C_5
REMARK    3  A    between atoms: C_5  and  N_6
REMARK    4  A    between atoms: N_12  and  C_13
REMARK    5  A    between atoms: C_13  and  C_14
REMARK    6  A    between atoms: C_17  and  C_18
REMARK                            x       y       z     vdW  Elec       q    Type
REMARK                         _______ _______ _______ _____ _____    ______ ____
ROOT
ATOM      1  N   UNL     1       2.927   6.698  18.789  0.00  0.00    +0.000 NA
ATOM      2  C   UNL     1       1.999   6.712  19.942  0.00  0.00    +0.000 C 
ATOM      3  C   UNL     1       1.850   8.156  20.431  0.00  0.00    +0.000 C 
ATOM      4  N   UNL     1       1.336   9.021  19.363  0.00  0.00    +0.000 N 
ATOM      5  C   UNL     1       0.309   9.874  19.676  0.00  0.00    +0.000 C 
ATOM      6  O   UNL     1      -0.175   9.928  20.810  0.00  0.00    +0.000 OA
ATOM      7  N   UNL     1      -0.212  10.625  18.665  0.00  0.00    +0.000 N 
ATOM      8  C   UNL     1       2.059   8.909  18.088  0.00  0.00    +0.000 C 
ATOM      9  C   UNL     1       2.290   7.432  17.679  0.00  0.00    +0.000 C 
ATOM     10  H   UNL     1       0.391  10.909  17.909  0.00  0.00    +0.000 HD
ENDROOT
BRANCH   1  11
ATOM     11  C   UNL     1       3.367   5.347  18.440  0.00  0.00    +0.000 C 
BRANCH  11  15
ATOM     12  C   UNL     1       6.806   4.908  14.680  0.00  0.00    +0.000 C 
ATOM     13  C   UNL     1       5.970   5.311  15.833  0.00  0.00    +0.000 A 
ATOM     14  C   UNL     1       4.937   4.583  16.461  0.00  0.00    +0.000 A 
ATOM     15  C   UNL     1       4.490   5.417  17.460  0.00  0.00    +0.000 A 
ATOM     16  O   UNL     1       5.212   6.569  17.433  0.00  0.00    +0.000 OA
ATOM     17  N   UNL     1       6.145   6.505  16.412  0.00  0.00    +0.000 NA
ENDBRANCH  11  15
ENDBRANCH   1  11
BRANCH   7  18
ATOM     18  C   UNL     1      -1.291  11.536  18.975  0.00  0.00    +0.000 C 
BRANCH  18  19
ATOM     19  C   UNL     1      -2.412  11.344  18.007  0.00  0.00    +0.000 A 
ATOM     20  C   UNL     1      -3.726  11.708  18.235  0.00  0.00    +0.000 A 
ATOM     21  S   UNL     1      -4.684  11.375  16.863  0.00  0.00    +0.000 S 
ATOM     22  C   UNL     1      -3.295  10.759  16.059  0.00  0.00    +0.000 A 
ATOM     23  C   UNL     1      -3.412  10.239  14.668  0.00  0.00    +0.000 C 
ATOM     24  N   UNL     1      -2.174  10.790  16.753  0.00  0.00    +0.000 NA
ENDBRANCH  18  19
ENDBRANCH   7  18
TORSDOF 4
ENDMDL
MODEL 3
REMARK VINA RESULT:      -6.6      3.357      8.687
REMARK  Name = 
REMARK  6 active torsions:
REMARK  status: ('A' for Active; 'I' for Inactive)
REMARK    1  A    between atoms: C_1  and  C_2
REMARK    2  A    between atoms: C_4  and  C_5
REMARK    3  A    between atoms: C_5  and  N_6
REMARK    4  A    between atoms: N_12  and  C_13
REMARK    5  A    between atoms: C_13  and  C_14
REMARK    6  A    between atoms: C_17  and  C_18
REMARK                            x       y       z     vdW  Elec       q    Type
REMARK                         _______ _______ _______ _____ _____    ______ ____
ROOT
ATOM      1  N   UNL     1       1.207   8.818  19.443  0.00  0.00    +0.000 NA
ATOM      2  C   UNL     1       1.837   7.930  20.445  0.00  0.00    +0.000 C 
ATOM      3  C   UNL     1       2.208   6.609  19.763  0.00  0.00    +0.000 C 
ATOM      4  N   UNL     1       3.128   6.836  18.644  0.00  0.00    +0.000 N 
ATOM      5  C   UNL     1       4.232   6.026  18.556  0.00  0.00    +0.000 C 
ATOM      6  O   UNL     1       4.455   5.132  19.376  0.00  0.00    +0.000 OA
ATOM      7  N   UNL     1       5.120   6.285  17.556  0.00  0.00    +0.000 N 
ATOM      8  C   UNL     1       2.696   7.878  17.701  0.00  0.00    +0.000 C 
ATOM      9  C   UNL     1       2.224   9.161  18.430  0.00  0.00    +0.000 C 
ATOM     10  H   UNL     1       4.780   6.673  16.691  0.00  0.00    +0.000 HD
ENDROOT
BRANCH   1  11
ATOM     11  C   UNL     1       0.553   9.976  20.052  0.00  0.00    +0.000 C 
BRANCH  11  15
ATOM     12  C   UNL     1      -3.028  10.926  16.525  0.00  0.00    +0.000 C 
ATOM     13  C   UNL     1      -2.134  10.896  17.706  0.00  0.00    +0.000 A 
ATOM     14  C   UNL     1      -0.972  10.121  17.903  0.00  0.00    +0.000 A 
ATOM     15  C   UNL     1      -0.540  10.466  19.163  0.00  0.00    +0.000 A 
ATOM     16  O   UNL     1      -1.389  11.393  19.685  0.00  0.00    +0.000 OA
ATOM     17  N   UNL     1      -2.392  11.667  18.770  0.00  0.00    +0.000 NA
ENDBRANCH  11  15
ENDBRANCH   1  11
BRANCH   7  18
ATOM     18  C   UNL     1       6.287   5.439  17.441  0.00  0.00    +0.000 C 
BRANCH  18  19
ATOM     19  C   UNL     1       6.442   4.977  16.030  0.00  0.00    +0.000 A 
ATOM     20  C   UNL     1       5.698   3.973  15.439  0.00  0.00    +0.000 A 
ATOM     21  S   UNL     1       6.140   3.788  13.801  0.00  0.00    +0.000 S 
ATOM     22  C   UNL     1       7.298   5.045  13.986  0.00  0.00    +0.000 A 
ATOM     23  C   UNL     1       8.138   5.456  12.826  0.00  0.00    +0.000 C 
ATOM     24  N   UNL     1       7.368   5.584  15.187  0.00  0.00    +0.000 NA
ENDBRANCH  18  19
ENDBRANCH   7  18
TORSDOF 4
ENDMDL
MODEL 4
REMARK VINA RESULT:      -6.4      2.391      3.457
REMARK  Name = 
REMARK  6 active torsions:
REMARK  status: ('A' for Active; 'I' for Inactive)
REMARK    1  A    between atoms: C_1  and  C_2
REMARK    2  A    between atoms: C_4  and  C_5
REMARK    3  A    between atoms: C_5  and  N_6
REMARK    4  A    between atoms: N_12  and  C_13
REMARK    5  A    between atoms: C_13  and  C_14
REMARK    6  A    between atoms: C_17  and  C_18
REMARK                            x       y       z     vdW  Elec       q    Type
REMARK                         _______ _______ _______ _____ _____    ______ ____
ROOT
ATOM      1  N   UNL     1       4.220   4.757  17.660  0.00  0.00    +0.000 NA
ATOM      2  C   UNL     1       3.237   4.288  18.662  0.00  0.00    +0.000 C 
ATOM      3  C   UNL     1       3.242   5.263  19.844  0.00  0.00    +0.000 C 
ATOM      4  N   UNL     1       2.904   6.621  19.405  0.00  0.00    +0.000 N 
ATOM      5  C   UNL     1       1.975   7.313  20.140  0.00  0.00    +0.000 C 
ATOM      6  O   UNL     1       1.437   6.827  21.139  0.00  0.00    +0.000 OA
ATOM      7  N   UNL     1       1.611   8.546  19.689  0.00  0.00    +0.000 N 
ATOM      8  C   UNL     1       3.679   7.099  18.251  0.00  0.00    +0.000 C 
ATOM      9  C   UNL     1       3.745   6.044  17.118  0.00  0.00    +0.000 C 
ATOM     10  H   UNL     1       2.287   9.100  19.188  0.00  0.00    +0.000 HD
ENDROOT
BRANCH   1  11
ATOM     11  C   UNL     1       4.507   3.746  16.641  0.00  0.00    +0.000 C 
BRANCH  11  15
ATOM     12  C   UNL     1       7.761   5.242  12.990  0.00  0.00    +0.000 C 
ATOM     13  C   UNL     1       7.052   4.914  14.247  0.00  0.00    +0.000 A 
ATOM     14  C   UNL     1       5.831   4.226  14.410  0.00  0.00    +0.000 A 
ATOM     15  C   UNL     1       5.626   4.208  15.770  0.00  0.00    +0.000 A 
ATOM     16  O   UNL     1       6.662   4.842  16.383  0.00  0.00    +0.000 OA
ATOM     17  N   UNL     1       7.561   5.286  15.429  0.00  0.00    +0.000 NA
ENDBRANCH  11  15
ENDBRANCH   1  11
BRANCH   7  18
ATOM     18  C   UNL     1       0.639   9.295  20.453  0.00  0.00    +0.000 C 
BRANCH  18  19
ATOM     19  C   UNL     1       0.055  10.379  19.609  0.00  0.00    +0.000 A 
ATOM     20  C   UNL     1       0.530  11.676  19.547  0.00  0.00    +0.000 A 
ATOM     21  S   UNL     1      -0.375  12.589  18.423  0.00  0.00    +0.000 S 
ATOM     22  C   UNL     1      -1.344  11.206  18.100  0.00  0.00    +0.000 A 
ATOM     23  C   UNL     1      -2.451  11.292  17.107  0.00  0.00    +0.000 C 
ATOM     24  N   UNL     1      -1.030  10.119  18.778  0.00  0.00    +0.000 NA
ENDBRANCH  18  19
ENDBRANCH   7  18
TORSDOF 4
ENDMDL
MODEL 5
REMARK VINA RESULT:      -6.4      2.368      3.121
REMARK  Name = 
REMARK  6 active torsions:
REMARK  status: ('A' for Active; 'I' for Inactive)
REMARK    1  A    between atoms: C_1  and  C_2
REMARK    2  A    between atoms: C_4  and  C_5
REMARK    3  A    between atoms: C_5  and  N_6
REMARK    4  A    between atoms: N_12  and  C_13
REMARK    5  A    between atoms: C_13  and  C_14
REMARK    6  A    between atoms: C_17  and  C_18
REMARK                            x       y       z     vdW  Elec       q    Type
REMARK                         _______ _______ _______ _____ _____    ______ ____
ROOT
ATOM      1  N   UNL     1       4.333   5.663  17.547  0.00  0.00    +0.000 NA
ATOM      2  C   UNL     1       4.758   7.033  17.182  0.00  0.00    +0.000 C 
ATOM      3  C   UNL     1       3.513   7.853  16.830  0.00  0.00    +0.000 C 
ATOM      4  N   UNL     1       2.578   7.901  17.960  0.00  0.00    +0.000 N 
ATOM      5  C   UNL     1       2.052   9.122  18.296  0.00  0.00    +0.000 C 
ATOM      6  O   UNL     1       2.339  10.151  17.679  0.00  0.00    +0.000 OA
ATOM      7  N   UNL     1       1.240   9.174  19.389  0.00  0.00    +0.000 N 
ATOM      8  C   UNL     1       2.267   6.590  18.548  0.00  0.00    +0.000 C 
ATOM      9  C   UNL     1       3.542   5.744  18.790  0.00  0.00    +0.000 C 
ATOM     10  H   UNL     1       0.683   8.367  19.621  0.00  0.00    +0.000 HD
ENDROOT
BRANCH   1  11
ATOM     11  C   UNL     1       5.455   4.726  17.610  0.00  0.00    +0.000 C 
BRANCH  11  15
ATOM     12  C   UNL     1       6.776   4.010  12.722  0.00  0.00    +0.000 C 
ATOM     13  C   UNL     1       6.688   4.352  14.159  0.00  0.00    +0.000 A 
ATOM     14  C   UNL     1       5.672   4.016  15.078  0.00  0.00    +0.000 A 
ATOM     15  C   UNL     1       6.077   4.589  16.262  0.00  0.00    +0.000 A 
ATOM     16  O   UNL     1       7.263   5.226  16.064  0.00  0.00    +0.000 OA
ATOM     17  N   UNL     1       7.651   5.077  14.743  0.00  0.00    +0.000 NA
ENDBRANCH  11  15
ENDBRANCH   1  11
BRANCH   7  18
ATOM     18  C   UNL     1       0.668  10.450  19.757  0.00  0.00    +0.000 C 
BRANCH  18  19
ATOM     19  C   UNL     1      -0.635  10.644  19.056  0.00  0.00    +0.000 A 
ATOM     20  C   UNL     1      -1.628  11.519  19.458  0.00  0.00    +0.000 A 
ATOM     21  S   UNL     1      -2.932  11.487  18.358  0.00  0.00    +0.000 S 
ATOM     22  C   UNL     1      -2.100  10.307  17.426  0.00  0.00    +0.000 A 
ATOM     23  C   UNL     1      -2.722   9.769  16.184  0.00  0.00    +0.000 C 
ATOM     24  N   UNL     1      -0.919   9.944  17.888  0.00  0.00    +0.000 NA
ENDBRANCH  18  19
ENDBRANCH   7  18
TORSDOF 4
ENDMDL
MODEL 6
REMARK VINA RESULT:      -6.4      3.906      8.758
REMARK  Name = 
REMARK  6 active torsions:
REMARK  status: ('A' for Active; 'I' for Inactive)
REMARK    1  A    between atoms: C_1  and  C_2
REMARK    2  A    between atoms: C_4  and  C_5
REMARK    3  A    between atoms: C_5  and  N_6
REMARK    4  A    between atoms: N_12  and  C_13
REMARK    5  A    between atoms: C_13  and  C_14
REMARK    6  A    between atoms: C_17  and  C_18
REMARK                            x       y       z     vdW  Elec       q    Type
REMARK                         _______ _______ _______ _____ _____    ______ ____
ROOT
ATOM      1  N   UNL     1      -0.578  11.423  20.506  0.00  0.00    +0.000 NA
ATOM      2  C   UNL     1      -0.472  11.316  19.034  0.00  0.00    +0.000 C 
ATOM      3  C   UNL     1       0.957  10.894  18.677  0.00  0.00    +0.000 C 
ATOM      4  N   UNL     1       1.297   9.610  19.300  0.00  0.00    +0.000 N 
ATOM      5  C   UNL     1       1.896   8.661  18.511  0.00  0.00    +0.000 C 
ATOM      6  O   UNL     1       2.151   8.865  17.322  0.00  0.00    +0.000 OA
ATOM      7  N   UNL     1       2.145   7.446  19.075  0.00  0.00    +0.000 N 
ATOM      8  C   UNL     1       1.009   9.537  20.740  0.00  0.00    +0.000 C 
ATOM      9  C   UNL     1      -0.404  10.075  21.078  0.00  0.00    +0.000 C 
ATOM     10  H   UNL     1       2.344   7.398  20.061  0.00  0.00    +0.000 HD
ENDROOT
BRANCH   1  11
ATOM     11  C   UNL     1      -1.802  12.103  20.932  0.00  0.00    +0.000 C 
BRANCH  11  15
ATOM     12  C   UNL     1      -1.338  15.219  24.961  0.00  0.00    +0.000 C 
ATOM     13  C   UNL     1      -1.198  14.460  23.697  0.00  0.00    +0.000 A 
ATOM     14  C   UNL     1      -2.104  13.545  23.121  0.00  0.00    +0.000 A 
ATOM     15  C   UNL     1      -1.480  13.126  21.969  0.00  0.00    +0.000 A 
ATOM     16  O   UNL     1      -0.277  13.753  21.861  0.00  0.00    +0.000 OA
ATOM     17  N   UNL     1      -0.097  14.594  22.946  0.00  0.00    +0.000 NA
ENDBRANCH  11  15
ENDBRANCH   1  11
BRANCH   7  18
ATOM     18  C   UNL     1       2.783   6.433  18.263  0.00  0.00    +0.000 C 
BRANCH  18  19
ATOM     19  C   UNL     1       2.271   5.083  18.640  0.00  0.00    +0.000 A 
ATOM     20  C   UNL     1       1.954   4.078  17.745  0.00  0.00    +0.000 A 
ATOM     21  S   UNL     1       1.461   2.672  18.577  0.00  0.00    +0.000 S 
ATOM     22  C   UNL     1       1.690   3.491  20.071  0.00  0.00    +0.000 A 
ATOM     23  C   UNL     1       1.419   2.784  21.354  0.00  0.00    +0.000 C 
ATOM     24  N   UNL     1       2.108   4.738  19.979  0.00  0.00    +0.000 NA
ENDBRANCH  18  19
ENDBRANCH   7  18
TORSDOF 4
ENDMDL
MODEL 7
REMARK VINA RESULT:      -6.4      2.184      3.143
REMARK  Name = 
REMARK  6 active torsions:
REMARK  status: ('A' for Active; 'I' for Inactive)
REMARK    1  A    between atoms: C_1  and  C_2
REMARK    2  A    between atoms: C_4  and  C_5
REMARK    3  A    between atoms: C_5  and  N_6
REMARK    4  A    between atoms: N_12  and  C_13
REMARK    5  A    between atoms: C_13  and  C_14
REMARK    6  A    between atoms: C_17  and  C_18
REMARK                            x       y       z     vdW  Elec       q    Type
REMARK                         _______ _______ _______ _____ _____    ______ ____
ROOT
ATOM      1  N   UNL     1       4.094   4.876  17.849  0.00  0.00    +0.000 NA
ATOM      2  C   UNL     1       3.058   4.566  18.860  0.00  0.00    +0.000 C 
ATOM      3  C   UNL     1       3.070   5.669  19.924  0.00  0.00    +0.000 C 
ATOM      4  N   UNL     1       2.808   6.981  19.324  0.00  0.00    +0.000 N 
ATOM      5  C   UNL     1       1.889   7.789  19.941  0.00  0.00    +0.000 C 
ATOM      6  O   UNL     1       1.298   7.444  20.968  0.00  0.00    +0.000 OA
ATOM      7  N   UNL     1       1.597   8.978  19.342  0.00  0.00    +0.000 N 
ATOM      8  C   UNL     1       3.641   7.291  18.153  0.00  0.00    +0.000 C 
ATOM      9  C   UNL     1       3.696   6.112  17.149  0.00  0.00    +0.000 C 
ATOM     10  H   UNL     1       2.313   9.442  18.807  0.00  0.00    +0.000 HD
ENDROOT
BRANCH   1  11
ATOM     11  C   UNL     1       4.367   3.745  16.961  0.00  0.00    +0.000 C 
BRANCH  11  15
ATOM     12  C   UNL     1       7.511   5.051  13.144  0.00  0.00    +0.000 C 
ATOM     13  C   UNL     1       6.867   4.704  14.432  0.00  0.00    +0.000 A 
ATOM     14  C   UNL     1       5.551   4.249  14.658  0.00  0.00    +0.000 A 
ATOM     15  C   UNL     1       5.472   4.093  16.023  0.00  0.00    +0.000 A 
ATOM     16  O   UNL     1       6.667   4.432  16.578  0.00  0.00    +0.000 OA
ATOM     17  N   UNL     1       7.548   4.815  15.580  0.00  0.00    +0.000 NA
ENDBRANCH  11  15
ENDBRANCH   1  11
BRANCH   7  18
ATOM     18  C   UNL     1       0.635   9.849  19.980  0.00  0.00    +0.000 C 
BRANCH  18  19
ATOM     19  C   UNL     1      -0.478  10.156  19.035  0.00  0.00    +0.000 A 
ATOM     20  C   UNL     1      -0.555   9.709  17.729  0.00  0.00    +0.000 A 
ATOM     21  S   UNL     1      -2.010  10.229  17.005  0.00  0.00    +0.000 S 
ATOM     22  C   UNL     1      -2.439  11.024  18.468  0.00  0.00    +0.000 A 
ATOM     23  C   UNL     1      -3.728  11.763  18.560  0.00  0.00    +0.000 C 
ATOM     24  N   UNL     1      -1.565  10.920  19.450  0.00  0.00    +0.000 NA
ENDBRANCH  18  19
ENDBRANCH   7  18
TORSDOF 4
ENDMDL
MODEL 8
REMARK VINA RESULT:      -6.4      0.943      1.334
REMARK  Name = 
REMARK  6 active torsions:
REMARK  status: ('A' for Active; 'I' for Inactive)
REMARK    1  A    between atoms: C_1  and  C_2
REMARK    2  A    between atoms: C_4  and  C_5
REMARK    3  A    between atoms: C_5  and  N_6
REMARK    4  A    between atoms: N_12  and  C_13
REMARK    5  A    between atoms: C_13  and  C_14
REMARK    6  A    between atoms: C_17  and  C_18
REMARK                            x       y       z     vdW  Elec       q    Type
REMARK                         _______ _______ _______ _____ _____    ______ ____
ROOT
ATOM      1  N   UNL     1       2.514   6.822  19.488  0.00  0.00    +0.000 NA
ATOM      2  C   UNL     1       1.508   7.165  20.518  0.00  0.00    +0.000 C 
ATOM      3  C   UNL     1       1.517   8.685  20.720  0.00  0.00    +0.000 C 
ATOM      4  N   UNL     1       1.212   9.383  19.467  0.00  0.00    +0.000 N 
ATOM      5  C   UNL     1       0.287  10.395  19.513  0.00  0.00    +0.000 C 
ATOM      6  O   UNL     1      -0.273  10.722  20.563  0.00  0.00    +0.000 OA
ATOM      7  N   UNL     1      -0.045  10.994  18.336  0.00  0.00    +0.000 N 
ATOM      8  C   UNL     1       2.012   8.943  18.314  0.00  0.00    +0.000 C 
ATOM      9  C   UNL     1       2.072   7.399  18.204  0.00  0.00    +0.000 C 
ATOM     10  H   UNL     1       0.649  11.055  17.608  0.00  0.00    +0.000 HD
ENDROOT
BRANCH   1  11
ATOM     11  C   UNL     1       2.794   5.386  19.435  0.00  0.00    +0.000 C 
BRANCH  11  15
ATOM     12  C   UNL     1       7.164   5.261  16.782  0.00  0.00    +0.000 C 
ATOM     13  C   UNL     1       6.055   5.091  17.748  0.00  0.00    +0.000 A 
ATOM     14  C   UNL     1       4.736   5.586  17.661  0.00  0.00    +0.000 A 
ATOM     15  C   UNL     1       4.131   5.153  18.818  0.00  0.00    +0.000 A 
ATOM     16  O   UNL     1       5.031   4.441  19.550  0.00  0.00    +0.000 OA
ATOM     17  N   UNL     1       6.241   4.398  18.878  0.00  0.00    +0.000 NA
ENDBRANCH  11  15
ENDBRANCH   1  11
BRANCH   7  18
ATOM     18  C   UNL     1      -1.012  12.069  18.363  0.00  0.00    +0.000 C 
BRANCH  18  19
ATOM     19  C   UNL     1      -2.279  11.629  17.707  0.00  0.00    +0.000 A 
ATOM     20  C   UNL     1      -2.370  11.118  16.426  0.00  0.00    +0.000 A 
ATOM     21  S   UNL     1      -3.982  10.681  16.072  0.00  0.00    +0.000 S 
ATOM     22  C   UNL     1      -4.455  11.208  17.638  0.00  0.00    +0.000 A 
ATOM     23  C   UNL     1      -5.881  11.105  18.057  0.00  0.00    +0.000 C 
ATOM     24  N   UNL     1      -3.486  11.685  18.396  0.00  0.00    +0.000 NA
ENDBRANCH  18  19
ENDBRANCH   7  18
TORSDOF 4
ENDMDL
MODEL 9
REMARK VINA RESULT:      -6.3      1.290      1.521
REMARK  Name = 
REMARK  6 active torsions:
REMARK  status: ('A' for Active; 'I' for Inactive)
REMARK    1  A    between atoms: C_1  and  C_2
REMARK    2  A    between atoms: C_4  and  C_5
REMARK    3  A    between atoms: C_5  and  N_6
REMARK    4  A    between atoms: N_12  and  C_13
REMARK    5  A    between atoms: C_13  and  C_14
REMARK    6  A    between atoms: C_17  and  C_18
REMARK                            x       y       z     vdW  Elec       q    Type
REMARK                         _______ _______ _______ _____ _____    ______ ____
ROOT
ATOM      1  N   UNL     1       2.863   6.305  19.150  0.00  0.00    +0.000 NA
ATOM      2  C   UNL     1       1.864   6.340  20.241  0.00  0.00    +0.000 C 
ATOM      3  C   UNL     1       1.755   7.778  20.758  0.00  0.00    +0.000 C 
ATOM      4  N   UNL     1       1.357   8.694  19.683  0.00  0.00    +0.000 N 
ATOM      5  C   UNL     1       0.355   9.590  19.952  0.00  0.00    +0.000 C 
ATOM      6  O   UNL     1      -0.199   9.643  21.054  0.00  0.00    +0.000 OA
ATOM      7  N   UNL     1      -0.060  10.391  18.930  0.00  0.00    +0.000 N 
ATOM      8  C   UNL     1       2.155   8.574  18.454  0.00  0.00    +0.000 C 
ATOM      9  C   UNL     1       2.338   7.097  18.022  0.00  0.00    +0.000 C 
ATOM     10  H   UNL     1       0.604  10.661  18.223  0.00  0.00    +0.000 HD
ENDROOT
BRANCH   1  11
ATOM     11  C   UNL     1       3.258   4.942  18.794  0.00  0.00    +0.000 C 
BRANCH  11  15
ATOM     12  C   UNL     1       6.771   4.715  15.084  0.00  0.00    +0.000 C 
ATOM     13  C   UNL     1       5.980   4.956  16.312  0.00  0.00    +0.000 A 
ATOM     14  C   UNL     1       4.722   4.421  16.662  0.00  0.00    +0.000 A 
ATOM     15  C   UNL     1       4.443   4.977  17.889  0.00  0.00    +0.000 A 
ATOM     16  O   UNL     1       5.471   5.791  18.252  0.00  0.00    +0.000 OA
ATOM     17  N   UNL     1       6.440   5.778  17.264  0.00  0.00    +0.000 NA
ENDBRANCH  11  15
ENDBRANCH   1  11
BRANCH   7  18
ATOM     18  C   UNL     1      -1.111  11.349  19.194  0.00  0.00    +0.000 C 
BRANCH  18  19
ATOM     19  C   UNL     1      -2.176  11.235  18.154  0.00  0.00    +0.000 A 
ATOM     20  C   UNL     1      -2.036  10.576  16.947  0.00  0.00    +0.000 A 
ATOM     21  S   UNL     1      -3.498  10.625  16.069  0.00  0.00    +0.000 S 
ATOM     22  C   UNL     1      -4.218  11.527  17.343  0.00  0.00    +0.000 A 
ATOM     23  C   UNL     1      -5.641  11.956  17.236  0.00  0.00    +0.000 C 
ATOM     24  N   UNL     1      -3.435  11.787  18.371  0.00  0.00    +0.000 NA
ENDBRANCH  18  19
ENDBRANCH   7  18
TORSDOF 4
ENDMDL
