MODEL 1
REMARK VINA RESULT:      -6.7      0.000      0.000
REMARK  Name = 
REMARK  13 active torsions:
REMARK  status: ('A' for Active; 'I' for Inactive)
REMARK    1  A    between atoms: C_1  and  C_2
REMARK    2  A    between atoms: C_2  and  O_3
REMARK    3  A    between atoms: O_3  and  P_4
REMARK    4  A    between atoms: P_4  and  C_6
REMARK    5  A    between atoms: P_4  and  O_20
REMARK    6  A    between atoms: C_6  and  C_7
REMARK    7  A    between atoms: C_7  and  C_8
REMARK    8  A    between atoms: C_8  and  C_9
REMARK    9  A    between atoms: C_9  and  C_10
REMARK   10  A    between atoms: N_12  and  C_13
REMARK   11  A    between atoms: C_17  and  O_18
REMARK   12  A    between atoms: O_20  and  C_21
REMARK   13  A    between atoms: C_21  and  C_22
REMARK                            x       y       z     vdW  Elec       q    Type
REMARK                         _______ _______ _______ _____ _____    ______ ____
ROOT
ATOM      1  C   UNL     1       3.394   3.228  19.146  0.00  0.00    +0.000 C 
ENDROOT
BRANCH   1   2
ATOM      2  C   UNL     1       2.451   4.413  19.133  0.00  0.00    +0.000 C 
ATOM      3  O   UNL     1       1.296   4.270  18.741  0.00  0.00    +0.000 OA
ATOM      4  N   UNL     1       3.049   5.596  19.534  0.00  0.00    +0.000 N 
ATOM      5  H   UNL     1       4.051   5.588  19.671  0.00  0.00    +0.000 HD
BRANCH   4   6
ATOM      6  C   UNL     1       2.419   6.858  19.604  0.00  0.00    +0.000 A 
ATOM      7  C   UNL     1       1.716   7.298  20.729  0.00  0.00    +0.000 A 
ATOM      8  C   UNL     1       1.042   8.523  20.719  0.00  0.00    +0.000 A 
ATOM      9  C   UNL     1       1.070   9.325  19.583  0.00  0.00    +0.000 A 
ATOM     10  C   UNL     1       1.802   8.907  18.476  0.00  0.00    +0.000 A 
ATOM     11  C   UNL     1       2.491   7.695  18.484  0.00  0.00    +0.000 A 
BRANCH  10  12
ATOM     12  O   UNL     1       1.850   9.660  17.339  0.00  0.00    +0.000 OA
ATOM     13  H   UNL     1       2.281   9.136  16.643  0.00  0.00    +0.000 HD
ENDBRANCH  10  12
ENDBRANCH   4   6
ENDBRANCH   1   2
BRANCH   1  14
ATOM     14  C   UNL     1       3.790   2.825  17.729  0.00  0.00    +0.000 C 
BRANCH  14  15
ATOM     15  C   UNL     1       4.129   4.057  16.890  0.00  0.00    +0.000 C 
BRANCH  15  16
ATOM     16  C   UNL     1       5.636   4.267  16.772  0.00  0.00    +0.000 C 
BRANCH  16  17
ATOM     17  P   UNL     1       6.109   5.196  15.181  0.00  0.00    +0.000 P 
ATOM     18  O   UNL     1       7.646   5.227  15.159  0.00  0.00    +0.000 OA
BRANCH  17  19
ATOM     19  O   UNL     1       6.119   6.683  16.066  0.00  0.00    +0.000 OA
BRANCH  19  21
ATOM     20  C   UNL     1       7.673   7.815  17.478  0.00  0.00    +0.000 C 
ATOM     21  C   UNL     1       6.779   6.603  17.321  0.00  0.00    +0.000 C 
ENDBRANCH  19  21
ENDBRANCH  17  19
BRANCH  17  22
ATOM     22  O   UNL     1       6.100   3.710  14.297  0.00  0.00    +0.000 OA
BRANCH  22  23
ATOM     23  C   UNL     1       6.454   3.815  12.919  0.00  0.00    +0.000 C 
ATOM     24  C   UNL     1       5.344   3.226  12.076  0.00  0.00    +0.000 C 
ENDBRANCH  22  23
ENDBRANCH  17  22
ENDBRANCH  16  17
ENDBRANCH  15  16
ENDBRANCH  14  15
ENDBRANCH   1  14
TORSDOF 11
ENDMDL
MODEL 2
REMARK VINA RESULT:      -6.4      0.900      3.007
REMARK  Name = 
REMARK  13 active torsions:
REMARK  status: ('A' for Active; 'I' for Inactive)
REMARK    1  A    between atoms: C_1  and  C_2
REMARK    2  A    between atoms: C_2  and  O_3
REMARK    3  A    between atoms: O_3  and  P_4
REMARK    4  A    between atoms: P_4  and  C_6
REMARK    5  A    between atoms: P_4  and  O_20
REMARK    6  A    between atoms: C_6  and  C_7
REMARK    7  A    between atoms: C_7  and  C_8
REMARK    8  A    between atoms: C_8  and  C_9
REMARK    9  A    between atoms: C_9  and  C_10
REMARK   10  A    between atoms: N_12  and  C_13
REMARK   11  A    between atoms: C_17  and  O_18
REMARK   12  A    between atoms: O_20  and  C_21
REMARK   13  A    between atoms: C_21  and  C_22
REMARK                            x       y       z     vdW  Elec       q    Type
REMARK                         _______ _______ _______ _____ _____    ______ ____
ROOT
ATOM      1  C   UNL     1       3.521   3.802  18.805  0.00  0.00    +0.000 C 
ENDROOT
BRANCH   1   2
ATOM      2  C   UNL     1       2.567   4.976  18.731  0.00  0.00    +0.000 C 
ATOM      3  O   UNL     1       1.563   4.904  18.028  0.00  0.00    +0.000 OA
ATOM      4  N   UNL     1       2.990   6.074  19.460  0.00  0.00    +0.000 N 
ATOM      5  H   UNL     1       3.920   6.041  19.856  0.00  0.00    +0.000 HD
BRANCH   4   6
ATOM      6  C   UNL     1       2.313   7.310  19.561  0.00  0.00    +0.000 A 
ATOM      7  C   UNL     1       1.588   7.692  20.694  0.00  0.00    +0.000 A 
ATOM      8  C   UNL     1       0.869   8.890  20.714  0.00  0.00    +0.000 A 
ATOM      9  C   UNL     1       0.872   9.725  19.601  0.00  0.00    +0.000 A 
ATOM     10  C   UNL     1       1.625   9.365  18.487  0.00  0.00    +0.000 A 
ATOM     11  C   UNL     1       2.359   8.179  18.466  0.00  0.00    +0.000 A 
BRANCH  10  12
ATOM     12  O   UNL     1       1.650  10.151  17.372  0.00  0.00    +0.000 OA
ATOM     13  H   UNL     1       2.052   9.642  16.648  0.00  0.00    +0.000 HD
ENDBRANCH  10  12
ENDBRANCH   4   6
ENDBRANCH   1   2
BRANCH   1  14
ATOM     14  C   UNL     1       3.359   2.886  17.595  0.00  0.00    +0.000 C 
BRANCH  14  15
ATOM     15  C   UNL     1       4.223   3.369  16.430  0.00  0.00    +0.000 C 
BRANCH  15  16
ATOM     16  C   UNL     1       5.354   4.280  16.901  0.00  0.00    +0.000 C 
BRANCH  16  17
ATOM     17  P   UNL     1       6.753   4.409  15.619  0.00  0.00    +0.000 P 
ATOM     18  O   UNL     1       6.769   5.878  15.168  0.00  0.00    +0.000 OA
BRANCH  17  19
ATOM     19  O   UNL     1       5.618   4.062  14.361  0.00  0.00    +0.000 OA
BRANCH  19  21
ATOM     20  C   UNL     1       5.123   3.361  12.135  0.00  0.00    +0.000 C 
ATOM     21  C   UNL     1       6.218   3.678  13.133  0.00  0.00    +0.000 C 
ENDBRANCH  19  21
ENDBRANCH  17  19
BRANCH  17  22
ATOM     22  O   UNL     1       7.888   4.756  16.878  0.00  0.00    +0.000 OA
BRANCH  22  23
ATOM     23  C   UNL     1       7.321   4.983  18.167  0.00  0.00    +0.000 C 
ATOM     24  C   UNL     1       7.869   6.278  18.728  0.00  0.00    +0.000 C 
ENDBRANCH  22  23
ENDBRANCH  17  22
ENDBRANCH  16  17
ENDBRANCH  15  16
ENDBRANCH  14  15
ENDBRANCH   1  14
TORSDOF 11
ENDMDL
MODEL 3
REMARK VINA RESULT:      -6.3      1.485      1.643
REMARK  Name = 
REMARK  13 active torsions:
REMARK  status: ('A' for Active; 'I' for Inactive)
REMARK    1  A    between atoms: C_1  and  C_2
REMARK    2  A    between atoms: C_2  and  O_3
REMARK    3  A    between atoms: O_3  and  P_4
REMARK    4  A    between atoms: P_4  and  C_6
REMARK    5  A    between atoms: P_4  and  O_20
REMARK    6  A    between atoms: C_6  and  C_7
REMARK    7  A    between atoms: C_7  and  C_8
REMARK    8  A    between atoms: C_8  and  C_9
REMARK    9  A    between atoms: C_9  and  C_10
REMARK   10  A    between atoms: N_12  and  C_13
REMARK   11  A    between atoms: C_17  and  O_18
REMARK   12  A    between atoms: O_20  and  C_21
REMARK   13  A    between atoms: C_21  and  C_22
REMARK                            x       y       z     vdW  Elec       q    Type
REMARK                         _______ _______ _______ _____ _____    ______ ____
ROOT
ATOM      1  C   UNL     1       3.230   4.176  20.162  0.00  0.00    +0.000 C 
ENDROOT
BRANCH   1   2
ATOM      2  C   UNL     1       2.174   5.253  20.285  0.00  0.00    +0.000 C 
ATOM      3  O   UNL     1       1.008   4.942  20.512  0.00  0.00    +0.000 OA
ATOM      4  N   UNL     1       2.662   6.530  20.062  0.00  0.00    +0.000 N 
ATOM      5  H   UNL     1       3.611   6.613  19.725  0.00  0.00    +0.000 HD
BRANCH   4   6
ATOM      6  C   UNL     1       1.904   7.722  20.094  0.00  0.00    +0.000 A 
ATOM      7  C   UNL     1       1.208   8.152  21.228  0.00  0.00    +0.000 A 
ATOM      8  C   UNL     1       0.407   9.297  21.186  0.00  0.00    +0.000 A 
ATOM      9  C   UNL     1       0.299  10.029  20.008  0.00  0.00    +0.000 A 
ATOM     10  C   UNL     1       1.021   9.624  18.890  0.00  0.00    +0.000 A 
ATOM     11  C   UNL     1       1.836   8.493  18.929  0.00  0.00    +0.000 A 
BRANCH  10  12
ATOM     12  O   UNL     1       0.938  10.310  17.713  0.00  0.00    +0.000 OA
ATOM     13  H   UNL     1       1.209   9.716  16.993  0.00  0.00    +0.000 HD
ENDBRANCH  10  12
ENDBRANCH   4   6
ENDBRANCH   1   2
BRANCH   1  14
ATOM     14  C   UNL     1       3.545   3.880  18.698  0.00  0.00    +0.000 C 
BRANCH  14  15
ATOM     15  C   UNL     1       5.043   4.015  18.427  0.00  0.00    +0.000 C 
BRANCH  15  16
ATOM     16  C   UNL     1       5.416   5.428  17.990  0.00  0.00    +0.000 C 
BRANCH  16  17
ATOM     17  P   UNL     1       7.022   5.463  16.970  0.00  0.00    +0.000 P 
ATOM     18  O   UNL     1       7.975   4.475  17.660  0.00  0.00    +0.000 OA
BRANCH  17  19
ATOM     19  O   UNL     1       7.629   6.721  17.991  0.00  0.00    +0.000 OA
BRANCH  19  21
ATOM     20  C   UNL     1       8.417   8.962  18.213  0.00  0.00    +0.000 C 
ATOM     21  C   UNL     1       7.526   8.020  17.429  0.00  0.00    +0.000 C 
ENDBRANCH  19  21
ENDBRANCH  17  19
BRANCH  17  22
ATOM     22  O   UNL     1       6.414   4.206  15.950  0.00  0.00    +0.000 OA
BRANCH  22  23
ATOM     23  C   UNL     1       5.675   4.645  14.812  0.00  0.00    +0.000 C 
ATOM     24  C   UNL     1       6.099   3.837  13.604  0.00  0.00    +0.000 C 
ENDBRANCH  22  23
ENDBRANCH  17  22
ENDBRANCH  16  17
ENDBRANCH  15  16
ENDBRANCH  14  15
ENDBRANCH   1  14
TORSDOF 11
ENDMDL
MODEL 4
REMARK VINA RESULT:      -6.3      0.954      1.021
REMARK  Name = 
REMARK  13 active torsions:
REMARK  status: ('A' for Active; 'I' for Inactive)
REMARK    1  A    between atoms: C_1  and  C_2
REMARK    2  A    between atoms: C_2  and  O_3
REMARK    3  A    between atoms: O_3  and  P_4
REMARK    4  A    between atoms: P_4  and  C_6
REMARK    5  A    between atoms: P_4  and  O_20
REMARK    6  A    between atoms: C_6  and  C_7
REMARK    7  A    between atoms: C_7  and  C_8
REMARK    8  A    between atoms: C_8  and  C_9
REMARK    9  A    between atoms: C_9  and  C_10
REMARK   10  A    between atoms: N_12  and  C_13
REMARK   11  A    between atoms: C_17  and  O_18
REMARK   12  A    between atoms: O_20  and  C_21
REMARK   13  A    between atoms: C_21  and  C_22
REMARK                            x       y       z     vdW  Elec       q    Type
REMARK                         _______ _______ _______ _____ _____    ______ ____
ROOT
ATOM      1  C   UNL     1       3.922   4.591  19.080  0.00  0.00    +0.000 C 
ENDROOT
BRANCH   1   2
ATOM      2  C   UNL     1       2.799   5.599  18.951  0.00  0.00    +0.000 C 
ATOM      3  O   UNL     1       1.947   5.456  18.079  0.00  0.00    +0.000 OA
ATOM      4  N   UNL     1       2.900   6.651  19.845  0.00  0.00    +0.000 N 
ATOM      5  H   UNL     1       3.747   6.717  20.394  0.00  0.00    +0.000 HD
BRANCH   4   6
ATOM      6  C   UNL     1       2.008   7.743  19.942  0.00  0.00    +0.000 A 
ATOM      7  C   UNL     1       1.236   7.997  21.080  0.00  0.00    +0.000 A 
ATOM      8  C   UNL     1       0.309   9.042  21.098  0.00  0.00    +0.000 A 
ATOM      9  C   UNL     1       0.147   9.850  19.977  0.00  0.00    +0.000 A 
ATOM     10  C   UNL     1       0.942   9.623  18.858  0.00  0.00    +0.000 A 
ATOM     11  C   UNL     1       1.882   8.593  18.838  0.00  0.00    +0.000 A 
BRANCH  10  12
ATOM     12  O   UNL     1       0.811  10.387  17.735  0.00  0.00    +0.000 OA
ATOM     13  H   UNL     1       0.406   9.842  17.039  0.00  0.00    +0.000 HD
ENDBRANCH  10  12
ENDBRANCH   4   6
ENDBRANCH   1   2
BRANCH   1  14
ATOM     14  C   UNL     1       3.672   3.374  18.194  0.00  0.00    +0.000 C 
BRANCH  14  15
ATOM     15  C   UNL     1       4.485   3.467  16.903  0.00  0.00    +0.000 C 
BRANCH  15  16
ATOM     16  C   UNL     1       5.710   4.362  17.067  0.00  0.00    +0.000 C 
BRANCH  16  17
ATOM     17  P   UNL     1       5.771   5.743  15.760  0.00  0.00    +0.000 P 
ATOM     18  O   UNL     1       7.245   5.855  15.341  0.00  0.00    +0.000 OA
BRANCH  17  19
ATOM     19  O   UNL     1       6.066   6.899  17.013  0.00  0.00    +0.000 OA
BRANCH  19  21
ATOM     20  C   UNL     1       7.919   8.244  17.685  0.00  0.00    +0.000 C 
ATOM     21  C   UNL     1       7.375   6.836  17.559  0.00  0.00    +0.000 C 
ENDBRANCH  19  21
ENDBRANCH  17  19
BRANCH  17  22
ATOM     22  O   UNL     1       5.475   4.587  14.509  0.00  0.00    +0.000 OA
BRANCH  22  23
ATOM     23  C   UNL     1       6.620   4.198  13.752  0.00  0.00    +0.000 C 
ATOM     24  C   UNL     1       6.166   3.456  12.513  0.00  0.00    +0.000 C 
ENDBRANCH  22  23
ENDBRANCH  17  22
ENDBRANCH  16  17
ENDBRANCH  15  16
ENDBRANCH  14  15
ENDBRANCH   1  14
TORSDOF 11
ENDMDL
MODEL 5
REMARK VINA RESULT:      -6.2      1.290      2.928
REMARK  Name = 
REMARK  13 active torsions:
REMARK  status: ('A' for Active; 'I' for Inactive)
REMARK    1  A    between atoms: C_1  and  C_2
REMARK    2  A    between atoms: C_2  and  O_3
REMARK    3  A    between atoms: O_3  and  P_4
REMARK    4  A    between atoms: P_4  and  C_6
REMARK    5  A    between atoms: P_4  and  O_20
REMARK    6  A    between atoms: C_6  and  C_7
REMARK    7  A    between atoms: C_7  and  C_8
REMARK    8  A    between atoms: C_8  and  C_9
REMARK    9  A    between atoms: C_9  and  C_10
REMARK   10  A    between atoms: N_12  and  C_13
REMARK   11  A    between atoms: C_17  and  O_18
REMARK   12  A    between atoms: O_20  and  C_21
REMARK   13  A    between atoms: C_21  and  C_22
REMARK                            x       y       z     vdW  Elec       q    Type
REMARK                         _______ _______ _______ _____ _____    ______ ____
ROOT
ATOM      1  C   UNL     1       3.326   4.006  20.028  0.00  0.00    +0.000 C 
ENDROOT
BRANCH   1   2
ATOM      2  C   UNL     1       2.288   5.097  20.187  0.00  0.00    +0.000 C 
ATOM      3  O   UNL     1       1.129   4.802  20.464  0.00  0.00    +0.000 OA
ATOM      4  N   UNL     1       2.782   6.366  19.935  0.00  0.00    +0.000 N 
ATOM      5  H   UNL     1       3.718   6.435  19.558  0.00  0.00    +0.000 HD
BRANCH   4   6
ATOM      6  C   UNL     1       2.041   7.567  19.990  0.00  0.00    +0.000 A 
ATOM      7  C   UNL     1       1.414   8.023  21.153  0.00  0.00    +0.000 A 
ATOM      8  C   UNL     1       0.625   9.177  21.137  0.00  0.00    +0.000 A 
ATOM      9  C   UNL     1       0.460   9.892  19.956  0.00  0.00    +0.000 A 
ATOM     10  C   UNL     1       1.115   9.461  18.806  0.00  0.00    +0.000 A 
ATOM     11  C   UNL     1       1.917   8.321  18.818  0.00  0.00    +0.000 A 
BRANCH  10  12
ATOM     12  O   UNL     1       0.973  10.129  17.624  0.00  0.00    +0.000 OA
ATOM     13  H   UNL     1       0.047  10.414  17.543  0.00  0.00    +0.000 HD
ENDBRANCH  10  12
ENDBRANCH   4   6
ENDBRANCH   1   2
BRANCH   1  14
ATOM     14  C   UNL     1       3.088   3.203  18.752  0.00  0.00    +0.000 C 
BRANCH  14  15
ATOM     15  C   UNL     1       4.236   3.404  17.764  0.00  0.00    +0.000 C 
BRANCH  15  16
ATOM     16  C   UNL     1       4.012   4.623  16.873  0.00  0.00    +0.000 C 
BRANCH  16  17
ATOM     17  P   UNL     1       5.636   5.525  16.468  0.00  0.00    +0.000 P 
ATOM     18  O   UNL     1       5.231   6.953  16.068  0.00  0.00    +0.000 OA
BRANCH  17  19
ATOM     19  O   UNL     1       5.478   5.045  14.813  0.00  0.00    +0.000 OA
BRANCH  19  21
ATOM     20  C   UNL     1       6.305   3.758  12.982  0.00  0.00    +0.000 C 
ATOM     21  C   UNL     1       6.179   3.854  14.489  0.00  0.00    +0.000 C 
ENDBRANCH  19  21
ENDBRANCH  17  19
BRANCH  17  22
ATOM     22  O   UNL     1       5.794   6.006  18.121  0.00  0.00    +0.000 OA
BRANCH  22  23
ATOM     23  C   UNL     1       7.025   5.649  18.748  0.00  0.00    +0.000 C 
ATOM     24  C   UNL     1       7.752   4.646  17.877  0.00  0.00    +0.000 C 
ENDBRANCH  22  23
ENDBRANCH  17  22
ENDBRANCH  16  17
ENDBRANCH  15  16
ENDBRANCH  14  15
ENDBRANCH   1  14
TORSDOF 11
ENDMDL
MODEL 6
REMARK VINA RESULT:      -6.1      2.080      4.659
REMARK  Name = 
REMARK  13 active torsions:
REMARK  status: ('A' for Active; 'I' for Inactive)
REMARK    1  A    between atoms: C_1  and  C_2
REMARK    2  A    between atoms: C_2  and  O_3
REMARK    3  A    between atoms: O_3  and  P_4
REMARK    4  A    between atoms: P_4  and  C_6
REMARK    5  A    between atoms: P_4  and  O_20
REMARK    6  A    between atoms: C_6  and  C_7
REMARK    7  A    between atoms: C_7  and  C_8
REMARK    8  A    between atoms: C_8  and  C_9
REMARK    9  A    between atoms: C_9  and  C_10
REMARK   10  A    between atoms: N_12  and  C_13
REMARK   11  A    between atoms: C_17  and  O_18
REMARK   12  A    between atoms: O_20  and  C_21
REMARK   13  A    between atoms: C_21  and  C_22
REMARK                            x       y       z     vdW  Elec       q    Type
REMARK                         _______ _______ _______ _____ _____    ______ ____
ROOT
ATOM      1  C   UNL     1       3.585   7.724  17.488  0.00  0.00    +0.000 C 
ENDROOT
BRANCH   1   2
ATOM      2  C   UNL     1       2.712   6.862  18.374  0.00  0.00    +0.000 C 
ATOM      3  O   UNL     1       1.884   7.387  19.113  0.00  0.00    +0.000 OA
ATOM      4  N   UNL     1       3.001   5.511  18.284  0.00  0.00    +0.000 N 
ATOM      5  H   UNL     1       3.820   5.244  17.754  0.00  0.00    +0.000 HD
BRANCH   4   6
ATOM      6  C   UNL     1       2.361   4.478  19.005  0.00  0.00    +0.000 A 
ATOM      7  C   UNL     1       1.365   3.667  18.452  0.00  0.00    +0.000 A 
ATOM      8  C   UNL     1       0.705   2.712  19.231  0.00  0.00    +0.000 A 
ATOM      9  C   UNL     1       1.040   2.553  20.571  0.00  0.00    +0.000 A 
ATOM     10  C   UNL     1       2.058   3.332  21.112  0.00  0.00    +0.000 A 
ATOM     11  C   UNL     1       2.733   4.275  20.338  0.00  0.00    +0.000 A 
BRANCH  10  12
ATOM     12  O   UNL     1       2.412   3.213  22.425  0.00  0.00    +0.000 OA
ATOM     13  H   UNL     1       3.349   3.457  22.512  0.00  0.00    +0.000 HD
ENDBRANCH  10  12
ENDBRANCH   4   6
ENDBRANCH   1   2
BRANCH   1  14
ATOM     14  C   UNL     1       4.930   7.053  17.223  0.00  0.00    +0.000 C 
BRANCH  14  15
ATOM     15  C   UNL     1       5.033   6.603  15.766  0.00  0.00    +0.000 C 
BRANCH  15  16
ATOM     16  C   UNL     1       4.922   5.088  15.630  0.00  0.00    +0.000 C 
BRANCH  16  17
ATOM     17  P   UNL     1       6.610   4.226  15.785  0.00  0.00    +0.000 P 
ATOM     18  O   UNL     1       7.661   5.332  15.597  0.00  0.00    +0.000 OA
BRANCH  17  19
ATOM     19  O   UNL     1       6.620   3.963  14.075  0.00  0.00    +0.000 OA
BRANCH  19  21
ATOM     20  C   UNL     1       7.301   4.583  11.874  0.00  0.00    +0.000 C 
ATOM     21  C   UNL     1       7.403   4.900  13.352  0.00  0.00    +0.000 C 
ENDBRANCH  19  21
ENDBRANCH  17  19
BRANCH  17  22
ATOM     22  O   UNL     1       6.600   4.490  17.494  0.00  0.00    +0.000 OA
BRANCH  22  23
ATOM     23  C   UNL     1       7.879   4.706  18.088  0.00  0.00    +0.000 C 
ATOM     24  C   UNL     1       7.768   5.812  19.115  0.00  0.00    +0.000 C 
ENDBRANCH  22  23
ENDBRANCH  17  22
ENDBRANCH  16  17
ENDBRANCH  15  16
ENDBRANCH  14  15
ENDBRANCH   1  14
TORSDOF 11
ENDMDL
MODEL 7
REMARK VINA RESULT:      -6.1      2.483      7.180
REMARK  Name = 
REMARK  13 active torsions:
REMARK  status: ('A' for Active; 'I' for Inactive)
REMARK    1  A    between atoms: C_1  and  C_2
REMARK    2  A    between atoms: C_2  and  O_3
REMARK    3  A    between atoms: O_3  and  P_4
REMARK    4  A    between atoms: P_4  and  C_6
REMARK    5  A    between atoms: P_4  and  O_20
REMARK    6  A    between atoms: C_6  and  C_7
REMARK    7  A    between atoms: C_7  and  C_8
REMARK    8  A    between atoms: C_8  and  C_9
REMARK    9  A    between atoms: C_9  and  C_10
REMARK   10  A    between atoms: N_12  and  C_13
REMARK   11  A    between atoms: C_17  and  O_18
REMARK   12  A    between atoms: O_20  and  C_21
REMARK   13  A    between atoms: C_21  and  C_22
REMARK                            x       y       z     vdW  Elec       q    Type
REMARK                         _______ _______ _______ _____ _____    ______ ____
ROOT
ATOM      1  C   UNL     1       6.982   6.420  17.674  0.00  0.00    +0.000 C 
ENDROOT
BRANCH   1   2
ATOM      2  C   UNL     1       6.556   6.143  16.249  0.00  0.00    +0.000 C 
ATOM      3  O   UNL     1       5.473   6.554  15.843  0.00  0.00    +0.000 OA
ATOM      4  N   UNL     1       7.463   5.368  15.545  0.00  0.00    +0.000 N 
ATOM      5  H   UNL     1       8.234   4.967  16.063  0.00  0.00    +0.000 HD
BRANCH   4   6
ATOM      6  C   UNL     1       7.321   4.939  14.206  0.00  0.00    +0.000 A 
ATOM      7  C   UNL     1       7.969   5.561  13.135  0.00  0.00    +0.000 A 
ATOM      8  C   UNL     1       7.734   5.151  11.819  0.00  0.00    +0.000 A 
ATOM      9  C   UNL     1       6.850   4.108  11.562  0.00  0.00    +0.000 A 
ATOM     10  C   UNL     1       6.235   3.462  12.630  0.00  0.00    +0.000 A 
ATOM     11  C   UNL     1       6.478   3.854  13.946  0.00  0.00    +0.000 A 
BRANCH  10  12
ATOM     12  O   UNL     1       5.356   2.439  12.421  0.00  0.00    +0.000 OA
ATOM     13  H   UNL     1       5.236   2.330  11.462  0.00  0.00    +0.000 HD
ENDBRANCH  10  12
ENDBRANCH   4   6
ENDBRANCH   1   2
BRANCH   1  14
ATOM     14  C   UNL     1       6.926   5.152  18.522  0.00  0.00    +0.000 C 
BRANCH  14  15
ATOM     15  C   UNL     1       5.664   5.132  19.383  0.00  0.00    +0.000 C 
BRANCH  15  16
ATOM     16  C   UNL     1       4.690   4.045  18.937  0.00  0.00    +0.000 C 
BRANCH  16  17
ATOM     17  P   UNL     1       2.885   4.646  18.956  0.00  0.00    +0.000 P 
ATOM     18  O   UNL     1       2.408   4.576  17.496  0.00  0.00    +0.000 OA
BRANCH  17  19
ATOM     19  O   UNL     1       3.432   6.262  18.671  0.00  0.00    +0.000 OA
BRANCH  19  21
ATOM     20  C   UNL     1       2.514   8.291  17.814  0.00  0.00    +0.000 C 
ATOM     21  C   UNL     1       2.448   7.256  18.918  0.00  0.00    +0.000 C 
ENDBRANCH  19  21
ENDBRANCH  17  19
BRANCH  17  22
ATOM     22  O   UNL     1       2.339   3.030  19.239  0.00  0.00    +0.000 OA
BRANCH  22  23
ATOM     23  C   UNL     1       1.388   2.881  20.292  0.00  0.00    +0.000 C 
ATOM     24  C   UNL     1       2.042   3.248  21.607  0.00  0.00    +0.000 C 
ENDBRANCH  22  23
ENDBRANCH  17  22
ENDBRANCH  16  17
ENDBRANCH  15  16
ENDBRANCH  14  15
ENDBRANCH   1  14
TORSDOF 11
ENDMDL
MODEL 8
REMARK VINA RESULT:      -6.1      1.170      1.370
REMARK  Name = 
REMARK  13 active torsions:
REMARK  status: ('A' for Active; 'I' for Inactive)
REMARK    1  A    between atoms: C_1  and  C_2
REMARK    2  A    between atoms: C_2  and  O_3
REMARK    3  A    between atoms: O_3  and  P_4
REMARK    4  A    between atoms: P_4  and  C_6
REMARK    5  A    between atoms: P_4  and  O_20
REMARK    6  A    between atoms: C_6  and  C_7
REMARK    7  A    between atoms: C_7  and  C_8
REMARK    8  A    between atoms: C_8  and  C_9
REMARK    9  A    between atoms: C_9  and  C_10
REMARK   10  A    between atoms: N_12  and  C_13
REMARK   11  A    between atoms: C_17  and  O_18
REMARK   12  A    between atoms: O_20  and  C_21
REMARK   13  A    between atoms: C_21  and  C_22
REMARK                            x       y       z     vdW  Elec       q    Type
REMARK                         _______ _______ _______ _____ _____    ______ ____
ROOT
ATOM      1  C   UNL     1       3.392   4.518  19.974  0.00  0.00    +0.000 C 
ENDROOT
BRANCH   1   2
ATOM      2  C   UNL     1       2.231   5.465  20.195  0.00  0.00    +0.000 C 
ATOM      3  O   UNL     1       1.093   5.020  20.309  0.00  0.00    +0.000 OA
ATOM      4  N   UNL     1       2.602   6.799  20.187  0.00  0.00    +0.000 N 
ATOM      5  H   UNL     1       3.552   7.017  19.918  0.00  0.00    +0.000 HD
BRANCH   4   6
ATOM      6  C   UNL     1       1.731   7.900  20.350  0.00  0.00    +0.000 A 
ATOM      7  C   UNL     1       1.020   8.140  21.530  0.00  0.00    +0.000 A 
ATOM      8  C   UNL     1       0.109   9.197  21.615  0.00  0.00    +0.000 A 
ATOM      9  C   UNL     1      -0.095  10.031  20.521  0.00  0.00    +0.000 A 
ATOM     10  C   UNL     1       0.641   9.817  19.359  0.00  0.00    +0.000 A 
ATOM     11  C   UNL     1       1.564   8.775  19.272  0.00  0.00    +0.000 A 
BRANCH  10  12
ATOM     12  O   UNL     1       0.466  10.608  18.261  0.00  0.00    +0.000 OA
ATOM     13  H   UNL     1       1.029  11.394  18.357  0.00  0.00    +0.000 HD
ENDBRANCH  10  12
ENDBRANCH   4   6
ENDBRANCH   1   2
BRANCH   1  14
ATOM     14  C   UNL     1       4.490   5.179  19.145  0.00  0.00    +0.000 C 
BRANCH  14  15
ATOM     15  C   UNL     1       4.133   5.161  17.660  0.00  0.00    +0.000 C 
BRANCH  15  16
ATOM     16  C   UNL     1       5.016   4.195  16.874  0.00  0.00    +0.000 C 
BRANCH  16  17
ATOM     17  P   UNL     1       6.168   5.100  15.662  0.00  0.00    +0.000 P 
ATOM     18  O   UNL     1       7.595   4.689  16.059  0.00  0.00    +0.000 OA
BRANCH  17  19
ATOM     19  O   UNL     1       6.271   6.427  16.767  0.00  0.00    +0.000 OA
BRANCH  19  21
ATOM     20  C   UNL     1       7.623   8.142  17.728  0.00  0.00    +0.000 C 
ATOM     21  C   UNL     1       7.593   6.727  17.187  0.00  0.00    +0.000 C 
ENDBRANCH  19  21
ENDBRANCH  17  19
BRANCH  17  22
ATOM     22  O   UNL     1       6.066   3.773  14.558  0.00  0.00    +0.000 OA
BRANCH  22  23
ATOM     23  C   UNL     1       6.568   4.027  13.247  0.00  0.00    +0.000 C 
ATOM     24  C   UNL     1       5.684   3.332  12.234  0.00  0.00    +0.000 C 
ENDBRANCH  22  23
ENDBRANCH  17  22
ENDBRANCH  16  17
ENDBRANCH  15  16
ENDBRANCH  14  15
ENDBRANCH   1  14
TORSDOF 11
ENDMDL
MODEL 9
REMARK VINA RESULT:      -6.0      1.317      3.330
REMARK  Name = 
REMARK  13 active torsions:
REMARK  status: ('A' for Active; 'I' for Inactive)
REMARK    1  A    between atoms: C_1  and  C_2
REMARK    2  A    between atoms: C_2  and  O_3
REMARK    3  A    between atoms: O_3  and  P_4
REMARK    4  A    between atoms: P_4  and  C_6
REMARK    5  A    between atoms: P_4  and  O_20
REMARK    6  A    between atoms: C_6  and  C_7
REMARK    7  A    between atoms: C_7  and  C_8
REMARK    8  A    between atoms: C_8  and  C_9
REMARK    9  A    between atoms: C_9  and  C_10
REMARK   10  A    between atoms: N_12  and  C_13
REMARK   11  A    between atoms: C_17  and  O_18
REMARK   12  A    between atoms: O_20  and  C_21
REMARK   13  A    between atoms: C_21  and  C_22
REMARK                            x       y       z     vdW  Elec       q    Type
REMARK                         _______ _______ _______ _____ _____    ______ ____
ROOT
ATOM      1  C   UNL     1       3.299   3.214  19.140  0.00  0.00    +0.000 C 
ENDROOT
BRANCH   1   2
ATOM      2  C   UNL     1       2.378   4.407  18.992  0.00  0.00    +0.000 C 
ATOM      3  O   UNL     1       1.279   4.268  18.463  0.00  0.00    +0.000 OA
ATOM      4  N   UNL     1       2.935   5.591  19.445  0.00  0.00    +0.000 N 
ATOM      5  H   UNL     1       3.913   5.576  19.704  0.00  0.00    +0.000 HD
BRANCH   4   6
ATOM      6  C   UNL     1       2.316   6.860  19.416  0.00  0.00    +0.000 A 
ATOM      7  C   UNL     1       2.307   7.678  18.282  0.00  0.00    +0.000 A 
ATOM      8  C   UNL     1       1.751   8.960  18.328  0.00  0.00    +0.000 A 
ATOM      9  C   UNL     1       1.191   9.436  19.509  0.00  0.00    +0.000 A 
ATOM     10  C   UNL     1       1.165   8.608  20.627  0.00  0.00    +0.000 A 
ATOM     11  C   UNL     1       1.702   7.322  20.585  0.00  0.00    +0.000 A 
BRANCH  10  12
ATOM     12  O   UNL     1       0.632   9.038  21.808  0.00  0.00    +0.000 OA
ATOM     13  H   UNL     1       0.269   9.930  21.672  0.00  0.00    +0.000 HD
ENDBRANCH  10  12
ENDBRANCH   4   6
ENDBRANCH   1   2
BRANCH   1  14
ATOM     14  C   UNL     1       4.655   3.484  18.494  0.00  0.00    +0.000 C 
BRANCH  14  15
ATOM     15  C   UNL     1       4.482   4.073  17.095  0.00  0.00    +0.000 C 
BRANCH  15  16
ATOM     16  C   UNL     1       5.677   3.767  16.197  0.00  0.00    +0.000 C 
BRANCH  16  17
ATOM     17  P   UNL     1       6.685   5.327  15.787  0.00  0.00    +0.000 P 
ATOM     18  O   UNL     1       5.687   6.315  15.161  0.00  0.00    +0.000 OA
BRANCH  17  19
ATOM     19  O   UNL     1       7.006   4.692  14.211  0.00  0.00    +0.000 OA
BRANCH  19  21
ATOM     20  C   UNL     1       6.333   3.445  12.291  0.00  0.00    +0.000 C 
ATOM     21  C   UNL     1       5.973   3.861  13.703  0.00  0.00    +0.000 C 
ENDBRANCH  19  21
ENDBRANCH  17  19
BRANCH  17  22
ATOM     22  O   UNL     1       6.364   5.962  17.364  0.00  0.00    +0.000 OA
BRANCH  22  23
ATOM     23  C   UNL     1       7.463   6.614  17.997  0.00  0.00    +0.000 C 
ATOM     24  C   UNL     1       7.884   5.812  19.210  0.00  0.00    +0.000 C 
ENDBRANCH  22  23
ENDBRANCH  17  22
ENDBRANCH  16  17
ENDBRANCH  15  16
ENDBRANCH  14  15
ENDBRANCH   1  14
TORSDOF 11
ENDMDL
