MODEL 1
REMARK VINA RESULT:      -8.1      0.000      0.000
REMARK  Name = 
REMARK  8 active torsions:
REMARK  status: ('A' for Active; 'I' for Inactive)
REMARK    1  A    between atoms: C_1  and  C_2
REMARK    2  A    between atoms: C_2  and  O_3
REMARK    3  A    between atoms: O_3  and  C_4
REMARK    4  A    between atoms: C_4  and  C_6
REMARK    5  A    between atoms: N_13  and  C_14
REMARK    6  A    between atoms: C_18  and  C_19
REMARK    7  A    between atoms: C_19  and  O_21
REMARK    8  A    between atoms: C_24  and  C_25
REMARK                            x       y       z     vdW  Elec       q    Type
REMARK                         _______ _______ _______ _____ _____    ______ ____
ROOT
ATOM      1  C   UNL     1       5.425   4.670  17.876  0.00  0.00    +0.000 A 
ATOM      2  S   UNL     1       4.925   3.519  19.037  0.00  0.00    +0.000 S 
ATOM      3  C   UNL     1       3.625   4.478  19.538  0.00  0.00    +0.000 A 
ATOM      4  N   UNL     1       2.824   4.033  20.517  0.00  0.00    +0.000 NA
ATOM      5  C   UNL     1       1.869   4.901  20.831  0.00  0.00    +0.000 A 
ATOM      6  N   UNL     1       1.664   6.102  20.279  0.00  0.00    +0.000 NA
ATOM      7  C   UNL     1       2.464   6.518  19.265  0.00  0.00    +0.000 A 
ATOM      8  N   UNL     1       2.199   7.762  18.661  0.00  0.00    +0.000 N 
ATOM      9  C   UNL     1       3.526   5.679  18.851  0.00  0.00    +0.000 A 
ATOM     10  C   UNL     1       4.598   5.795  17.869  0.00  0.00    +0.000 A 
ATOM     11  C   UNL     1       4.833   6.957  16.948  0.00  0.00    +0.000 C 
ATOM     12  H   UNL     1       1.998   7.638  17.675  0.00  0.00    +0.000 HD
ENDROOT
BRANCH   8  13
ATOM     13  C   UNL     1       1.514   8.838  19.253  0.00  0.00    +0.000 A 
ATOM     14  C   UNL     1       1.409  10.066  18.588  0.00  0.00    +0.000 A 
ATOM     15  C   UNL     1       0.758  11.149  19.187  0.00  0.00    +0.000 A 
ATOM     16  C   UNL     1       0.211  11.018  20.462  0.00  0.00    +0.000 A 
ATOM     17  C   UNL     1       0.324   9.805  21.151  0.00  0.00    +0.000 A 
ATOM     18  C   UNL     1       0.994   8.736  20.555  0.00  0.00    +0.000 A 
BRANCH  17  19
ATOM     19  C   UNL     1      -0.233   9.717  22.525  0.00  0.00    +0.000 C 
ATOM     20  O   UNL     1      -0.164  10.640  23.323  0.00  0.00    +0.000 OA
BRANCH  19  21
ATOM     21  O   UNL     1      -0.852   8.550  22.800  0.00  0.00    +0.000 OA
ATOM     22  H   UNL     1      -0.639   8.158  23.667  0.00  0.00    +0.000 HD
ENDBRANCH  19  21
ENDBRANCH  17  19
ENDBRANCH   8  13
BRANCH   1  23
ATOM     23  C   UNL     1       6.560   4.405  16.999  0.00  0.00    +0.000 C 
ATOM     24  O   UNL     1       7.717   4.735  17.232  0.00  0.00    +0.000 OA
BRANCH  23  25
ATOM     25  O   UNL     1       6.153   3.860  15.818  0.00  0.00    +0.000 OA
BRANCH  25  27
ATOM     26  C   UNL     1       6.045   3.831  13.440  0.00  0.00    +0.000 C 
ATOM     27  C   UNL     1       6.700   4.478  14.649  0.00  0.00    +0.000 C 
ENDBRANCH  25  27
ENDBRANCH  23  25
ENDBRANCH   1  23
TORSDOF 6
ENDMDL
MODEL 2
REMARK VINA RESULT:      -7.8      2.261      2.657
REMARK  Name = 
REMARK  8 active torsions:
REMARK  status: ('A' for Active; 'I' for Inactive)
REMARK    1  A    between atoms: C_1  and  C_2
REMARK    2  A    between atoms: C_2  and  O_3
REMARK    3  A    between atoms: O_3  and  C_4
REMARK    4  A    between atoms: C_4  and  C_6
REMARK    5  A    between atoms: N_13  and  C_14
REMARK    6  A    between atoms: C_18  and  C_19
REMARK    7  A    between atoms: C_19  and  O_21
REMARK    8  A    between atoms: C_24  and  C_25
REMARK                            x       y       z     vdW  Elec       q    Type
REMARK                         _______ _______ _______ _____ _____    ______ ____
ROOT
ATOM      1  C   UNL     1       5.468   4.954  17.335  0.00  0.00    +0.000 A 
ATOM      2  S   UNL     1       5.051   4.110  18.762  0.00  0.00    +0.000 S 
ATOM      3  C   UNL     1       3.793   5.183  19.119  0.00  0.00    +0.000 A 
ATOM      4  N   UNL     1       3.064   4.990  20.228  0.00  0.00    +0.000 NA
ATOM      5  C   UNL     1       2.137   5.924  20.399  0.00  0.00    +0.000 A 
ATOM      6  N   UNL     1       1.895   6.970  19.601  0.00  0.00    +0.000 NA
ATOM      7  C   UNL     1       2.620   7.127  18.465  0.00  0.00    +0.000 A 
ATOM      8  N   UNL     1       2.315   8.204  17.611  0.00  0.00    +0.000 N 
ATOM      9  C   UNL     1       3.647   6.195  18.183  0.00  0.00    +0.000 A 
ATOM     10  C   UNL     1       4.646   6.062  17.127  0.00  0.00    +0.000 A 
ATOM     11  C   UNL     1       4.816   6.978  15.949  0.00  0.00    +0.000 C 
ATOM     12  H   UNL     1       2.042   7.861  16.697  0.00  0.00    +0.000 HD
ENDROOT
BRANCH   8  13
ATOM     13  C   UNL     1       1.677   9.401  17.986  0.00  0.00    +0.000 A 
ATOM     14  C   UNL     1       0.285   9.448  18.130  0.00  0.00    +0.000 A 
ATOM     15  C   UNL     1      -0.356  10.643  18.471  0.00  0.00    +0.000 A 
ATOM     16  C   UNL     1       0.386  11.806  18.663  0.00  0.00    +0.000 A 
ATOM     17  C   UNL     1       1.777  11.782  18.503  0.00  0.00    +0.000 A 
ATOM     18  C   UNL     1       2.407  10.591  18.142  0.00  0.00    +0.000 A 
BRANCH  17  19
ATOM     19  C   UNL     1       2.530  13.051  18.673  0.00  0.00    +0.000 C 
ATOM     20  O   UNL     1       2.818  13.503  19.772  0.00  0.00    +0.000 OA
BRANCH  19  21
ATOM     21  O   UNL     1       2.899  13.638  17.516  0.00  0.00    +0.000 OA
ATOM     22  H   UNL     1       2.899  14.613  17.524  0.00  0.00    +0.000 HD
ENDBRANCH  19  21
ENDBRANCH  17  19
ENDBRANCH   8  13
BRANCH   1  23
ATOM     23  C   UNL     1       6.536   4.473  16.466  0.00  0.00    +0.000 C 
ATOM     24  O   UNL     1       7.728   4.704  16.628  0.00  0.00    +0.000 OA
BRANCH  23  25
ATOM     25  O   UNL     1       6.030   3.843  15.367  0.00  0.00    +0.000 OA
BRANCH  25  27
ATOM     26  C   UNL     1       5.764   3.650  13.010  0.00  0.00    +0.000 C 
ATOM     27  C   UNL     1       6.612   4.244  14.123  0.00  0.00    +0.000 C 
ENDBRANCH  25  27
ENDBRANCH  23  25
ENDBRANCH   1  23
TORSDOF 6
ENDMDL
MODEL 3
REMARK VINA RESULT:      -7.7      1.530      2.029
REMARK  Name = 
REMARK  8 active torsions:
REMARK  status: ('A' for Active; 'I' for Inactive)
REMARK    1  A    between atoms: C_1  and  C_2
REMARK    2  A    between atoms: C_2  and  O_3
REMARK    3  A    between atoms: O_3  and  C_4
REMARK    4  A    between atoms: C_4  and  C_6
REMARK    5  A    between atoms: N_13  and  C_14
REMARK    6  A    between atoms: C_18  and  C_19
REMARK    7  A    between atoms: C_19  and  O_21
REMARK    8  A    between atoms: C_24  and  C_25
REMARK                            x       y       z     vdW  Elec       q    Type
REMARK                         _______ _______ _______ _____ _____    ______ ____
ROOT
ATOM      1  C   UNL     1       5.413   4.595  17.957  0.00  0.00    +0.000 A 
ATOM      2  S   UNL     1       4.905   3.346  19.008  0.00  0.00    +0.000 S 
ATOM      3  C   UNL     1       3.608   4.263  19.592  0.00  0.00    +0.000 A 
ATOM      4  N   UNL     1       2.803   3.735  20.526  0.00  0.00    +0.000 NA
ATOM      5  C   UNL     1       1.853   4.575  20.915  0.00  0.00    +0.000 A 
ATOM      6  N   UNL     1       1.654   5.822  20.474  0.00  0.00    +0.000 NA
ATOM      7  C   UNL     1       2.459   6.325  19.503  0.00  0.00    +0.000 A 
ATOM      8  N   UNL     1       2.201   7.620  19.014  0.00  0.00    +0.000 N 
ATOM      9  C   UNL     1       3.517   5.521  19.017  0.00  0.00    +0.000 A 
ATOM     10  C   UNL     1       4.592   5.720  18.051  0.00  0.00    +0.000 A 
ATOM     11  C   UNL     1       4.835   6.960  17.240  0.00  0.00    +0.000 C 
ATOM     12  H   UNL     1       2.001   7.587  18.021  0.00  0.00    +0.000 HD
ENDROOT
BRANCH   8  13
ATOM     13  C   UNL     1       1.520   8.642  19.701  0.00  0.00    +0.000 A 
ATOM     14  C   UNL     1       1.404   8.603  21.096  0.00  0.00    +0.000 A 
ATOM     15  C   UNL     1       0.700   9.599  21.780  0.00  0.00    +0.000 A 
ATOM     16  C   UNL     1       0.097  10.639  21.077  0.00  0.00    +0.000 A 
ATOM     17  C   UNL     1       0.185  10.683  19.680  0.00  0.00    +0.000 A 
ATOM     18  C   UNL     1       0.871   9.674  19.003  0.00  0.00    +0.000 A 
BRANCH  17  19
ATOM     19  C   UNL     1      -0.507  11.783  18.961  0.00  0.00    +0.000 C 
ATOM     20  O   UNL     1      -1.684  12.055  19.151  0.00  0.00    +0.000 OA
BRANCH  19  21
ATOM     21  O   UNL     1       0.281  12.475  18.114  0.00  0.00    +0.000 OA
ATOM     22  H   UNL     1       1.024  12.950  18.528  0.00  0.00    +0.000 HD
ENDBRANCH  19  21
ENDBRANCH  17  19
ENDBRANCH   8  13
BRANCH   1  23
ATOM     23  C   UNL     1       6.548   4.405  17.061  0.00  0.00    +0.000 C 
ATOM     24  O   UNL     1       7.694   4.773  17.295  0.00  0.00    +0.000 OA
BRANCH  23  25
ATOM     25  O   UNL     1       6.151   3.884  15.866  0.00  0.00    +0.000 OA
BRANCH  25  27
ATOM     26  C   UNL     1       6.156   3.822  13.487  0.00  0.00    +0.000 C 
ATOM     27  C   UNL     1       6.652   4.569  14.714  0.00  0.00    +0.000 C 
ENDBRANCH  25  27
ENDBRANCH  23  25
ENDBRANCH   1  23
TORSDOF 6
ENDMDL
MODEL 4
REMARK VINA RESULT:      -7.5      0.842      1.659
REMARK  Name = 
REMARK  8 active torsions:
REMARK  status: ('A' for Active; 'I' for Inactive)
REMARK    1  A    between atoms: C_1  and  C_2
REMARK    2  A    between atoms: C_2  and  O_3
REMARK    3  A    between atoms: O_3  and  C_4
REMARK    4  A    between atoms: C_4  and  C_6
REMARK    5  A    between atoms: N_13  and  C_14
REMARK    6  A    between atoms: C_18  and  C_19
REMARK    7  A    between atoms: C_19  and  O_21
REMARK    8  A    between atoms: C_24  and  C_25
REMARK                            x       y       z     vdW  Elec       q    Type
REMARK                         _______ _______ _______ _____ _____    ______ ____
ROOT
ATOM      1  C   UNL     1       5.341   4.613  17.636  0.00  0.00    +0.000 A 
ATOM      2  S   UNL     1       4.914   3.409  18.771  0.00  0.00    +0.000 S 
ATOM      3  C   UNL     1       3.635   4.332  19.383  0.00  0.00    +0.000 A 
ATOM      4  N   UNL     1       2.892   3.837  20.384  0.00  0.00    +0.000 NA
ATOM      5  C   UNL     1       1.949   4.681  20.785  0.00  0.00    +0.000 A 
ATOM      6  N   UNL     1       1.704   5.902  20.298  0.00  0.00    +0.000 NA
ATOM      7  C   UNL     1       2.446   6.370  19.261  0.00  0.00    +0.000 A 
ATOM      8  N   UNL     1       2.138   7.636  18.727  0.00  0.00    +0.000 N 
ATOM      9  C   UNL     1       3.490   5.560  18.755  0.00  0.00    +0.000 A 
ATOM     10  C   UNL     1       4.506   5.729  17.723  0.00  0.00    +0.000 A 
ATOM     11  C   UNL     1       4.682   6.932  16.842  0.00  0.00    +0.000 C 
ATOM     12  H   UNL     1       1.885   7.552  17.749  0.00  0.00    +0.000 HD
ENDROOT
BRANCH   8  13
ATOM     13  C   UNL     1       1.478   8.679  19.402  0.00  0.00    +0.000 A 
ATOM     14  C   UNL     1       1.316   9.929  18.791  0.00  0.00    +0.000 A 
ATOM     15  C   UNL     1       0.690  10.978  19.470  0.00  0.00    +0.000 A 
ATOM     16  C   UNL     1       0.226  10.792  20.771  0.00  0.00    +0.000 A 
ATOM     17  C   UNL     1       0.397   9.556  21.405  0.00  0.00    +0.000 A 
ATOM     18  C   UNL     1       1.043   8.521  20.728  0.00  0.00    +0.000 A 
BRANCH  17  19
ATOM     19  C   UNL     1      -0.071   9.408  22.807  0.00  0.00    +0.000 C 
ATOM     20  O   UNL     1       0.419  10.036  23.734  0.00  0.00    +0.000 OA
BRANCH  19  21
ATOM     21  O   UNL     1      -1.104   8.554  22.961  0.00  0.00    +0.000 OA
ATOM     22  H   UNL     1      -0.920   7.628  22.718  0.00  0.00    +0.000 HD
ENDBRANCH  19  21
ENDBRANCH  17  19
ENDBRANCH   8  13
BRANCH   1  23
ATOM     23  C   UNL     1       6.429   4.398  16.689  0.00  0.00    +0.000 C 
ATOM     24  O   UNL     1       6.295   3.933  15.562  0.00  0.00    +0.000 OA
BRANCH  23  25
ATOM     25  O   UNL     1       7.639   4.652  17.262  0.00  0.00    +0.000 OA
BRANCH  25  27
ATOM     26  C   UNL     1       7.989   5.724  19.358  0.00  0.00    +0.000 C 
ATOM     27  C   UNL     1       7.757   5.941  17.873  0.00  0.00    +0.000 C 
ENDBRANCH  25  27
ENDBRANCH  23  25
ENDBRANCH   1  23
TORSDOF 6
ENDMDL
MODEL 5
REMARK VINA RESULT:      -7.4      1.219      1.279
REMARK  Name = 
REMARK  8 active torsions:
REMARK  status: ('A' for Active; 'I' for Inactive)
REMARK    1  A    between atoms: C_1  and  C_2
REMARK    2  A    between atoms: C_2  and  O_3
REMARK    3  A    between atoms: O_3  and  C_4
REMARK    4  A    between atoms: C_4  and  C_6
REMARK    5  A    between atoms: N_13  and  C_14
REMARK    6  A    between atoms: C_18  and  C_19
REMARK    7  A    between atoms: C_19  and  O_21
REMARK    8  A    between atoms: C_24  and  C_25
REMARK                            x       y       z     vdW  Elec       q    Type
REMARK                         _______ _______ _______ _____ _____    ______ ____
ROOT
ATOM      1  C   UNL     1       5.739   4.525  17.075  0.00  0.00    +0.000 A 
ATOM      2  S   UNL     1       4.911   3.130  17.615  0.00  0.00    +0.000 S 
ATOM      3  C   UNL     1       3.552   4.025  18.078  0.00  0.00    +0.000 A 
ATOM      4  N   UNL     1       2.504   3.387  18.620  0.00  0.00    +0.000 NA
ATOM      5  C   UNL     1       1.526   4.215  18.966  0.00  0.00    +0.000 A 
ATOM      6  N   UNL     1       1.512   5.545  18.823  0.00  0.00    +0.000 NA
ATOM      7  C   UNL     1       2.568   6.166  18.240  0.00  0.00    +0.000 A 
ATOM      8  N   UNL     1       2.512   7.560  18.050  0.00  0.00    +0.000 N 
ATOM      9  C   UNL     1       3.678   5.384  17.839  0.00  0.00    +0.000 A 
ATOM     10  C   UNL     1       4.978   5.681  17.249  0.00  0.00    +0.000 A 
ATOM     11  C   UNL     1       5.487   7.041  16.866  0.00  0.00    +0.000 C 
ATOM     12  H   UNL     1       2.581   7.784  17.064  0.00  0.00    +0.000 HD
ENDROOT
BRANCH   8  13
ATOM     13  C   UNL     1       1.723   8.463  18.787  0.00  0.00    +0.000 A 
ATOM     14  C   UNL     1       1.006   9.475  18.136  0.00  0.00    +0.000 A 
ATOM     15  C   UNL     1       0.248  10.394  18.866  0.00  0.00    +0.000 A 
ATOM     16  C   UNL     1       0.204  10.318  20.257  0.00  0.00    +0.000 A 
ATOM     17  C   UNL     1       0.932   9.326  20.926  0.00  0.00    +0.000 A 
ATOM     18  C   UNL     1       1.703   8.426  20.191  0.00  0.00    +0.000 A 
BRANCH  17  19
ATOM     19  C   UNL     1       0.895   9.303  22.411  0.00  0.00    +0.000 C 
ATOM     20  O   UNL     1      -0.149   9.240  23.043  0.00  0.00    +0.000 OA
BRANCH  19  21
ATOM     21  O   UNL     1       2.110   9.321  22.997  0.00  0.00    +0.000 OA
ATOM     22  H   UNL     1       2.105   9.269  23.970  0.00  0.00    +0.000 HD
ENDBRANCH  19  21
ENDBRANCH  17  19
ENDBRANCH   8  13
BRANCH   1  23
ATOM     23  C   UNL     1       7.061   4.422  16.467  0.00  0.00    +0.000 C 
ATOM     24  O   UNL     1       8.107   4.265  17.086  0.00  0.00    +0.000 OA
BRANCH  23  25
ATOM     25  O   UNL     1       7.005   4.659  15.126  0.00  0.00    +0.000 OA
BRANCH  25  27
ATOM     26  C   UNL     1       5.417   4.274  13.395  0.00  0.00    +0.000 C 
ATOM     27  C   UNL     1       6.396   3.618  14.355  0.00  0.00    +0.000 C 
ENDBRANCH  25  27
ENDBRANCH  23  25
ENDBRANCH   1  23
TORSDOF 6
ENDMDL
MODEL 6
REMARK VINA RESULT:      -7.4      1.810      2.231
REMARK  Name = 
REMARK  8 active torsions:
REMARK  status: ('A' for Active; 'I' for Inactive)
REMARK    1  A    between atoms: C_1  and  C_2
REMARK    2  A    between atoms: C_2  and  O_3
REMARK    3  A    between atoms: O_3  and  C_4
REMARK    4  A    between atoms: C_4  and  C_6
REMARK    5  A    between atoms: N_13  and  C_14
REMARK    6  A    between atoms: C_18  and  C_19
REMARK    7  A    between atoms: C_19  and  O_21
REMARK    8  A    between atoms: C_24  and  C_25
REMARK                            x       y       z     vdW  Elec       q    Type
REMARK                         _______ _______ _______ _____ _____    ______ ____
ROOT
ATOM      1  C   UNL     1       5.565   4.619  16.538  0.00  0.00    +0.000 A 
ATOM      2  S   UNL     1       4.747   3.161  16.895  0.00  0.00    +0.000 S 
ATOM      3  C   UNL     1       3.458   3.976  17.626  0.00  0.00    +0.000 A 
ATOM      4  N   UNL     1       2.441   3.266  18.138  0.00  0.00    +0.000 NA
ATOM      5  C   UNL     1       1.520   4.031  18.709  0.00  0.00    +0.000 A 
ATOM      6  N   UNL     1       1.531   5.365  18.804  0.00  0.00    +0.000 NA
ATOM      7  C   UNL     1       2.551   6.067  18.249  0.00  0.00    +0.000 A 
ATOM      8  N   UNL     1       2.518   7.474  18.313  0.00  0.00    +0.000 N 
ATOM      9  C   UNL     1       3.600   5.355  17.620  0.00  0.00    +0.000 A 
ATOM     10  C   UNL     1       4.854   5.736  16.980  0.00  0.00    +0.000 A 
ATOM     11  C   UNL     1       5.366   7.136  16.799  0.00  0.00    +0.000 C 
ATOM     12  H   UNL     1       2.510   7.868  17.379  0.00  0.00    +0.000 HD
ENDROOT
BRANCH   8  13
ATOM     13  C   UNL     1       1.820   8.241  19.264  0.00  0.00    +0.000 A 
ATOM     14  C   UNL     1       1.747   7.822  20.598  0.00  0.00    +0.000 A 
ATOM     15  C   UNL     1       1.027   8.564  21.539  0.00  0.00    +0.000 A 
ATOM     16  C   UNL     1       0.365   9.728  21.155  0.00  0.00    +0.000 A 
ATOM     17  C   UNL     1       0.409  10.151  19.821  0.00  0.00    +0.000 A 
ATOM     18  C   UNL     1       1.112   9.393  18.884  0.00  0.00    +0.000 A 
BRANCH  17  19
ATOM     19  C   UNL     1      -0.344  11.373  19.441  0.00  0.00    +0.000 C 
ATOM     20  O   UNL     1      -1.015  12.008  20.241  0.00  0.00    +0.000 OA
BRANCH  19  21
ATOM     21  O   UNL     1      -0.194  11.740  18.152  0.00  0.00    +0.000 OA
ATOM     22  H   UNL     1       0.170  12.633  18.011  0.00  0.00    +0.000 HD
ENDBRANCH  19  21
ENDBRANCH  17  19
ENDBRANCH   8  13
BRANCH   1  23
ATOM     23  C   UNL     1       6.828   4.610  15.807  0.00  0.00    +0.000 C 
ATOM     24  O   UNL     1       7.933   4.471  16.320  0.00  0.00    +0.000 OA
BRANCH  23  25
ATOM     25  O   UNL     1       6.637   4.911  14.492  0.00  0.00    +0.000 OA
BRANCH  25  27
ATOM     26  C   UNL     1       6.841   4.032  12.290  0.00  0.00    +0.000 C 
ATOM     27  C   UNL     1       6.249   3.805  13.671  0.00  0.00    +0.000 C 
ENDBRANCH  25  27
ENDBRANCH  23  25
ENDBRANCH   1  23
TORSDOF 6
ENDMDL
MODEL 7
REMARK VINA RESULT:      -7.3      1.626      2.520
REMARK  Name = 
REMARK  8 active torsions:
REMARK  status: ('A' for Active; 'I' for Inactive)
REMARK    1  A    between atoms: C_1  and  C_2
REMARK    2  A    between atoms: C_2  and  O_3
REMARK    3  A    between atoms: O_3  and  C_4
REMARK    4  A    between atoms: C_4  and  C_6
REMARK    5  A    between atoms: N_13  and  C_14
REMARK    6  A    between atoms: C_18  and  C_19
REMARK    7  A    between atoms: C_19  and  O_21
REMARK    8  A    between atoms: C_24  and  C_25
REMARK                            x       y       z     vdW  Elec       q    Type
REMARK                         _______ _______ _______ _____ _____    ______ ____
ROOT
ATOM      1  C   UNL     1       5.119   4.564  17.614  0.00  0.00    +0.000 A 
ATOM      2  S   UNL     1       4.729   3.307  18.704  0.00  0.00    +0.000 S 
ATOM      3  C   UNL     1       3.510   4.221  19.439  0.00  0.00    +0.000 A 
ATOM      4  N   UNL     1       2.814   3.686  20.453  0.00  0.00    +0.000 NA
ATOM      5  C   UNL     1       1.916   4.524  20.955  0.00  0.00    +0.000 A 
ATOM      6  N   UNL     1       1.673   5.776  20.550  0.00  0.00    +0.000 NA
ATOM      7  C   UNL     1       2.364   6.285  19.499  0.00  0.00    +0.000 A 
ATOM      8  N   UNL     1       2.057   7.586  19.054  0.00  0.00    +0.000 N 
ATOM      9  C   UNL     1       3.359   5.484  18.889  0.00  0.00    +0.000 A 
ATOM     10  C   UNL     1       4.318   5.690  17.810  0.00  0.00    +0.000 A 
ATOM     11  C   UNL     1       4.471   6.937  16.987  0.00  0.00    +0.000 C 
ATOM     12  H   UNL     1       1.746   7.562  18.089  0.00  0.00    +0.000 HD
ENDROOT
BRANCH   8  13
ATOM     13  C   UNL     1       1.461   8.603  19.822  0.00  0.00    +0.000 A 
ATOM     14  C   UNL     1       1.451   8.522  21.220  0.00  0.00    +0.000 A 
ATOM     15  C   UNL     1       0.831   9.513  21.987  0.00  0.00    +0.000 A 
ATOM     16  C   UNL     1       0.207  10.592  21.364  0.00  0.00    +0.000 A 
ATOM     17  C   UNL     1       0.189  10.679  19.967  0.00  0.00    +0.000 A 
ATOM     18  C   UNL     1       0.791   9.674  19.208  0.00  0.00    +0.000 A 
BRANCH  17  19
ATOM     19  C   UNL     1      -0.523  11.820  19.338  0.00  0.00    +0.000 C 
ATOM     20  O   UNL     1      -1.587  12.247  19.763  0.00  0.00    +0.000 OA
BRANCH  19  21
ATOM     21  O   UNL     1       0.121  12.366  18.286  0.00  0.00    +0.000 OA
ATOM     22  H   UNL     1       0.713  13.110  18.499  0.00  0.00    +0.000 HD
ENDBRANCH  19  21
ENDBRANCH  17  19
ENDBRANCH   8  13
BRANCH   1  23
ATOM     23  C   UNL     1       6.146   4.379  16.594  0.00  0.00    +0.000 C 
ATOM     24  O   UNL     1       6.076   3.581  15.667  0.00  0.00    +0.000 OA
BRANCH  23  25
ATOM     25  O   UNL     1       7.259   5.114  16.877  0.00  0.00    +0.000 OA
BRANCH  25  27
ATOM     26  C   UNL     1       7.922   6.123  18.928  0.00  0.00    +0.000 C 
ATOM     27  C   UNL     1       7.866   4.825  18.141  0.00  0.00    +0.000 C 
ENDBRANCH  25  27
ENDBRANCH  23  25
ENDBRANCH   1  23
TORSDOF 6
ENDMDL
MODEL 8
REMARK VINA RESULT:      -7.3      1.998      2.352
REMARK  Name = 
REMARK  8 active torsions:
REMARK  status: ('A' for Active; 'I' for Inactive)
REMARK    1  A    between atoms: C_1  and  C_2
REMARK    2  A    between atoms: C_2  and  O_3
REMARK    3  A    between atoms: O_3  and  C_4
REMARK    4  A    between atoms: C_4  and  C_6
REMARK    5  A    between atoms: N_13  and  C_14
REMARK    6  A    between atoms: C_18  and  C_19
REMARK    7  A    between atoms: C_19  and  O_21
REMARK    8  A    between atoms: C_24  and  C_25
REMARK                            x       y       z     vdW  Elec       q    Type
REMARK                         _______ _______ _______ _____ _____    ______ ____
ROOT
ATOM      1  C   UNL     1       5.475   4.991  17.562  0.00  0.00    +0.000 A 
ATOM      2  S   UNL     1       5.090   3.963  18.873  0.00  0.00    +0.000 S 
ATOM      3  C   UNL     1       3.740   4.889  19.300  0.00  0.00    +0.000 A 
ATOM      4  N   UNL     1       3.001   4.517  20.356  0.00  0.00    +0.000 NA
ATOM      5  C   UNL     1       1.997   5.352  20.595  0.00  0.00    +0.000 A 
ATOM      6  N   UNL     1       1.691   6.458  19.908  0.00  0.00    +0.000 NA
ATOM      7  C   UNL     1       2.431   6.796  18.822  0.00  0.00    +0.000 A 
ATOM      8  N   UNL     1       2.062   7.935  18.079  0.00  0.00    +0.000 N 
ATOM      9  C   UNL     1       3.538   5.985  18.475  0.00  0.00    +0.000 A 
ATOM     10  C   UNL     1       4.571   6.048  17.447  0.00  0.00    +0.000 A 
ATOM     11  C   UNL     1       4.697   7.099  16.382  0.00  0.00    +0.000 C 
ATOM     12  H   UNL     1       1.842   7.675  17.125  0.00  0.00    +0.000 HD
ENDROOT
BRANCH   8  13
ATOM     13  C   UNL     1       1.319   9.029  18.560  0.00  0.00    +0.000 A 
ATOM     14  C   UNL     1       1.685   9.666  19.753  0.00  0.00    +0.000 A 
ATOM     15  C   UNL     1       0.931  10.732  20.252  0.00  0.00    +0.000 A 
ATOM     16  C   UNL     1      -0.202  11.168  19.568  0.00  0.00    +0.000 A 
ATOM     17  C   UNL     1      -0.595  10.530  18.386  0.00  0.00    +0.000 A 
ATOM     18  C   UNL     1       0.150   9.453  17.906  0.00  0.00    +0.000 A 
BRANCH  17  19
ATOM     19  C   UNL     1      -1.833  10.994  17.709  0.00  0.00    +0.000 C 
ATOM     20  O   UNL     1      -2.934  10.522  17.953  0.00  0.00    +0.000 OA
BRANCH  19  21
ATOM     21  O   UNL     1      -1.643  12.003  16.834  0.00  0.00    +0.000 OA
ATOM     22  H   UNL     1      -1.252  11.745  15.978  0.00  0.00    +0.000 HD
ENDBRANCH  19  21
ENDBRANCH  17  19
ENDBRANCH   8  13
BRANCH   1  23
ATOM     23  C   UNL     1       6.600   4.694  16.683  0.00  0.00    +0.000 C 
ATOM     24  O   UNL     1       7.710   5.209  16.768  0.00  0.00    +0.000 OA
BRANCH  23  25
ATOM     25  O   UNL     1       6.226   3.869  15.665  0.00  0.00    +0.000 OA
BRANCH  25  27
ATOM     26  C   UNL     1       6.227   3.645  13.296  0.00  0.00    +0.000 C 
ATOM     27  C   UNL     1       5.833   4.536  14.462  0.00  0.00    +0.000 C 
ENDBRANCH  25  27
ENDBRANCH  23  25
ENDBRANCH   1  23
TORSDOF 6
ENDMDL
MODEL 9
REMARK VINA RESULT:      -7.3      1.119      1.390
REMARK  Name = 
REMARK  8 active torsions:
REMARK  status: ('A' for Active; 'I' for Inactive)
REMARK    1  A    between atoms: C_1  and  C_2
REMARK    2  A    between atoms: C_2  and  O_3
REMARK    3  A    between atoms: O_3  and  C_4
REMARK    4  A    between atoms: C_4  and  C_6
REMARK    5  A    between atoms: N_13  and  C_14
REMARK    6  A    between atoms: C_18  and  C_19
REMARK    7  A    between atoms: C_19  and  O_21
REMARK    8  A    between atoms: C_24  and  C_25
REMARK                            x       y       z     vdW  Elec       q    Type
REMARK                         _______ _______ _______ _____ _____    ______ ____
ROOT
ATOM      1  C   UNL     1       5.788   4.864  16.399  0.00  0.00    +0.000 A 
ATOM      2  S   UNL     1       5.695   3.706  17.654  0.00  0.00    +0.000 S 
ATOM      3  C   UNL     1       4.448   4.542  18.434  0.00  0.00    +0.000 A 
ATOM      4  N   UNL     1       3.946   4.049  19.576  0.00  0.00    +0.000 NA
ATOM      5  C   UNL     1       3.001   4.823  20.094  0.00  0.00    +0.000 A 
ATOM      6  N   UNL     1       2.545   5.977  19.595  0.00  0.00    +0.000 NA
ATOM      7  C   UNL     1       3.043   6.440  18.421  0.00  0.00    +0.000 A 
ATOM      8  N   UNL     1       2.513   7.630  17.884  0.00  0.00    +0.000 N 
ATOM      9  C   UNL     1       4.066   5.702  17.779  0.00  0.00    +0.000 A 
ATOM     10  C   UNL     1       4.865   5.896  16.575  0.00  0.00    +0.000 A 
ATOM     11  C   UNL     1       4.756   7.046  15.615  0.00  0.00    +0.000 C 
ATOM     12  H   UNL     1       2.106   7.454  16.973  0.00  0.00    +0.000 HD
ENDROOT
BRANCH   8  13
ATOM     13  C   UNL     1       1.870   8.649  18.610  0.00  0.00    +0.000 A 
ATOM     14  C   UNL     1       1.696   9.920  18.049  0.00  0.00    +0.000 A 
ATOM     15  C   UNL     1       1.087  10.945  18.779  0.00  0.00    +0.000 A 
ATOM     16  C   UNL     1       0.652  10.713  20.082  0.00  0.00    +0.000 A 
ATOM     17  C   UNL     1       0.836   9.454  20.668  0.00  0.00    +0.000 A 
ATOM     18  C   UNL     1       1.464   8.443  19.940  0.00  0.00    +0.000 A 
BRANCH  17  19
ATOM     19  C   UNL     1       0.399   9.257  22.073  0.00  0.00    +0.000 C 
ATOM     20  O   UNL     1      -0.669   8.737  22.363  0.00  0.00    +0.000 OA
BRANCH  19  21
ATOM     21  O   UNL     1       1.293   9.666  22.996  0.00  0.00    +0.000 OA
ATOM     22  H   UNL     1       2.073   9.091  23.105  0.00  0.00    +0.000 HD
ENDBRANCH  19  21
ENDBRANCH  17  19
ENDBRANCH   8  13
BRANCH   1  23
ATOM     23  C   UNL     1       6.714   4.688  15.286  0.00  0.00    +0.000 C 
ATOM     24  O   UNL     1       7.628   5.457  15.008  0.00  0.00    +0.000 OA
BRANCH  23  25
ATOM     25  O   UNL     1       6.353   3.630  14.507  0.00  0.00    +0.000 OA
BRANCH  25  27
ATOM     26  C   UNL     1       5.243   3.472  12.408  0.00  0.00    +0.000 C 
ATOM     27  C   UNL     1       6.549   3.820  13.103  0.00  0.00    +0.000 C 
ENDBRANCH  25  27
ENDBRANCH  23  25
ENDBRANCH   1  23
TORSDOF 6
ENDMDL
