MODEL 1
REMARK VINA RESULT:      -7.5      0.000      0.000
REMARK  Name = 
REMARK  7 active torsions:
REMARK  status: ('A' for Active; 'I' for Inactive)
REMARK    1  A    between atoms: C_2  and  C_3
REMARK    2  A    between atoms: C_6  and  C_7
REMARK    3  A    between atoms: C_7  and  N_8
REMARK    4  A    between atoms: C_11  and  O_12
REMARK    5  A    between atoms: O_12  and  C_13
REMARK    6  A    between atoms: C_16  and  N_17
REMARK    7  A    between atoms: C_18  and  C_20
REMARK                            x       y       z     vdW  Elec       q    Type
REMARK                         _______ _______ _______ _____ _____    ______ ____
ROOT
ATOM      1  O   UNL     1       2.440   7.051  19.089  0.00  0.00    +0.000 OA
ENDROOT
BRANCH   1   5
ATOM      2  N   UNL     1       4.723   4.495  18.287  0.00  0.00    +0.000 NA
ATOM      3  C   UNL     1       4.612   5.053  19.633  0.00  0.00    +0.000 C 
ATOM      4  C   UNL     1       3.201   4.944  20.184  0.00  0.00    +0.000 C 
ATOM      5  C   UNL     1       2.187   5.642  19.270  0.00  0.00    +0.000 C 
ATOM      6  C   UNL     1       2.286   4.973  17.898  0.00  0.00    +0.000 C 
ATOM      7  C   UNL     1       3.718   5.002  17.347  0.00  0.00    +0.000 C 
BRANCH   2   8
ATOM      8  C   UNL     1       6.099   4.574  17.762  0.00  0.00    +0.000 C 
BRANCH   8  12
ATOM      9  C   UNL     1       8.134   8.393  18.166  0.00  0.00    +0.000 A 
ATOM     10  C   UNL     1       7.144   8.221  17.195  0.00  0.00    +0.000 A 
ATOM     11  C   UNL     1       6.494   6.989  17.068  0.00  0.00    +0.000 A 
ATOM     12  C   UNL     1       6.827   5.905  17.900  0.00  0.00    +0.000 A 
ATOM     13  C   UNL     1       7.828   6.088  18.863  0.00  0.00    +0.000 A 
ATOM     14  C   UNL     1       8.477   7.324  18.995  0.00  0.00    +0.000 A 
BRANCH   9  16
ATOM     15  N   UNL     1       9.326  10.696  18.414  0.00  0.00    +0.000 NA
ATOM     16  C   UNL     1       8.794   9.671  18.309  0.00  0.00    +0.000 C 
ENDBRANCH   9  16
ENDBRANCH   8  12
ENDBRANCH   2   8
ENDBRANCH   1   5
BRANCH   1  17
ATOM     17  C   UNL     1       1.633   7.907  19.787  0.00  0.00    +0.000 A 
ATOM     18  C   UNL     1       1.199   7.668  21.083  0.00  0.00    +0.000 A 
ATOM     19  C   UNL     1       0.431   8.603  21.768  0.00  0.00    +0.000 A 
ATOM     20  C   UNL     1       0.064   9.804  21.173  0.00  0.00    +0.000 A 
ATOM     21  C   UNL     1       0.483  10.050  19.859  0.00  0.00    +0.000 A 
ATOM     22  C   UNL     1       1.276   9.111  19.174  0.00  0.00    +0.000 A 
BRANCH  20  23
ATOM     23  N   UNL     1      -0.694  10.783  21.848  0.00  0.00    +0.000 N 
ATOM     24  C   UNL     1      -0.332  12.106  22.082  0.00  0.00    +0.000 C 
ATOM     25  O   UNL     1       0.745  12.603  21.767  0.00  0.00    +0.000 OA
ATOM     26  H   UNL     1      -1.611  10.509  22.175  0.00  0.00    +0.000 HD
BRANCH  24  27
ATOM     27  C   UNL     1      -1.340  12.923  22.750  0.00  0.00    +0.000 A 
ATOM     28  C   UNL     1      -2.609  12.504  23.111  0.00  0.00    +0.000 A 
ATOM     29  C   UNL     1      -3.356  13.521  23.767  0.00  0.00    +0.000 A 
ATOM     30  C   UNL     1      -2.635  14.687  23.885  0.00  0.00    +0.000 A 
ATOM     31  S   UNL     1      -1.074  14.553  23.200  0.00  0.00    +0.000 S 
ENDBRANCH  24  27
ENDBRANCH  20  23
ENDBRANCH   1  17
TORSDOF 7
ENDMDL
MODEL 2
REMARK VINA RESULT:      -7.3      1.103      1.113
REMARK  Name = 
REMARK  7 active torsions:
REMARK  status: ('A' for Active; 'I' for Inactive)
REMARK    1  A    between atoms: C_2  and  C_3
REMARK    2  A    between atoms: C_6  and  C_7
REMARK    3  A    between atoms: C_7  and  N_8
REMARK    4  A    between atoms: C_11  and  O_12
REMARK    5  A    between atoms: O_12  and  C_13
REMARK    6  A    between atoms: C_16  and  N_17
REMARK    7  A    between atoms: C_18  and  C_20
REMARK                            x       y       z     vdW  Elec       q    Type
REMARK                         _______ _______ _______ _____ _____    ______ ____
ROOT
ATOM      1  O   UNL     1       2.736   6.338  20.059  0.00  0.00    +0.000 OA
ENDROOT
BRANCH   1   5
ATOM      2  N   UNL     1       4.515   4.181  17.921  0.00  0.00    +0.000 NA
ATOM      3  C   UNL     1       4.507   4.014  19.373  0.00  0.00    +0.000 C 
ATOM      4  C   UNL     1       3.098   3.875  19.926  0.00  0.00    +0.000 C 
ATOM      5  C   UNL     1       2.230   5.084  19.558  0.00  0.00    +0.000 C 
ATOM      6  C   UNL     1       2.206   5.169  18.031  0.00  0.00    +0.000 C 
ATOM      7  C   UNL     1       3.620   5.237  17.437  0.00  0.00    +0.000 C 
BRANCH   2   8
ATOM      8  C   UNL     1       5.882   4.288  17.379  0.00  0.00    +0.000 C 
BRANCH   8  12
ATOM      9  C   UNL     1       7.992   8.017  18.104  0.00  0.00    +0.000 A 
ATOM     10  C   UNL     1       7.037   7.934  17.087  0.00  0.00    +0.000 A 
ATOM     11  C   UNL     1       6.363   6.730  16.857  0.00  0.00    +0.000 A 
ATOM     12  C   UNL     1       6.636   5.587  17.629  0.00  0.00    +0.000 A 
ATOM     13  C   UNL     1       7.603   5.682  18.639  0.00  0.00    +0.000 A 
ATOM     14  C   UNL     1       8.276   6.889  18.875  0.00  0.00    +0.000 A 
BRANCH   9  16
ATOM     15  N   UNL     1       9.218  10.271  18.556  0.00  0.00    +0.000 NA
ATOM     16  C   UNL     1       8.677   9.266  18.353  0.00  0.00    +0.000 C 
ENDBRANCH   9  16
ENDBRANCH   8  12
ENDBRANCH   2   8
ENDBRANCH   1   5
BRANCH   1  17
ATOM     17  C   UNL     1       1.813   7.327  20.264  0.00  0.00    +0.000 A 
ATOM     18  C   UNL     1       0.867   7.294  21.278  0.00  0.00    +0.000 A 
ATOM     19  C   UNL     1      -0.008   8.357  21.480  0.00  0.00    +0.000 A 
ATOM     20  C   UNL     1       0.032   9.483  20.666  0.00  0.00    +0.000 A 
ATOM     21  C   UNL     1       0.972   9.519  19.629  0.00  0.00    +0.000 A 
ATOM     22  C   UNL     1       1.869   8.452  19.438  0.00  0.00    +0.000 A 
BRANCH  20  23
ATOM     23  N   UNL     1      -0.825  10.587  20.859  0.00  0.00    +0.000 N 
ATOM     24  C   UNL     1      -0.949  11.356  22.010  0.00  0.00    +0.000 C 
ATOM     25  O   UNL     1      -0.350  11.146  23.061  0.00  0.00    +0.000 OA
ATOM     26  H   UNL     1      -1.391  10.871  20.071  0.00  0.00    +0.000 HD
BRANCH  24  27
ATOM     27  C   UNL     1      -1.866  12.486  21.913  0.00  0.00    +0.000 A 
ATOM     28  C   UNL     1      -2.638  12.992  22.946  0.00  0.00    +0.000 A 
ATOM     29  C   UNL     1      -3.418  14.112  22.550  0.00  0.00    +0.000 A 
ATOM     30  C   UNL     1      -3.221  14.428  21.225  0.00  0.00    +0.000 A 
ATOM     31  S   UNL     1      -2.108  13.372  20.468  0.00  0.00    +0.000 S 
ENDBRANCH  24  27
ENDBRANCH  20  23
ENDBRANCH   1  17
TORSDOF 7
ENDMDL
MODEL 3
REMARK VINA RESULT:      -7.2      1.023      1.338
REMARK  Name = 
REMARK  7 active torsions:
REMARK  status: ('A' for Active; 'I' for Inactive)
REMARK    1  A    between atoms: C_2  and  C_3
REMARK    2  A    between atoms: C_6  and  C_7
REMARK    3  A    between atoms: C_7  and  N_8
REMARK    4  A    between atoms: C_11  and  O_12
REMARK    5  A    between atoms: O_12  and  C_13
REMARK    6  A    between atoms: C_16  and  N_17
REMARK    7  A    between atoms: C_18  and  C_20
REMARK                            x       y       z     vdW  Elec       q    Type
REMARK                         _______ _______ _______ _____ _____    ______ ____
ROOT
ATOM      1  O   UNL     1       2.658   6.867  20.029  0.00  0.00    +0.000 OA
ENDROOT
BRANCH   1   5
ATOM      2  N   UNL     1       4.392   4.469  18.124  0.00  0.00    +0.000 NA
ATOM      3  C   UNL     1       4.329   4.414  19.583  0.00  0.00    +0.000 C 
ATOM      4  C   UNL     1       2.899   4.387  20.095  0.00  0.00    +0.000 C 
ATOM      5  C   UNL     1       2.105   5.604  19.606  0.00  0.00    +0.000 C 
ATOM      6  C   UNL     1       2.134   5.573  18.077  0.00  0.00    +0.000 C 
ATOM      7  C   UNL     1       3.568   5.526  17.531  0.00  0.00    +0.000 C 
BRANCH   2   8
ATOM      8  C   UNL     1       5.780   4.466  17.625  0.00  0.00    +0.000 C 
BRANCH   8  12
ATOM      9  C   UNL     1       8.051   8.136  18.137  0.00  0.00    +0.000 A 
ATOM     10  C   UNL     1       7.046   8.059  17.170  0.00  0.00    +0.000 A 
ATOM     11  C   UNL     1       6.319   6.874  17.008  0.00  0.00    +0.000 A 
ATOM     12  C   UNL     1       6.589   5.744  17.800  0.00  0.00    +0.000 A 
ATOM     13  C   UNL     1       7.606   5.832  18.760  0.00  0.00    +0.000 A 
ATOM     14  C   UNL     1       8.332   7.020  18.927  0.00  0.00    +0.000 A 
BRANCH   9  16
ATOM     15  N   UNL     1       9.375  10.356  18.461  0.00  0.00    +0.000 NA
ATOM     16  C   UNL     1       8.790   9.365  18.317  0.00  0.00    +0.000 C 
ENDBRANCH   9  16
ENDBRANCH   8  12
ENDBRANCH   2   8
ENDBRANCH   1   5
BRANCH   1  17
ATOM     17  C   UNL     1       1.770   7.894  20.193  0.00  0.00    +0.000 A 
ATOM     18  C   UNL     1       1.574   8.896  19.254  0.00  0.00    +0.000 A 
ATOM     19  C   UNL     1       0.612   9.883  19.444  0.00  0.00    +0.000 A 
ATOM     20  C   UNL     1      -0.179   9.901  20.588  0.00  0.00    +0.000 A 
ATOM     21  C   UNL     1       0.022   8.904  21.550  0.00  0.00    +0.000 A 
ATOM     22  C   UNL     1       0.982   7.896  21.347  0.00  0.00    +0.000 A 
BRANCH  20  23
ATOM     23  N   UNL     1      -1.178  10.873  20.800  0.00  0.00    +0.000 N 
ATOM     24  C   UNL     1      -1.060  12.044  21.541  0.00  0.00    +0.000 C 
ATOM     25  O   UNL     1      -0.060  12.378  22.169  0.00  0.00    +0.000 OA
ATOM     26  H   UNL     1      -2.069  10.723  20.345  0.00  0.00    +0.000 HD
BRANCH  24  27
ATOM     27  C   UNL     1      -2.237  12.907  21.541  0.00  0.00    +0.000 A 
ATOM     28  C   UNL     1      -3.468  12.597  22.094  0.00  0.00    +0.000 A 
ATOM     29  C   UNL     1      -4.413  13.650  21.954  0.00  0.00    +0.000 A 
ATOM     30  C   UNL     1      -3.876  14.733  21.297  0.00  0.00    +0.000 A 
ATOM     31  S   UNL     1      -2.247  14.472  20.846  0.00  0.00    +0.000 S 
ENDBRANCH  24  27
ENDBRANCH  20  23
ENDBRANCH   1  17
TORSDOF 7
ENDMDL
MODEL 4
REMARK VINA RESULT:      -7.1      0.912      1.010
REMARK  Name = 
REMARK  7 active torsions:
REMARK  status: ('A' for Active; 'I' for Inactive)
REMARK    1  A    between atoms: C_2  and  C_3
REMARK    2  A    between atoms: C_6  and  C_7
REMARK    3  A    between atoms: C_7  and  N_8
REMARK    4  A    between atoms: C_11  and  O_12
REMARK    5  A    between atoms: O_12  and  C_13
REMARK    6  A    between atoms: C_16  and  N_17
REMARK    7  A    between atoms: C_18  and  C_20
REMARK                            x       y       z     vdW  Elec       q    Type
REMARK                         _______ _______ _______ _____ _____    ______ ____
ROOT
ATOM      1  O   UNL     1       2.335   7.251  19.195  0.00  0.00    +0.000 OA
ENDROOT
BRANCH   1   5
ATOM      2  N   UNL     1       4.439   4.560  18.346  0.00  0.00    +0.000 NA
ATOM      3  C   UNL     1       4.367   5.100  19.702  0.00  0.00    +0.000 C 
ATOM      4  C   UNL     1       2.950   5.079  20.252  0.00  0.00    +0.000 C 
ATOM      5  C   UNL     1       1.987   5.860  19.351  0.00  0.00    +0.000 C 
ATOM      6  C   UNL     1       2.040   5.209  17.968  0.00  0.00    +0.000 C 
ATOM      7  C   UNL     1       3.472   5.150  17.416  0.00  0.00    +0.000 C 
BRANCH   2   8
ATOM      8  C   UNL     1       5.818   4.554  17.821  0.00  0.00    +0.000 C 
BRANCH   8  12
ATOM      9  C   UNL     1       8.039   8.278  18.110  0.00  0.00    +0.000 A 
ATOM     10  C   UNL     1       7.002   8.147  17.183  0.00  0.00    +0.000 A 
ATOM     11  C   UNL     1       6.292   6.945  17.093  0.00  0.00    +0.000 A 
ATOM     12  C   UNL     1       6.610   5.851  17.918  0.00  0.00    +0.000 A 
ATOM     13  C   UNL     1       7.659   5.994  18.836  0.00  0.00    +0.000 A 
ATOM     14  C   UNL     1       8.368   7.199  18.931  0.00  0.00    +0.000 A 
BRANCH   9  16
ATOM     15  N   UNL     1       9.348  10.522  18.305  0.00  0.00    +0.000 NA
ATOM     16  C   UNL     1       8.762   9.526  18.216  0.00  0.00    +0.000 C 
ENDBRANCH   9  16
ENDBRANCH   8  12
ENDBRANCH   2   8
ENDBRANCH   1   5
BRANCH   1  17
ATOM     17  C   UNL     1       1.636   8.142  19.962  0.00  0.00    +0.000 A 
ATOM     18  C   UNL     1       1.198   7.868  21.249  0.00  0.00    +0.000 A 
ATOM     19  C   UNL     1       0.544   8.834  22.008  0.00  0.00    +0.000 A 
ATOM     20  C   UNL     1       0.301  10.103  21.496  0.00  0.00    +0.000 A 
ATOM     21  C   UNL     1       0.724  10.386  20.191  0.00  0.00    +0.000 A 
ATOM     22  C   UNL     1       1.402   9.414  19.432  0.00  0.00    +0.000 A 
BRANCH  20  23
ATOM     23  N   UNL     1      -0.338  11.112  22.247  0.00  0.00    +0.000 N 
ATOM     24  C   UNL     1      -1.408  11.903  21.842  0.00  0.00    +0.000 C 
ATOM     25  O   UNL     1      -1.925  11.865  20.730  0.00  0.00    +0.000 OA
ATOM     26  H   UNL     1      -0.006  11.261  23.190  0.00  0.00    +0.000 HD
BRANCH  24  27
ATOM     27  C   UNL     1      -1.919  12.828  22.848  0.00  0.00    +0.000 A 
ATOM     28  C   UNL     1      -1.270  13.961  23.308  0.00  0.00    +0.000 A 
ATOM     29  C   UNL     1      -2.030  14.674  24.275  0.00  0.00    +0.000 A 
ATOM     30  C   UNL     1      -3.237  14.063  24.527  0.00  0.00    +0.000 A 
ATOM     31  S   UNL     1      -3.441  12.635  23.607  0.00  0.00    +0.000 S 
ENDBRANCH  24  27
ENDBRANCH  20  23
ENDBRANCH   1  17
TORSDOF 7
ENDMDL
MODEL 5
REMARK VINA RESULT:      -7.0      0.868      1.261
REMARK  Name = 
REMARK  7 active torsions:
REMARK  status: ('A' for Active; 'I' for Inactive)
REMARK    1  A    between atoms: C_2  and  C_3
REMARK    2  A    between atoms: C_6  and  C_7
REMARK    3  A    between atoms: C_7  and  N_8
REMARK    4  A    between atoms: C_11  and  O_12
REMARK    5  A    between atoms: O_12  and  C_13
REMARK    6  A    between atoms: C_16  and  N_17
REMARK    7  A    between atoms: C_18  and  C_20
REMARK                            x       y       z     vdW  Elec       q    Type
REMARK                         _______ _______ _______ _____ _____    ______ ____
ROOT
ATOM      1  O   UNL     1       2.267   6.906  18.383  0.00  0.00    +0.000 OA
ENDROOT
BRANCH   1   5
ATOM      2  N   UNL     1       4.777   4.439  18.395  0.00  0.00    +0.000 NA
ATOM      3  C   UNL     1       4.510   5.291  19.552  0.00  0.00    +0.000 C 
ATOM      4  C   UNL     1       3.065   5.197  20.012  0.00  0.00    +0.000 C 
ATOM      5  C   UNL     1       2.093   5.565  18.886  0.00  0.00    +0.000 C 
ATOM      6  C   UNL     1       2.358   4.598  17.731  0.00  0.00    +0.000 C 
ATOM      7  C   UNL     1       3.828   4.618  17.292  0.00  0.00    +0.000 C 
BRANCH   2   8
ATOM      8  C   UNL     1       6.186   4.508  17.964  0.00  0.00    +0.000 C 
BRANCH   8  12
ATOM      9  C   UNL     1       8.194   8.357  18.164  0.00  0.00    +0.000 A 
ATOM     10  C   UNL     1       8.514   7.348  19.075  0.00  0.00    +0.000 A 
ATOM     11  C   UNL     1       7.863   6.111  19.008  0.00  0.00    +0.000 A 
ATOM     12  C   UNL     1       6.875   5.864  18.038  0.00  0.00    +0.000 A 
ATOM     13  C   UNL     1       6.558   6.889  17.136  0.00  0.00    +0.000 A 
ATOM     14  C   UNL     1       7.213   8.127  17.199  0.00  0.00    +0.000 A 
BRANCH   9  16
ATOM     15  N   UNL     1       9.424  10.652  18.262  0.00  0.00    +0.000 NA
ATOM     16  C   UNL     1       8.879   9.629  18.223  0.00  0.00    +0.000 C 
ENDBRANCH   9  16
ENDBRANCH   8  12
ENDBRANCH   2   8
ENDBRANCH   1   5
BRANCH   1  17
ATOM     17  C   UNL     1       1.765   7.915  19.159  0.00  0.00    +0.000 A 
ATOM     18  C   UNL     1       1.526   7.791  20.520  0.00  0.00    +0.000 A 
ATOM     19  C   UNL     1       1.074   8.870  21.273  0.00  0.00    +0.000 A 
ATOM     20  C   UNL     1       0.837  10.106  20.683  0.00  0.00    +0.000 A 
ATOM     21  C   UNL     1       1.059  10.239  19.306  0.00  0.00    +0.000 A 
ATOM     22  C   UNL     1       1.535   9.152  18.550  0.00  0.00    +0.000 A 
BRANCH  20  23
ATOM     23  N   UNL     1       0.401  11.225  21.422  0.00  0.00    +0.000 N 
ATOM     24  C   UNL     1      -0.814  11.889  21.292  0.00  0.00    +0.000 C 
ATOM     25  O   UNL     1      -1.677  11.616  20.462  0.00  0.00    +0.000 OA
ATOM     26  H   UNL     1       1.020  11.569  22.143  0.00  0.00    +0.000 HD
BRANCH  24  27
ATOM     27  C   UNL     1      -1.035  12.981  22.234  0.00  0.00    +0.000 A 
ATOM     28  C   UNL     1      -2.005  13.011  23.223  0.00  0.00    +0.000 A 
ATOM     29  C   UNL     1      -1.960  14.202  23.999  0.00  0.00    +0.000 A 
ATOM     30  C   UNL     1      -0.958  15.047  23.579  0.00  0.00    +0.000 A 
ATOM     31  S   UNL     1      -0.088  14.407  22.252  0.00  0.00    +0.000 S 
ENDBRANCH  24  27
ENDBRANCH  20  23
ENDBRANCH   1  17
TORSDOF 7
ENDMDL
MODEL 6
REMARK VINA RESULT:      -6.9      1.055      1.143
REMARK  Name = 
REMARK  7 active torsions:
REMARK  status: ('A' for Active; 'I' for Inactive)
REMARK    1  A    between atoms: C_2  and  C_3
REMARK    2  A    between atoms: C_6  and  C_7
REMARK    3  A    between atoms: C_7  and  N_8
REMARK    4  A    between atoms: C_11  and  O_12
REMARK    5  A    between atoms: O_12  and  C_13
REMARK    6  A    between atoms: C_16  and  N_17
REMARK    7  A    between atoms: C_18  and  C_20
REMARK                            x       y       z     vdW  Elec       q    Type
REMARK                         _______ _______ _______ _____ _____    ______ ____
ROOT
ATOM      1  O   UNL     1       2.435   6.558  18.096  0.00  0.00    +0.000 OA
ENDROOT
BRANCH   1   5
ATOM      2  N   UNL     1       5.065   4.230  18.317  0.00  0.00    +0.000 NA
ATOM      3  C   UNL     1       4.690   5.097  19.432  0.00  0.00    +0.000 C 
ATOM      4  C   UNL     1       3.229   4.938  19.816  0.00  0.00    +0.000 C 
ATOM      5  C   UNL     1       2.303   5.223  18.628  0.00  0.00    +0.000 C 
ATOM      6  C   UNL     1       2.682   4.241  17.518  0.00  0.00    +0.000 C 
ATOM      7  C   UNL     1       4.172   4.327  17.160  0.00  0.00    +0.000 C 
BRANCH   2   8
ATOM      8  C   UNL     1       6.491   4.362  17.962  0.00  0.00    +0.000 C 
BRANCH   8  12
ATOM      9  C   UNL     1       8.198   8.353  18.172  0.00  0.00    +0.000 A 
ATOM     10  C   UNL     1       7.315   8.018  17.142  0.00  0.00    +0.000 A 
ATOM     11  C   UNL     1       6.770   6.731  17.079  0.00  0.00    +0.000 A 
ATOM     12  C   UNL     1       7.104   5.754  18.034  0.00  0.00    +0.000 A 
ATOM     13  C   UNL     1       7.998   6.101  19.055  0.00  0.00    +0.000 A 
ATOM     14  C   UNL     1       8.541   7.392  19.124  0.00  0.00    +0.000 A 
BRANCH   9  16
ATOM     15  N   UNL     1       9.185  10.761  18.300  0.00  0.00    +0.000 NA
ATOM     16  C   UNL     1       8.748   9.688  18.248  0.00  0.00    +0.000 C 
ENDBRANCH   9  16
ENDBRANCH   8  12
ENDBRANCH   2   8
ENDBRANCH   1   5
BRANCH   1  17
ATOM     17  C   UNL     1       1.915   7.569  18.856  0.00  0.00    +0.000 A 
ATOM     18  C   UNL     1       1.754   7.490  20.231  0.00  0.00    +0.000 A 
ATOM     19  C   UNL     1       1.278   8.572  20.964  0.00  0.00    +0.000 A 
ATOM     20  C   UNL     1       0.939   9.767  20.338  0.00  0.00    +0.000 A 
ATOM     21  C   UNL     1       1.082   9.853  18.948  0.00  0.00    +0.000 A 
ATOM     22  C   UNL     1       1.581   8.763  18.211  0.00  0.00    +0.000 A 
BRANCH  20  23
ATOM     23  N   UNL     1       0.476  10.890  21.054  0.00  0.00    +0.000 N 
ATOM     24  C   UNL     1      -0.476  11.814  20.634  0.00  0.00    +0.000 C 
ATOM     25  O   UNL     1      -1.022  11.806  19.535  0.00  0.00    +0.000 OA
ATOM     26  H   UNL     1       0.851  11.029  21.983  0.00  0.00    +0.000 HD
BRANCH  24  27
ATOM     27  C   UNL     1      -0.818  12.846  21.607  0.00  0.00    +0.000 A 
ATOM     28  C   UNL     1      -1.178  12.627  22.926  0.00  0.00    +0.000 A 
ATOM     29  C   UNL     1      -1.434  13.834  23.632  0.00  0.00    +0.000 A 
ATOM     30  C   UNL     1      -1.264  14.940  22.831  0.00  0.00    +0.000 A 
ATOM     31  S   UNL     1      -0.808  14.518  21.237  0.00  0.00    +0.000 S 
ENDBRANCH  24  27
ENDBRANCH  20  23
ENDBRANCH   1  17
TORSDOF 7
ENDMDL
MODEL 7
REMARK VINA RESULT:      -6.9      1.008      1.374
REMARK  Name = 
REMARK  7 active torsions:
REMARK  status: ('A' for Active; 'I' for Inactive)
REMARK    1  A    between atoms: C_2  and  C_3
REMARK    2  A    between atoms: C_6  and  C_7
REMARK    3  A    between atoms: C_7  and  N_8
REMARK    4  A    between atoms: C_11  and  O_12
REMARK    5  A    between atoms: O_12  and  C_13
REMARK    6  A    between atoms: C_16  and  N_17
REMARK    7  A    between atoms: C_18  and  C_20
REMARK                            x       y       z     vdW  Elec       q    Type
REMARK                         _______ _______ _______ _____ _____    ______ ____
ROOT
ATOM      1  O   UNL     1       2.320   7.057  18.415  0.00  0.00    +0.000 OA
ENDROOT
BRANCH   1   5
ATOM      2  N   UNL     1       4.730   4.491  18.445  0.00  0.00    +0.000 NA
ATOM      3  C   UNL     1       4.488   5.352  19.601  0.00  0.00    +0.000 C 
ATOM      4  C   UNL     1       3.037   5.316  20.049  0.00  0.00    +0.000 C 
ATOM      5  C   UNL     1       2.089   5.724  18.915  0.00  0.00    +0.000 C 
ATOM      6  C   UNL     1       2.324   4.747  17.762  0.00  0.00    +0.000 C 
ATOM      7  C   UNL     1       3.798   4.708  17.334  0.00  0.00    +0.000 C 
BRANCH   2   8
ATOM      8  C   UNL     1       6.144   4.503  18.026  0.00  0.00    +0.000 C 
BRANCH   8  12
ATOM      9  C   UNL     1       8.186   8.337  18.143  0.00  0.00    +0.000 A 
ATOM     10  C   UNL     1       7.219   8.085  17.168  0.00  0.00    +0.000 A 
ATOM     11  C   UNL     1       6.566   6.848  17.133  0.00  0.00    +0.000 A 
ATOM     12  C   UNL     1       6.874   5.839  18.064  0.00  0.00    +0.000 A 
ATOM     13  C   UNL     1       7.853   6.103  19.031  0.00  0.00    +0.000 A 
ATOM     14  C   UNL     1       8.505   7.344  19.070  0.00  0.00    +0.000 A 
BRANCH   9  16
ATOM     15  N   UNL     1       9.379  10.653  18.217  0.00  0.00    +0.000 NA
ATOM     16  C   UNL     1       8.849   9.622  18.190  0.00  0.00    +0.000 C 
ENDBRANCH   9  16
ENDBRANCH   8  12
ENDBRANCH   2   8
ENDBRANCH   1   5
BRANCH   1  17
ATOM     17  C   UNL     1       1.732   8.077  19.111  0.00  0.00    +0.000 A 
ATOM     18  C   UNL     1       1.328   9.269  18.529  0.00  0.00    +0.000 A 
ATOM     19  C   UNL     1       0.677  10.249  19.273  0.00  0.00    +0.000 A 
ATOM     20  C   UNL     1       0.420  10.067  20.627  0.00  0.00    +0.000 A 
ATOM     21  C   UNL     1       0.839   8.874  21.229  0.00  0.00    +0.000 A 
ATOM     22  C   UNL     1       1.480   7.877  20.471  0.00  0.00    +0.000 A 
BRANCH  20  23
ATOM     23  N   UNL     1      -0.257  11.030  21.404  0.00  0.00    +0.000 N 
ATOM     24  C   UNL     1      -1.367  11.778  21.025  0.00  0.00    +0.000 C 
ATOM     25  O   UNL     1      -1.893  11.739  19.916  0.00  0.00    +0.000 OA
ATOM     26  H   UNL     1       0.076  11.176  22.347  0.00  0.00    +0.000 HD
BRANCH  24  27
ATOM     27  C   UNL     1      -1.911  12.658  22.054  0.00  0.00    +0.000 A 
ATOM     28  C   UNL     1      -1.202  13.193  23.117  0.00  0.00    +0.000 A 
ATOM     29  C   UNL     1      -2.001  14.032  23.941  0.00  0.00    +0.000 A 
ATOM     30  C   UNL     1      -3.297  14.111  23.485  0.00  0.00    +0.000 A 
ATOM     31  S   UNL     1      -3.544  13.171  22.077  0.00  0.00    +0.000 S 
ENDBRANCH  24  27
ENDBRANCH  20  23
ENDBRANCH   1  17
TORSDOF 7
ENDMDL
MODEL 8
REMARK VINA RESULT:      -6.9      1.734      1.965
REMARK  Name = 
REMARK  7 active torsions:
REMARK  status: ('A' for Active; 'I' for Inactive)
REMARK    1  A    between atoms: C_2  and  C_3
REMARK    2  A    between atoms: C_6  and  C_7
REMARK    3  A    between atoms: C_7  and  N_8
REMARK    4  A    between atoms: C_11  and  O_12
REMARK    5  A    between atoms: O_12  and  C_13
REMARK    6  A    between atoms: C_16  and  N_17
REMARK    7  A    between atoms: C_18  and  C_20
REMARK                            x       y       z     vdW  Elec       q    Type
REMARK                         _______ _______ _______ _____ _____    ______ ____
ROOT
ATOM      1  O   UNL     1       2.595   6.251  20.240  0.00  0.00    +0.000 OA
ENDROOT
BRANCH   1   5
ATOM      2  N   UNL     1       4.188   4.165  17.895  0.00  0.00    +0.000 NA
ATOM      3  C   UNL     1       4.134   3.844  19.320  0.00  0.00    +0.000 C 
ATOM      4  C   UNL     1       2.708   3.792  19.842  0.00  0.00    +0.000 C 
ATOM      5  C   UNL     1       1.974   5.117  19.600  0.00  0.00    +0.000 C 
ATOM      6  C   UNL     1       1.990   5.368  18.091  0.00  0.00    +0.000 C 
ATOM      7  C   UNL     1       3.415   5.353  17.522  0.00  0.00    +0.000 C 
BRANCH   2   8
ATOM      8  C   UNL     1       5.571   4.187  17.381  0.00  0.00    +0.000 C 
BRANCH   8  12
ATOM      9  C   UNL     1       7.851   7.825  18.049  0.00  0.00    +0.000 A 
ATOM     10  C   UNL     1       6.888   7.773  17.037  0.00  0.00    +0.000 A 
ATOM     11  C   UNL     1       6.158   6.599  16.826  0.00  0.00    +0.000 A 
ATOM     12  C   UNL     1       6.383   5.454  17.611  0.00  0.00    +0.000 A 
ATOM     13  C   UNL     1       7.359   5.517  18.615  0.00  0.00    +0.000 A 
ATOM     14  C   UNL     1       8.088   6.695  18.831  0.00  0.00    +0.000 A 
BRANCH   9  16
ATOM     15  N   UNL     1       9.187  10.025  18.454  0.00  0.00    +0.000 NA
ATOM     16  C   UNL     1       8.593   9.045  18.279  0.00  0.00    +0.000 C 
ENDBRANCH   9  16
ENDBRANCH   8  12
ENDBRANCH   2   8
ENDBRANCH   1   5
BRANCH   1  17
ATOM     17  C   UNL     1       1.849   7.395  20.304  0.00  0.00    +0.000 A 
ATOM     18  C   UNL     1       1.920   8.411  19.363  0.00  0.00    +0.000 A 
ATOM     19  C   UNL     1       1.092   9.526  19.444  0.00  0.00    +0.000 A 
ATOM     20  C   UNL     1       0.171   9.662  20.476  0.00  0.00    +0.000 A 
ATOM     21  C   UNL     1       0.102   8.649  21.441  0.00  0.00    +0.000 A 
ATOM     22  C   UNL     1       0.927   7.514  21.348  0.00  0.00    +0.000 A 
BRANCH  20  23
ATOM     23  N   UNL     1      -0.699  10.768  20.574  0.00  0.00    +0.000 N 
ATOM     24  C   UNL     1      -1.578  11.226  19.599  0.00  0.00    +0.000 C 
ATOM     25  O   UNL     1      -1.686  10.750  18.473  0.00  0.00    +0.000 OA
ATOM     26  H   UNL     1      -0.710  11.267  21.453  0.00  0.00    +0.000 HD
BRANCH  24  27
ATOM     27  C   UNL     1      -2.414  12.356  19.991  0.00  0.00    +0.000 A 
ATOM     28  C   UNL     1      -3.798  12.390  19.950  0.00  0.00    +0.000 A 
ATOM     29  C   UNL     1      -4.330  13.623  20.416  0.00  0.00    +0.000 A 
ATOM     30  C   UNL     1      -3.337  14.496  20.797  0.00  0.00    +0.000 A 
ATOM     31  S   UNL     1      -1.776  13.830  20.584  0.00  0.00    +0.000 S 
ENDBRANCH  24  27
ENDBRANCH  20  23
ENDBRANCH   1  17
TORSDOF 7
ENDMDL
MODEL 9
REMARK VINA RESULT:      -6.9      2.301      2.691
REMARK  Name = 
REMARK  7 active torsions:
REMARK  status: ('A' for Active; 'I' for Inactive)
REMARK    1  A    between atoms: C_2  and  C_3
REMARK    2  A    between atoms: C_6  and  C_7
REMARK    3  A    between atoms: C_7  and  N_8
REMARK    4  A    between atoms: C_11  and  O_12
REMARK    5  A    between atoms: O_12  and  C_13
REMARK    6  A    between atoms: C_16  and  N_17
REMARK    7  A    between atoms: C_18  and  C_20
REMARK                            x       y       z     vdW  Elec       q    Type
REMARK                         _______ _______ _______ _____ _____    ______ ____
ROOT
ATOM      1  O   UNL     1       2.521   4.832  20.428  0.00  0.00    +0.000 OA
ENDROOT
BRANCH   1   5
ATOM      2  N   UNL     1       3.657   3.307  17.467  0.00  0.00    +0.000 NA
ATOM      3  C   UNL     1       3.868   2.712  18.785  0.00  0.00    +0.000 C 
ATOM      4  C   UNL     1       2.563   2.505  19.535  0.00  0.00    +0.000 C 
ATOM      5  C   UNL     1       1.795   3.822  19.698  0.00  0.00    +0.000 C 
ATOM      6  C   UNL     1       1.531   4.363  18.292  0.00  0.00    +0.000 C 
ATOM      7  C   UNL     1       2.826   4.514  17.483  0.00  0.00    +0.000 C 
BRANCH   2   8
ATOM      8  C   UNL     1       4.921   3.482  16.725  0.00  0.00    +0.000 C 
BRANCH   8  12
ATOM      9  C   UNL     1       7.209   7.078  17.577  0.00  0.00    +0.000 A 
ATOM     10  C   UNL     1       6.127   7.124  16.693  0.00  0.00    +0.000 A 
ATOM     11  C   UNL     1       5.396   5.963  16.421  0.00  0.00    +0.000 A 
ATOM     12  C   UNL     1       5.736   4.735  17.017  0.00  0.00    +0.000 A 
ATOM     13  C   UNL     1       6.828   4.702  17.894  0.00  0.00    +0.000 A 
ATOM     14  C   UNL     1       7.559   5.865  18.171  0.00  0.00    +0.000 A 
BRANCH   9  16
ATOM     15  N   UNL     1       8.559   9.243  18.101  0.00  0.00    +0.000 NA
ATOM     16  C   UNL     1       7.954   8.281  17.871  0.00  0.00    +0.000 C 
ENDBRANCH   9  16
ENDBRANCH   8  12
ENDBRANCH   2   8
ENDBRANCH   1   5
BRANCH   1  17
ATOM     17  C   UNL     1       2.050   6.112  20.323  0.00  0.00    +0.000 A 
ATOM     18  C   UNL     1       1.132   6.666  21.203  0.00  0.00    +0.000 A 
ATOM     19  C   UNL     1       0.734   7.994  21.086  0.00  0.00    +0.000 A 
ATOM     20  C   UNL     1       1.240   8.807  20.078  0.00  0.00    +0.000 A 
ATOM     21  C   UNL     1       2.156   8.254  19.175  0.00  0.00    +0.000 A 
ATOM     22  C   UNL     1       2.571   6.916  19.305  0.00  0.00    +0.000 A 
BRANCH  20  23
ATOM     23  N   UNL     1       0.876  10.164  19.947  0.00  0.00    +0.000 N 
ATOM     24  C   UNL     1      -0.139  10.682  19.150  0.00  0.00    +0.000 C 
ATOM     25  O   UNL     1      -0.845  10.020  18.395  0.00  0.00    +0.000 OA
ATOM     26  H   UNL     1       1.384  10.832  20.510  0.00  0.00    +0.000 HD
BRANCH  24  27
ATOM     27  C   UNL     1      -0.345  12.123  19.256  0.00  0.00    +0.000 A 
ATOM     28  C   UNL     1      -1.402  12.744  19.901  0.00  0.00    +0.000 A 
ATOM     29  C   UNL     1      -1.316  14.162  19.853  0.00  0.00    +0.000 A 
ATOM     30  C   UNL     1      -0.198  14.583  19.171  0.00  0.00    +0.000 A 
ATOM     31  S   UNL     1       0.734  13.272  18.588  0.00  0.00    +0.000 S 
ENDBRANCH  24  27
ENDBRANCH  20  23
ENDBRANCH   1  17
TORSDOF 7
ENDMDL
