MODEL 1
REMARK VINA RESULT:      -7.9      0.000      0.000
REMARK  Name = 
REMARK  8 active torsions:
REMARK  status: ('A' for Active; 'I' for Inactive)
REMARK    1  A    between atoms: C_1  and  C_2
REMARK    2  A    between atoms: C_5  and  C_6
REMARK    3  A    between atoms: C_6  and  C_7
REMARK    4  A    between atoms: C_7  and  C_8
REMARK    5  A    between atoms: C_8  and  C_10
REMARK    6  A    between atoms: C_15  and  C_16
REMARK    7  A    between atoms: C_16  and  C_17
REMARK    8  A    between atoms: C_16  and  C_18
REMARK                            x       y       z     vdW  Elec       q    Type
REMARK                         _______ _______ _______ _____ _____    ______ ____
ROOT
ATOM      1  C   UNL     1       7.180   5.224  18.248  0.00  0.00    +0.000 C 
ATOM      2  O   UNL     1       8.040   4.355  18.365  0.00  0.00    +0.000 OA
ENDROOT
BRANCH   1   3
ATOM      3  C   UNL     1       5.999   5.259  19.161  0.00  0.00    +0.000 C 
ATOM      4  C   UNL     1       5.036   4.333  19.117  0.00  0.00    +0.000 C 
ATOM      5  N   UNL     1       4.996   3.274  18.283  0.00  0.00    +0.000 N 
ATOM      6  C   UNL     1       3.847   2.551  18.430  0.00  0.00    +0.000 C 
ATOM      7  O   UNL     1       3.532   1.558  17.801  0.00  0.00    +0.000 OA
ATOM      8  C   UNL     1       3.081   3.237  19.552  0.00  0.00    +0.000 C 
ATOM      9  O   UNL     1       3.921   4.372  19.932  0.00  0.00    +0.000 OA
ATOM     10  H   UNL     1       5.729   3.056  17.613  0.00  0.00    +0.000 HD
BRANCH   8  11
ATOM     11  C   UNL     1       1.686   3.753  19.165  0.00  0.00    +0.000 C 
ATOM     12  C   UNL     1       1.640   4.375  17.768  0.00  0.00    +0.000 C 
ATOM     13  C   UNL     1       0.664   2.610  19.233  0.00  0.00    +0.000 C 
ENDBRANCH   8  11
ENDBRANCH   1   3
BRANCH   1  14
ATOM     14  C   UNL     1       7.278   6.319  17.200  0.00  0.00    +0.000 C 
BRANCH  14  15
ATOM     15  C   UNL     1       6.023   6.335  16.328  0.00  0.00    +0.000 C 
BRANCH  15  20
ATOM     16  C   UNL     1       6.281   2.756  11.735  0.00  0.00    +0.000 C 
ATOM     17  C   UNL     1       6.220   3.653  12.936  0.00  0.00    +0.000 A 
ATOM     18  C   UNL     1       5.085   3.687  13.752  0.00  0.00    +0.000 A 
ATOM     19  C   UNL     1       5.031   4.542  14.856  0.00  0.00    +0.000 A 
ATOM     20  C   UNL     1       6.108   5.385  15.159  0.00  0.00    +0.000 A 
ATOM     21  C   UNL     1       7.248   5.339  14.351  0.00  0.00    +0.000 A 
ATOM     22  C   UNL     1       7.303   4.483  13.248  0.00  0.00    +0.000 A 
ENDBRANCH  15  20
ENDBRANCH  14  15
ENDBRANCH   1  14
TORSDOF 5
ENDMDL
MODEL 2
REMARK VINA RESULT:      -7.9      3.486      5.700
REMARK  Name = 
REMARK  8 active torsions:
REMARK  status: ('A' for Active; 'I' for Inactive)
REMARK    1  A    between atoms: C_1  and  C_2
REMARK    2  A    between atoms: C_5  and  C_6
REMARK    3  A    between atoms: C_6  and  C_7
REMARK    4  A    between atoms: C_7  and  C_8
REMARK    5  A    between atoms: C_8  and  C_10
REMARK    6  A    between atoms: C_15  and  C_16
REMARK    7  A    between atoms: C_16  and  C_17
REMARK    8  A    between atoms: C_16  and  C_18
REMARK                            x       y       z     vdW  Elec       q    Type
REMARK                         _______ _______ _______ _____ _____    ______ ____
ROOT
ATOM      1  C   UNL     1       7.329   5.962  18.069  0.00  0.00    +0.000 C 
ATOM      2  O   UNL     1       7.866   4.948  17.629  0.00  0.00    +0.000 OA
ENDROOT
BRANCH   1   3
ATOM      3  C   UNL     1       5.843   6.048  18.191  0.00  0.00    +0.000 C 
ATOM      4  C   UNL     1       5.112   5.058  18.713  0.00  0.00    +0.000 C 
ATOM      5  N   UNL     1       5.590   3.892  19.193  0.00  0.00    +0.000 N 
ATOM      6  C   UNL     1       4.588   3.054  19.591  0.00  0.00    +0.000 C 
ATOM      7  O   UNL     1       4.720   1.933  20.046  0.00  0.00    +0.000 OA
ATOM      8  C   UNL     1       3.300   3.832  19.366  0.00  0.00    +0.000 C 
ATOM      9  O   UNL     1       3.735   5.109  18.800  0.00  0.00    +0.000 OA
ATOM     10  H   UNL     1       6.579   3.662  19.233  0.00  0.00    +0.000 HD
BRANCH   8  11
ATOM     11  C   UNL     1       2.300   3.171  18.404  0.00  0.00    +0.000 C 
ATOM     12  C   UNL     1       1.307   2.246  19.109  0.00  0.00    +0.000 C 
ATOM     13  C   UNL     1       1.518   4.247  17.637  0.00  0.00    +0.000 C 
ENDBRANCH   8  11
ENDBRANCH   1   3
BRANCH   1  14
ATOM     14  C   UNL     1       8.133   7.162  18.537  0.00  0.00    +0.000 C 
BRANCH  14  15
ATOM     15  C   UNL     1       7.859   8.369  17.639  0.00  0.00    +0.000 C 
BRANCH  15  20
ATOM     16  C   UNL     1      10.246  13.282  19.673  0.00  0.00    +0.000 C 
ATOM     17  C   UNL     1       9.610  12.019  19.172  0.00  0.00    +0.000 A 
ATOM     18  C   UNL     1       9.774  10.809  19.853  0.00  0.00    +0.000 A 
ATOM     19  C   UNL     1       9.194   9.636  19.364  0.00  0.00    +0.000 A 
ATOM     20  C   UNL     1       8.446   9.649  18.181  0.00  0.00    +0.000 A 
ATOM     21  C   UNL     1       8.269  10.862  17.508  0.00  0.00    +0.000 A 
ATOM     22  C   UNL     1       8.848  12.036  17.998  0.00  0.00    +0.000 A 
ENDBRANCH  15  20
ENDBRANCH  14  15
ENDBRANCH   1  14
TORSDOF 5
ENDMDL
MODEL 3
REMARK VINA RESULT:      -7.8      0.130      1.059
REMARK  Name = 
REMARK  8 active torsions:
REMARK  status: ('A' for Active; 'I' for Inactive)
REMARK    1  A    between atoms: C_1  and  C_2
REMARK    2  A    between atoms: C_5  and  C_6
REMARK    3  A    between atoms: C_6  and  C_7
REMARK    4  A    between atoms: C_7  and  C_8
REMARK    5  A    between atoms: C_8  and  C_10
REMARK    6  A    between atoms: C_15  and  C_16
REMARK    7  A    between atoms: C_16  and  C_17
REMARK    8  A    between atoms: C_16  and  C_18
REMARK                            x       y       z     vdW  Elec       q    Type
REMARK                         _______ _______ _______ _____ _____    ______ ____
ROOT
ATOM      1  C   UNL     1       7.080   5.251  18.254  0.00  0.00    +0.000 C 
ATOM      2  O   UNL     1       7.914   4.361  18.409  0.00  0.00    +0.000 OA
ENDROOT
BRANCH   1   3
ATOM      3  C   UNL     1       5.859   5.313  19.112  0.00  0.00    +0.000 C 
ATOM      4  C   UNL     1       4.925   4.358  19.092  0.00  0.00    +0.000 C 
ATOM      5  N   UNL     1       4.950   3.244  18.333  0.00  0.00    +0.000 N 
ATOM      6  C   UNL     1       3.815   2.499  18.481  0.00  0.00    +0.000 C 
ATOM      7  O   UNL     1       3.555   1.456  17.909  0.00  0.00    +0.000 OA
ATOM      8  C   UNL     1       2.982   3.236  19.519  0.00  0.00    +0.000 C 
ATOM      9  O   UNL     1       3.774   4.419  19.854  0.00  0.00    +0.000 OA
ATOM     10  H   UNL     1       5.717   3.003  17.711  0.00  0.00    +0.000 HD
BRANCH   8  11
ATOM     11  C   UNL     1       1.592   3.684  19.039  0.00  0.00    +0.000 C 
ATOM     12  C   UNL     1       1.616   4.351  17.663  0.00  0.00    +0.000 C 
ATOM     13  C   UNL     1       0.640   2.481  18.991  0.00  0.00    +0.000 C 
ENDBRANCH   8  11
ENDBRANCH   1   3
BRANCH   1  14
ATOM     14  C   UNL     1       7.251   6.343  17.214  0.00  0.00    +0.000 C 
BRANCH  14  15
ATOM     15  C   UNL     1       6.012   6.429  16.322  0.00  0.00    +0.000 C 
BRANCH  15  20
ATOM     16  C   UNL     1       6.285   2.668  11.878  0.00  0.00    +0.000 C 
ATOM     17  C   UNL     1       6.209   3.659  13.002  0.00  0.00    +0.000 A 
ATOM     18  C   UNL     1       7.255   4.554  13.246  0.00  0.00    +0.000 A 
ATOM     19  C   UNL     1       7.181   5.457  14.309  0.00  0.00    +0.000 A 
ATOM     20  C   UNL     1       6.064   5.478  15.152  0.00  0.00    +0.000 A 
ATOM     21  C   UNL     1       5.010   4.594  14.898  0.00  0.00    +0.000 A 
ATOM     22  C   UNL     1       5.083   3.690  13.834  0.00  0.00    +0.000 A 
ENDBRANCH  15  20
ENDBRANCH  14  15
ENDBRANCH   1  14
TORSDOF 5
ENDMDL
MODEL 4
REMARK VINA RESULT:      -7.8      1.060      1.307
REMARK  Name = 
REMARK  8 active torsions:
REMARK  status: ('A' for Active; 'I' for Inactive)
REMARK    1  A    between atoms: C_1  and  C_2
REMARK    2  A    between atoms: C_5  and  C_6
REMARK    3  A    between atoms: C_6  and  C_7
REMARK    4  A    between atoms: C_7  and  C_8
REMARK    5  A    between atoms: C_8  and  C_10
REMARK    6  A    between atoms: C_15  and  C_16
REMARK    7  A    between atoms: C_16  and  C_17
REMARK    8  A    between atoms: C_16  and  C_18
REMARK                            x       y       z     vdW  Elec       q    Type
REMARK                         _______ _______ _______ _____ _____    ______ ____
ROOT
ATOM      1  C   UNL     1       6.928   5.464  19.204  0.00  0.00    +0.000 C 
ATOM      2  O   UNL     1       7.580   5.503  20.245  0.00  0.00    +0.000 OA
ENDROOT
BRANCH   1   3
ATOM      3  C   UNL     1       5.436   5.430  19.238  0.00  0.00    +0.000 C 
ATOM      4  C   UNL     1       4.752   4.294  19.406  0.00  0.00    +0.000 C 
ATOM      5  N   UNL     1       5.287   3.067  19.569  0.00  0.00    +0.000 N 
ATOM      6  C   UNL     1       4.329   2.097  19.641  0.00  0.00    +0.000 C 
ATOM      7  O   UNL     1       4.519   0.901  19.770  0.00  0.00    +0.000 OA
ATOM      8  C   UNL     1       3.002   2.835  19.554  0.00  0.00    +0.000 C 
ATOM      9  O   UNL     1       3.372   4.242  19.404  0.00  0.00    +0.000 OA
ATOM     10  H   UNL     1       6.287   2.890  19.613  0.00  0.00    +0.000 HD
BRANCH   8  11
ATOM     11  C   UNL     1       2.106   2.424  18.375  0.00  0.00    +0.000 C 
ATOM     12  C   UNL     1       0.616   2.422  18.723  0.00  0.00    +0.000 C 
ATOM     13  C   UNL     1       2.336   3.366  17.185  0.00  0.00    +0.000 C 
ENDBRANCH   8  11
ENDBRANCH   1   3
BRANCH   1  14
ATOM     14  C   UNL     1       7.590   5.477  17.838  0.00  0.00    +0.000 C 
BRANCH  14  15
ATOM     15  C   UNL     1       6.681   6.153  16.812  0.00  0.00    +0.000 C 
BRANCH  15  20
ATOM     16  C   UNL     1       5.774   3.018  11.983  0.00  0.00    +0.000 C 
ATOM     17  C   UNL     1       6.016   3.800  13.241  0.00  0.00    +0.000 A 
ATOM     18  C   UNL     1       5.112   3.748  14.306  0.00  0.00    +0.000 A 
ATOM     19  C   UNL     1       5.338   4.497  15.464  0.00  0.00    +0.000 A 
ATOM     20  C   UNL     1       6.468   5.316  15.575  0.00  0.00    +0.000 A 
ATOM     21  C   UNL     1       7.380   5.355  14.515  0.00  0.00    +0.000 A 
ATOM     22  C   UNL     1       7.155   4.605  13.357  0.00  0.00    +0.000 A 
ENDBRANCH  15  20
ENDBRANCH  14  15
ENDBRANCH   1  14
TORSDOF 5
ENDMDL
MODEL 5
REMARK VINA RESULT:      -7.6      0.794      1.081
REMARK  Name = 
REMARK  8 active torsions:
REMARK  status: ('A' for Active; 'I' for Inactive)
REMARK    1  A    between atoms: C_1  and  C_2
REMARK    2  A    between atoms: C_5  and  C_6
REMARK    3  A    between atoms: C_6  and  C_7
REMARK    4  A    between atoms: C_7  and  C_8
REMARK    5  A    between atoms: C_8  and  C_10
REMARK    6  A    between atoms: C_15  and  C_16
REMARK    7  A    between atoms: C_16  and  C_17
REMARK    8  A    between atoms: C_16  and  C_18
REMARK                            x       y       z     vdW  Elec       q    Type
REMARK                         _______ _______ _______ _____ _____    ______ ____
ROOT
ATOM      1  C   UNL     1       6.789   5.344  18.275  0.00  0.00    +0.000 C 
ATOM      2  O   UNL     1       7.848   4.822  18.617  0.00  0.00    +0.000 OA
ENDROOT
BRANCH   1   3
ATOM      3  C   UNL     1       5.601   5.326  19.181  0.00  0.00    +0.000 C 
ATOM      4  C   UNL     1       4.784   4.273  19.263  0.00  0.00    +0.000 C 
ATOM      5  N   UNL     1       4.910   3.118  18.577  0.00  0.00    +0.000 N 
ATOM      6  C   UNL     1       3.875   2.262  18.823  0.00  0.00    +0.000 C 
ATOM      7  O   UNL     1       3.717   1.160  18.331  0.00  0.00    +0.000 OA
ATOM      8  C   UNL     1       3.001   2.970  19.846  0.00  0.00    +0.000 C 
ATOM      9  O   UNL     1       3.662   4.256  20.070  0.00  0.00    +0.000 OA
ATOM     10  H   UNL     1       5.677   2.924  17.939  0.00  0.00    +0.000 HD
BRANCH   8  11
ATOM     11  C   UNL     1       1.552   3.223  19.400  0.00  0.00    +0.000 C 
ATOM     12  C   UNL     1       0.774   4.125  20.360  0.00  0.00    +0.000 C 
ATOM     13  C   UNL     1       1.535   3.857  18.002  0.00  0.00    +0.000 C 
ENDBRANCH   8  11
ENDBRANCH   1   3
BRANCH   1  14
ATOM     14  C   UNL     1       6.634   6.053  16.942  0.00  0.00    +0.000 C 
BRANCH  14  15
ATOM     15  C   UNL     1       7.584   5.453  15.906  0.00  0.00    +0.000 C 
BRANCH  15  20
ATOM     16  C   UNL     1       4.727   3.070  11.420  0.00  0.00    +0.000 C 
ATOM     17  C   UNL     1       5.468   3.655  12.587  0.00  0.00    +0.000 A 
ATOM     18  C   UNL     1       4.872   3.740  13.848  0.00  0.00    +0.000 A 
ATOM     19  C   UNL     1       5.564   4.307  14.922  0.00  0.00    +0.000 A 
ATOM     20  C   UNL     1       6.862   4.805  14.751  0.00  0.00    +0.000 A 
ATOM     21  C   UNL     1       7.463   4.705  13.492  0.00  0.00    +0.000 A 
ATOM     22  C   UNL     1       6.771   4.137  12.419  0.00  0.00    +0.000 A 
ENDBRANCH  15  20
ENDBRANCH  14  15
ENDBRANCH   1  14
TORSDOF 5
ENDMDL
MODEL 6
REMARK VINA RESULT:      -7.6      2.883      5.176
REMARK  Name = 
REMARK  8 active torsions:
REMARK  status: ('A' for Active; 'I' for Inactive)
REMARK    1  A    between atoms: C_1  and  C_2
REMARK    2  A    between atoms: C_5  and  C_6
REMARK    3  A    between atoms: C_6  and  C_7
REMARK    4  A    between atoms: C_7  and  C_8
REMARK    5  A    between atoms: C_8  and  C_10
REMARK    6  A    between atoms: C_15  and  C_16
REMARK    7  A    between atoms: C_16  and  C_17
REMARK    8  A    between atoms: C_16  and  C_18
REMARK                            x       y       z     vdW  Elec       q    Type
REMARK                         _______ _______ _______ _____ _____    ______ ____
ROOT
ATOM      1  C   UNL     1       5.983   5.367  17.853  0.00  0.00    +0.000 C 
ATOM      2  O   UNL     1       6.817   4.860  17.105  0.00  0.00    +0.000 OA
ENDROOT
BRANCH   1   3
ATOM      3  C   UNL     1       5.474   4.624  19.045  0.00  0.00    +0.000 C 
ATOM      4  C   UNL     1       4.490   3.725  18.956  0.00  0.00    +0.000 C 
ATOM      5  N   UNL     1       3.846   3.366  17.827  0.00  0.00    +0.000 N 
ATOM      6  C   UNL     1       2.839   2.477  18.073  0.00  0.00    +0.000 C 
ATOM      7  O   UNL     1       2.082   1.996  17.250  0.00  0.00    +0.000 OA
ATOM      8  C   UNL     1       2.894   2.211  19.570  0.00  0.00    +0.000 C 
ATOM      9  O   UNL     1       3.985   3.056  20.055  0.00  0.00    +0.000 OA
ATOM     10  H   UNL     1       4.075   3.732  16.907  0.00  0.00    +0.000 HD
BRANCH   8  11
ATOM     11  C   UNL     1       1.610   2.560  20.340  0.00  0.00    +0.000 C 
ATOM     12  C   UNL     1       1.825   2.674  21.850  0.00  0.00    +0.000 C 
ATOM     13  C   UNL     1       1.027   3.882  19.821  0.00  0.00    +0.000 C 
ENDBRANCH   8  11
ENDBRANCH   1   3
BRANCH   1  14
ATOM     14  C   UNL     1       5.448   6.770  17.631  0.00  0.00    +0.000 C 
BRANCH  14  15
ATOM     15  C   UNL     1       3.995   6.718  17.161  0.00  0.00    +0.000 C 
BRANCH  15  20
ATOM     16  C   UNL     1       0.251   9.510  20.648  0.00  0.00    +0.000 C 
ATOM     17  C   UNL     1       1.236   8.813  19.756  0.00  0.00    +0.000 A 
ATOM     18  C   UNL     1       1.529   9.307  18.482  0.00  0.00    +0.000 A 
ATOM     19  C   UNL     1       2.432   8.637  17.652  0.00  0.00    +0.000 A 
ATOM     20  C   UNL     1       3.053   7.457  18.080  0.00  0.00    +0.000 A 
ATOM     21  C   UNL     1       2.771   6.971  19.361  0.00  0.00    +0.000 A 
ATOM     22  C   UNL     1       1.869   7.643  20.191  0.00  0.00    +0.000 A 
ENDBRANCH  15  20
ENDBRANCH  14  15
ENDBRANCH   1  14
TORSDOF 5
ENDMDL
MODEL 7
REMARK VINA RESULT:      -7.5      4.206      6.413
REMARK  Name = 
REMARK  8 active torsions:
REMARK  status: ('A' for Active; 'I' for Inactive)
REMARK    1  A    between atoms: C_1  and  C_2
REMARK    2  A    between atoms: C_5  and  C_6
REMARK    3  A    between atoms: C_6  and  C_7
REMARK    4  A    between atoms: C_7  and  C_8
REMARK    5  A    between atoms: C_8  and  C_10
REMARK    6  A    between atoms: C_15  and  C_16
REMARK    7  A    between atoms: C_16  and  C_17
REMARK    8  A    between atoms: C_16  and  C_18
REMARK                            x       y       z     vdW  Elec       q    Type
REMARK                         _______ _______ _______ _____ _____    ______ ____
ROOT
ATOM      1  C   UNL     1       7.763   6.896  17.978  0.00  0.00    +0.000 C 
ATOM      2  O   UNL     1       7.568   6.900  16.765  0.00  0.00    +0.000 OA
ENDROOT
BRANCH   1   3
ATOM      3  C   UNL     1       7.368   5.721  18.812  0.00  0.00    +0.000 C 
ATOM      4  C   UNL     1       6.251   5.025  18.578  0.00  0.00    +0.000 C 
ATOM      5  N   UNL     1       5.361   5.266  17.594  0.00  0.00    +0.000 N 
ATOM      6  C   UNL     1       4.286   4.428  17.662  0.00  0.00    +0.000 C 
ATOM      7  O   UNL     1       3.322   4.426  16.917  0.00  0.00    +0.000 OA
ATOM      8  C   UNL     1       4.571   3.500  18.833  0.00  0.00    +0.000 C 
ATOM      9  O   UNL     1       5.855   3.959  19.362  0.00  0.00    +0.000 OA
ATOM     10  H   UNL     1       5.474   5.999  16.899  0.00  0.00    +0.000 HD
BRANCH   8  11
ATOM     11  C   UNL     1       3.525   3.534  19.959  0.00  0.00    +0.000 C 
ATOM     12  C   UNL     1       2.899   4.915  20.159  0.00  0.00    +0.000 C 
ATOM     13  C   UNL     1       2.409   2.521  19.671  0.00  0.00    +0.000 C 
ENDBRANCH   8  11
ENDBRANCH   1   3
BRANCH   1  14
ATOM     14  C   UNL     1       8.435   8.056  18.690  0.00  0.00    +0.000 C 
BRANCH  14  15
ATOM     15  C   UNL     1       8.295   9.338  17.869  0.00  0.00    +0.000 C 
BRANCH  15  20
ATOM     16  C   UNL     1      10.815  13.955  20.378  0.00  0.00    +0.000 C 
ATOM     17  C   UNL     1      10.191  12.764  19.713  0.00  0.00    +0.000 A 
ATOM     18  C   UNL     1       9.600  12.870  18.451  0.00  0.00    +0.000 A 
ATOM     19  C   UNL     1       9.003  11.759  17.851  0.00  0.00    +0.000 A 
ATOM     20  C   UNL     1       8.979  10.522  18.506  0.00  0.00    +0.000 A 
ATOM     21  C   UNL     1       9.584  10.411  19.763  0.00  0.00    +0.000 A 
ATOM     22  C   UNL     1      10.183  11.524  20.362  0.00  0.00    +0.000 A 
ENDBRANCH  15  20
ENDBRANCH  14  15
ENDBRANCH   1  14
TORSDOF 5
ENDMDL
MODEL 8
REMARK VINA RESULT:      -7.4      2.433      5.992
REMARK  Name = 
REMARK  8 active torsions:
REMARK  status: ('A' for Active; 'I' for Inactive)
REMARK    1  A    between atoms: C_1  and  C_2
REMARK    2  A    between atoms: C_5  and  C_6
REMARK    3  A    between atoms: C_6  and  C_7
REMARK    4  A    between atoms: C_7  and  C_8
REMARK    5  A    between atoms: C_8  and  C_10
REMARK    6  A    between atoms: C_15  and  C_16
REMARK    7  A    between atoms: C_16  and  C_17
REMARK    8  A    between atoms: C_16  and  C_18
REMARK                            x       y       z     vdW  Elec       q    Type
REMARK                         _______ _______ _______ _____ _____    ______ ____
ROOT
ATOM      1  C   UNL     1       3.397   2.266  19.747  0.00  0.00    +0.000 C 
ATOM      2  O   UNL     1       4.129   1.979  20.692  0.00  0.00    +0.000 OA
ENDROOT
BRANCH   1   3
ATOM      3  C   UNL     1       3.958   2.862  18.498  0.00  0.00    +0.000 C 
ATOM      4  C   UNL     1       4.984   3.719  18.516  0.00  0.00    +0.000 C 
ATOM      5  N   UNL     1       5.638   4.146  19.615  0.00  0.00    +0.000 N 
ATOM      6  C   UNL     1       6.591   5.075  19.314  0.00  0.00    +0.000 C 
ATOM      7  O   UNL     1       7.321   5.645  20.104  0.00  0.00    +0.000 OA
ATOM      8  C   UNL     1       6.554   5.214  17.800  0.00  0.00    +0.000 C 
ATOM      9  O   UNL     1       5.491   4.305  17.372  0.00  0.00    +0.000 OA
ATOM     10  H   UNL     1       5.428   3.824  20.557  0.00  0.00    +0.000 HD
BRANCH   8  11
ATOM     11  C   UNL     1       6.242   6.628  17.283  0.00  0.00    +0.000 C 
ATOM     12  C   UNL     1       7.489   7.497  17.115  0.00  0.00    +0.000 C 
ATOM     13  C   UNL     1       5.509   6.546  15.937  0.00  0.00    +0.000 C 
ENDBRANCH   8  11
ENDBRANCH   1   3
BRANCH   1  14
ATOM     14  C   UNL     1       1.901   2.010  19.781  0.00  0.00    +0.000 C 
BRANCH  14  15
ATOM     15  C   UNL     1       1.169   3.210  20.384  0.00  0.00    +0.000 C 
BRANCH  15  20
ATOM     16  C   UNL     1       2.771   8.221  17.876  0.00  0.00    +0.000 C 
ATOM     17  C   UNL     1       2.332   6.944  18.531  0.00  0.00    +0.000 A 
ATOM     18  C   UNL     1       2.401   6.786  19.918  0.00  0.00    +0.000 A 
ATOM     19  C   UNL     1       2.010   5.584  20.515  0.00  0.00    +0.000 A 
ATOM     20  C   UNL     1       1.549   4.517  19.734  0.00  0.00    +0.000 A 
ATOM     21  C   UNL     1       1.466   4.681  18.347  0.00  0.00    +0.000 A 
ATOM     22  C   UNL     1       1.856   5.884  17.751  0.00  0.00    +0.000 A 
ENDBRANCH  15  20
ENDBRANCH  14  15
ENDBRANCH   1  14
TORSDOF 5
ENDMDL
MODEL 9
REMARK VINA RESULT:      -7.4      2.736      6.270
REMARK  Name = 
REMARK  8 active torsions:
REMARK  status: ('A' for Active; 'I' for Inactive)
REMARK    1  A    between atoms: C_1  and  C_2
REMARK    2  A    between atoms: C_5  and  C_6
REMARK    3  A    between atoms: C_6  and  C_7
REMARK    4  A    between atoms: C_7  and  C_8
REMARK    5  A    between atoms: C_8  and  C_10
REMARK    6  A    between atoms: C_15  and  C_16
REMARK    7  A    between atoms: C_16  and  C_17
REMARK    8  A    between atoms: C_16  and  C_18
REMARK                            x       y       z     vdW  Elec       q    Type
REMARK                         _______ _______ _______ _____ _____    ______ ____
ROOT
ATOM      1  C   UNL     1       2.485   3.080  19.960  0.00  0.00    +0.000 C 
ATOM      2  O   UNL     1       3.059   2.346  20.763  0.00  0.00    +0.000 OA
ENDROOT
BRANCH   1   3
ATOM      3  C   UNL     1       2.771   2.985  18.498  0.00  0.00    +0.000 C 
ATOM      4  C   UNL     1       3.954   3.328  17.979  0.00  0.00    +0.000 C 
ATOM      5  N   UNL     1       5.018   3.784  18.671  0.00  0.00    +0.000 N 
ATOM      6  C   UNL     1       6.055   4.120  17.850  0.00  0.00    +0.000 C 
ATOM      7  O   UNL     1       7.132   4.573  18.193  0.00  0.00    +0.000 OA
ATOM      8  C   UNL     1       5.583   3.781  16.444  0.00  0.00    +0.000 C 
ATOM      9  O   UNL     1       4.221   3.279  16.625  0.00  0.00    +0.000 OA
ATOM     10  H   UNL     1       5.032   3.882  19.683  0.00  0.00    +0.000 HD
BRANCH   8  11
ATOM     11  C   UNL     1       5.554   4.965  15.464  0.00  0.00    +0.000 C 
ATOM     12  C   UNL     1       5.256   6.303  16.144  0.00  0.00    +0.000 C 
ATOM     13  C   UNL     1       6.897   5.071  14.728  0.00  0.00    +0.000 C 
ENDBRANCH   8  11
ENDBRANCH   1   3
BRANCH   1  14
ATOM     14  C   UNL     1       1.444   4.094  20.398  0.00  0.00    +0.000 C 
BRANCH  14  15
ATOM     15  C   UNL     1       2.118   5.306  21.041  0.00  0.00    +0.000 C 
BRANCH  15  20
ATOM     16  C   UNL     1       1.742  10.196  17.893  0.00  0.00    +0.000 C 
ATOM     17  C   UNL     1       1.809   8.932  18.698  0.00  0.00    +0.000 A 
ATOM     18  C   UNL     1       1.300   8.879  19.999  0.00  0.00    +0.000 A 
ATOM     19  C   UNL     1       1.387   7.702  20.747  0.00  0.00    +0.000 A 
ATOM     20  C   UNL     1       1.991   6.559  20.210  0.00  0.00    +0.000 A 
ATOM     21  C   UNL     1       2.486   6.608  18.903  0.00  0.00    +0.000 A 
ATOM     22  C   UNL     1       2.398   7.785  18.154  0.00  0.00    +0.000 A 
ENDBRANCH  15  20
ENDBRANCH  14  15
ENDBRANCH   1  14
TORSDOF 5
ENDMDL
