MODEL 1
REMARK VINA RESULT:      -8.0      0.000      0.000
REMARK  Name = 
REMARK  10 active torsions:
REMARK  status: ('A' for Active; 'I' for Inactive)
REMARK    1  A    between atoms: C_1  and  N_2
REMARK    2  A    between atoms: N_2  and  C_3
REMARK    3  A    between atoms: N_2  and  C_24
REMARK    4  A    between atoms: C_3  and  C_4
REMARK    5  A    between atoms: N_6  and  C_7
REMARK    6  A    between atoms: C_12  and  C_13
REMARK    7  A    between atoms: N_15  and  C_16
REMARK    8  A    between atoms: C_16  and  C_17
REMARK    9  A    between atoms: C_17  and  C_18
REMARK   10  A    between atoms: C_24  and  C_25
REMARK                            x       y       z     vdW  Elec       q    Type
REMARK                         _______ _______ _______ _____ _____    ______ ____
ROOT
ATOM      1  C   UNL     1       3.772   4.199  19.165  0.00  0.00    +0.000 A 
ATOM      2  C   UNL     1       3.466   2.903  19.638  0.00  0.00    +0.000 A 
ATOM      3  C   UNL     1       2.351   2.651  20.445  0.00  0.00    +0.000 A 
ATOM      4  C   UNL     1       1.500   3.690  20.783  0.00  0.00    +0.000 A 
ATOM      5  C   UNL     1       1.771   4.974  20.314  0.00  0.00    +0.000 A 
ATOM      6  C   UNL     1       2.898   5.256  19.501  0.00  0.00    +0.000 A 
ENDROOT
BRANCH   1   9
ATOM      7  C   UNL     1       6.146   4.705  18.640  0.00  0.00    +0.000 C 
ATOM      8  O   UNL     1       6.424   5.192  19.737  0.00  0.00    +0.000 OA
ATOM      9  N   UNL     1       4.885   4.253  18.282  0.00  0.00    +0.000 N 
ATOM     10  H   UNL     1       4.905   3.524  17.578  0.00  0.00    +0.000 HD
BRANCH   7  11
ATOM     11  C   UNL     1       7.231   4.498  17.563  0.00  0.00    +0.000 C 
BRANCH  11  13
ATOM     12  C   UNL     1       7.476   6.893  17.506  0.00  0.00    +0.000 C 
ATOM     13  N   UNL     1       7.402   5.678  16.685  0.00  0.00    +0.000 NA
BRANCH  13  14
ATOM     14  C   UNL     1       6.283   5.795  15.725  0.00  0.00    +0.000 C 
BRANCH  14  15
ATOM     15  C   UNL     1       6.504   5.028  14.444  0.00  0.00    +0.000 A 
ATOM     16  C   UNL     1       7.491   5.221  13.495  0.00  0.00    +0.000 A 
ATOM     17  C   UNL     1       7.360   4.339  12.383  0.00  0.00    +0.000 A 
ATOM     18  C   UNL     1       6.282   3.495  12.521  0.00  0.00    +0.000 A 
ATOM     19  S   UNL     1       5.450   3.751  13.990  0.00  0.00    +0.000 S 
ENDBRANCH  14  15
ENDBRANCH  13  14
ENDBRANCH  11  13
ENDBRANCH   7  11
ENDBRANCH   1   9
BRANCH   6  20
ATOM     20  C   UNL     1       2.856   6.625  18.909  0.00  0.00    +0.000 C 
ATOM     21  O   UNL     1       3.492   6.846  17.878  0.00  0.00    +0.000 OA
ATOM     22  N   UNL     1       2.057   7.576  19.487  0.00  0.00    +0.000 N 
ATOM     23  H   UNL     1       1.407   7.287  20.217  0.00  0.00    +0.000 HD
BRANCH  22  24
ATOM     24  C   UNL     1       1.935   8.910  18.933  0.00  0.00    +0.000 C 
BRANCH  24  25
ATOM     25  C   UNL     1       0.545   9.521  19.103  0.00  0.00    +0.000 C 
BRANCH  25  26
ATOM     26  C   UNL     1       0.111   9.954  20.492  0.00  0.00    +0.000 A 
ATOM     27  C   UNL     1      -0.280  11.261  20.817  0.00  0.00    +0.000 A 
ATOM     28  C   UNL     1      -0.741  11.571  22.101  0.00  0.00    +0.000 A 
ATOM     29  C   UNL     1      -0.831  10.580  23.076  0.00  0.00    +0.000 A 
ATOM     30  C   UNL     1      -0.458   9.274  22.762  0.00  0.00    +0.000 A 
ATOM     31  C   UNL     1       0.002   8.965  21.483  0.00  0.00    +0.000 A 
ENDBRANCH  25  26
ENDBRANCH  24  25
ENDBRANCH  22  24
ENDBRANCH   6  20
TORSDOF 9
ENDMDL
MODEL 2
REMARK VINA RESULT:      -7.8      3.369      7.705
REMARK  Name = 
REMARK  10 active torsions:
REMARK  status: ('A' for Active; 'I' for Inactive)
REMARK    1  A    between atoms: C_1  and  N_2
REMARK    2  A    between atoms: N_2  and  C_3
REMARK    3  A    between atoms: N_2  and  C_24
REMARK    4  A    between atoms: C_3  and  C_4
REMARK    5  A    between atoms: N_6  and  C_7
REMARK    6  A    between atoms: C_12  and  C_13
REMARK    7  A    between atoms: N_15  and  C_16
REMARK    8  A    between atoms: C_16  and  C_17
REMARK    9  A    between atoms: C_17  and  C_18
REMARK   10  A    between atoms: C_24  and  C_25
REMARK                            x       y       z     vdW  Elec       q    Type
REMARK                         _______ _______ _______ _____ _____    ______ ____
ROOT
ATOM      1  C   UNL     1       5.576   4.373  17.153  0.00  0.00    +0.000 A 
ATOM      2  C   UNL     1       5.266   3.539  16.053  0.00  0.00    +0.000 A 
ATOM      3  C   UNL     1       5.789   3.771  14.776  0.00  0.00    +0.000 A 
ATOM      4  C   UNL     1       6.652   4.834  14.571  0.00  0.00    +0.000 A 
ATOM      5  C   UNL     1       6.986   5.659  15.643  0.00  0.00    +0.000 A 
ATOM      6  C   UNL     1       6.464   5.449  16.944  0.00  0.00    +0.000 A 
ENDROOT
BRANCH   1   9
ATOM      7  C   UNL     1       4.001   3.014  18.511  0.00  0.00    +0.000 C 
ATOM      8  O   UNL     1       3.379   2.540  17.559  0.00  0.00    +0.000 OA
ATOM      9  N   UNL     1       5.033   3.932  18.392  0.00  0.00    +0.000 N 
ATOM     10  H   UNL     1       5.697   3.892  19.156  0.00  0.00    +0.000 HD
BRANCH   7  11
ATOM     11  C   UNL     1       3.710   2.561  19.956  0.00  0.00    +0.000 C 
BRANCH  11  13
ATOM     12  C   UNL     1       1.995   2.700  21.641  0.00  0.00    +0.000 C 
ATOM     13  N   UNL     1       2.779   3.468  20.667  0.00  0.00    +0.000 NA
BRANCH  13  14
ATOM     14  C   UNL     1       1.868   4.146  19.720  0.00  0.00    +0.000 C 
BRANCH  14  15
ATOM     15  C   UNL     1       1.902   5.651  19.820  0.00  0.00    +0.000 A 
ATOM     16  C   UNL     1       1.462   6.445  20.864  0.00  0.00    +0.000 A 
ATOM     17  C   UNL     1       1.605   7.836  20.590  0.00  0.00    +0.000 A 
ATOM     18  C   UNL     1       2.158   8.062  19.350  0.00  0.00    +0.000 A 
ATOM     19  S   UNL     1       2.520   6.606  18.534  0.00  0.00    +0.000 S 
ENDBRANCH  14  15
ENDBRANCH  13  14
ENDBRANCH  11  13
ENDBRANCH   7  11
ENDBRANCH   1   9
BRANCH   6  20
ATOM     20  C   UNL     1       7.143   6.283  17.981  0.00  0.00    +0.000 C 
ATOM     21  O   UNL     1       7.198   5.863  19.137  0.00  0.00    +0.000 OA
ATOM     22  N   UNL     1       7.743   7.454  17.604  0.00  0.00    +0.000 N 
ATOM     23  H   UNL     1       7.835   7.656  16.609  0.00  0.00    +0.000 HD
BRANCH  22  24
ATOM     24  C   UNL     1       8.460   8.284  18.552  0.00  0.00    +0.000 C 
BRANCH  24  25
ATOM     25  C   UNL     1       8.478   9.767  18.181  0.00  0.00    +0.000 C 
BRANCH  25  26
ATOM     26  C   UNL     1       9.558  10.649  18.780  0.00  0.00    +0.000 A 
ATOM     27  C   UNL     1      10.574  11.258  18.029  0.00  0.00    +0.000 A 
ATOM     28  C   UNL     1      11.493  12.121  18.637  0.00  0.00    +0.000 A 
ATOM     29  C   UNL     1      11.403  12.398  20.000  0.00  0.00    +0.000 A 
ATOM     30  C   UNL     1      10.390  11.809  20.754  0.00  0.00    +0.000 A 
ATOM     31  C   UNL     1       9.476  10.949  20.149  0.00  0.00    +0.000 A 
ENDBRANCH  25  26
ENDBRANCH  24  25
ENDBRANCH  22  24
ENDBRANCH   6  20
TORSDOF 9
ENDMDL
MODEL 3
REMARK VINA RESULT:      -7.8      3.494      7.786
REMARK  Name = 
REMARK  10 active torsions:
REMARK  status: ('A' for Active; 'I' for Inactive)
REMARK    1  A    between atoms: C_1  and  N_2
REMARK    2  A    between atoms: N_2  and  C_3
REMARK    3  A    between atoms: N_2  and  C_24
REMARK    4  A    between atoms: C_3  and  C_4
REMARK    5  A    between atoms: N_6  and  C_7
REMARK    6  A    between atoms: C_12  and  C_13
REMARK    7  A    between atoms: N_15  and  C_16
REMARK    8  A    between atoms: C_16  and  C_17
REMARK    9  A    between atoms: C_17  and  C_18
REMARK   10  A    between atoms: C_24  and  C_25
REMARK                            x       y       z     vdW  Elec       q    Type
REMARK                         _______ _______ _______ _____ _____    ______ ____
ROOT
ATOM      1  C   UNL     1       5.303   5.720  16.920  0.00  0.00    +0.000 A 
ATOM      2  C   UNL     1       4.780   4.783  15.999  0.00  0.00    +0.000 A 
ATOM      3  C   UNL     1       5.538   4.288  14.932  0.00  0.00    +0.000 A 
ATOM      4  C   UNL     1       6.850   4.704  14.772  0.00  0.00    +0.000 A 
ATOM      5  C   UNL     1       7.393   5.613  15.678  0.00  0.00    +0.000 A 
ATOM      6  C   UNL     1       6.643   6.134  16.762  0.00  0.00    +0.000 A 
ENDROOT
BRANCH   1   9
ATOM      7  C   UNL     1       4.391   5.362  19.202  0.00  0.00    +0.000 C 
ATOM      8  O   UNL     1       5.055   4.356  19.455  0.00  0.00    +0.000 OA
ATOM      9  N   UNL     1       4.424   6.038  17.992  0.00  0.00    +0.000 N 
ATOM     10  H   UNL     1       4.193   7.021  18.075  0.00  0.00    +0.000 HD
BRANCH   7  11
ATOM     11  C   UNL     1       3.482   6.005  20.271  0.00  0.00    +0.000 C 
BRANCH  11  13
ATOM     12  C   UNL     1       1.825   7.751  20.205  0.00  0.00    +0.000 C 
ATOM     13  N   UNL     1       2.158   6.400  19.738  0.00  0.00    +0.000 NA
BRANCH  13  14
ATOM     14  C   UNL     1       1.107   5.453  20.167  0.00  0.00    +0.000 C 
BRANCH  14  15
ATOM     15  C   UNL     1       1.320   4.045  19.666  0.00  0.00    +0.000 A 
ATOM     16  C   UNL     1       1.433   2.884  20.409  0.00  0.00    +0.000 A 
ATOM     17  C   UNL     1       1.682   1.739  19.599  0.00  0.00    +0.000 A 
ATOM     18  C   UNL     1       1.743   2.058  18.262  0.00  0.00    +0.000 A 
ATOM     19  S   UNL     1       1.480   3.723  17.987  0.00  0.00    +0.000 S 
ENDBRANCH  14  15
ENDBRANCH  13  14
ENDBRANCH  11  13
ENDBRANCH   7  11
ENDBRANCH   1   9
BRANCH   6  20
ATOM     20  C   UNL     1       7.485   6.884  17.740  0.00  0.00    +0.000 C 
ATOM     21  O   UNL     1       7.972   6.275  18.693  0.00  0.00    +0.000 OA
ATOM     22  N   UNL     1       7.748   8.208  17.513  0.00  0.00    +0.000 N 
ATOM     23  H   UNL     1       7.483   8.610  16.615  0.00  0.00    +0.000 HD
BRANCH  22  24
ATOM     24  C   UNL     1       8.598   8.980  18.399  0.00  0.00    +0.000 C 
BRANCH  24  25
ATOM     25  C   UNL     1       8.787  10.432  17.960  0.00  0.00    +0.000 C 
BRANCH  25  26
ATOM     26  C   UNL     1       9.920  11.232  18.575  0.00  0.00    +0.000 A 
ATOM     27  C   UNL     1      10.144  11.335  19.956  0.00  0.00    +0.000 A 
ATOM     28  C   UNL     1      11.255  12.028  20.450  0.00  0.00    +0.000 A 
ATOM     29  C   UNL     1      12.165  12.617  19.574  0.00  0.00    +0.000 A 
ATOM     30  C   UNL     1      11.960  12.510  18.199  0.00  0.00    +0.000 A 
ATOM     31  C   UNL     1      10.854  11.821  17.708  0.00  0.00    +0.000 A 
ENDBRANCH  25  26
ENDBRANCH  24  25
ENDBRANCH  22  24
ENDBRANCH   6  20
TORSDOF 9
ENDMDL
MODEL 4
REMARK VINA RESULT:      -7.7      3.662      7.757
REMARK  Name = 
REMARK  10 active torsions:
REMARK  status: ('A' for Active; 'I' for Inactive)
REMARK    1  A    between atoms: C_1  and  N_2
REMARK    2  A    between atoms: N_2  and  C_3
REMARK    3  A    between atoms: N_2  and  C_24
REMARK    4  A    between atoms: C_3  and  C_4
REMARK    5  A    between atoms: N_6  and  C_7
REMARK    6  A    between atoms: C_12  and  C_13
REMARK    7  A    between atoms: N_15  and  C_16
REMARK    8  A    between atoms: C_16  and  C_17
REMARK    9  A    between atoms: C_17  and  C_18
REMARK   10  A    between atoms: C_24  and  C_25
REMARK                            x       y       z     vdW  Elec       q    Type
REMARK                         _______ _______ _______ _____ _____    ______ ____
ROOT
ATOM      1  C   UNL     1       5.239   5.758  16.961  0.00  0.00    +0.000 A 
ATOM      2  C   UNL     1       4.676   4.825  16.060  0.00  0.00    +0.000 A 
ATOM      3  C   UNL     1       5.413   4.278  15.003  0.00  0.00    +0.000 A 
ATOM      4  C   UNL     1       6.740   4.636  14.833  0.00  0.00    +0.000 A 
ATOM      5  C   UNL     1       7.321   5.541  15.720  0.00  0.00    +0.000 A 
ATOM      6  C   UNL     1       6.594   6.114  16.794  0.00  0.00    +0.000 A 
ENDROOT
BRANCH   1   9
ATOM      7  C   UNL     1       4.292   5.466  19.239  0.00  0.00    +0.000 C 
ATOM      8  O   UNL     1       4.890   4.421  19.498  0.00  0.00    +0.000 OA
ATOM      9  N   UNL     1       4.376   6.135  18.027  0.00  0.00    +0.000 N 
ATOM     10  H   UNL     1       4.207   7.131  18.106  0.00  0.00    +0.000 HD
BRANCH   7  11
ATOM     11  C   UNL     1       3.420   6.168  20.300  0.00  0.00    +0.000 C 
BRANCH  11  13
ATOM     12  C   UNL     1       1.620   7.768  20.294  0.00  0.00    +0.000 C 
ATOM     13  N   UNL     1       2.045   6.444  19.822  0.00  0.00    +0.000 NA
BRANCH  13  14
ATOM     14  C   UNL     1       1.097   5.417  20.304  0.00  0.00    +0.000 C 
BRANCH  14  15
ATOM     15  C   UNL     1       1.350   4.044  19.731  0.00  0.00    +0.000 A 
ATOM     16  C   UNL     1       1.366   3.667  18.401  0.00  0.00    +0.000 A 
ATOM     17  C   UNL     1       1.589   2.269  18.232  0.00  0.00    +0.000 A 
ATOM     18  C   UNL     1       1.745   1.625  19.438  0.00  0.00    +0.000 A 
ATOM     19  S   UNL     1       1.644   2.701  20.760  0.00  0.00    +0.000 S 
ENDBRANCH  14  15
ENDBRANCH  13  14
ENDBRANCH  11  13
ENDBRANCH   7  11
ENDBRANCH   1   9
BRANCH   6  20
ATOM     20  C   UNL     1       7.468   6.848  17.756  0.00  0.00    +0.000 C 
ATOM     21  O   UNL     1       8.034   6.214  18.647  0.00  0.00    +0.000 OA
ATOM     22  N   UNL     1       7.670   8.191  17.580  0.00  0.00    +0.000 N 
ATOM     23  H   UNL     1       7.337   8.625  16.720  0.00  0.00    +0.000 HD
BRANCH  22  24
ATOM     24  C   UNL     1       8.545   8.952  18.451  0.00  0.00    +0.000 C 
BRANCH  24  25
ATOM     25  C   UNL     1       8.777  10.389  17.986  0.00  0.00    +0.000 C 
BRANCH  25  26
ATOM     26  C   UNL     1       9.977  11.141  18.531  0.00  0.00    +0.000 A 
ATOM     27  C   UNL     1      10.967  11.722  17.725  0.00  0.00    +0.000 A 
ATOM     28  C   UNL     1      12.007  12.466  18.294  0.00  0.00    +0.000 A 
ATOM     29  C   UNL     1      12.066  12.653  19.674  0.00  0.00    +0.000 A 
ATOM     30  C   UNL     1      11.080  12.092  20.484  0.00  0.00    +0.000 A 
ATOM     31  C   UNL     1      10.047  11.349  19.918  0.00  0.00    +0.000 A 
ENDBRANCH  25  26
ENDBRANCH  24  25
ENDBRANCH  22  24
ENDBRANCH   6  20
TORSDOF 9
ENDMDL
MODEL 5
REMARK VINA RESULT:      -7.6      4.471      9.687
REMARK  Name = 
REMARK  10 active torsions:
REMARK  status: ('A' for Active; 'I' for Inactive)
REMARK    1  A    between atoms: C_1  and  N_2
REMARK    2  A    between atoms: N_2  and  C_3
REMARK    3  A    between atoms: N_2  and  C_24
REMARK    4  A    between atoms: C_3  and  C_4
REMARK    5  A    between atoms: N_6  and  C_7
REMARK    6  A    between atoms: C_12  and  C_13
REMARK    7  A    between atoms: N_15  and  C_16
REMARK    8  A    between atoms: C_16  and  C_17
REMARK    9  A    between atoms: C_17  and  C_18
REMARK   10  A    between atoms: C_24  and  C_25
REMARK                            x       y       z     vdW  Elec       q    Type
REMARK                         _______ _______ _______ _____ _____    ______ ____
ROOT
ATOM      1  C   UNL     1      -0.526   9.980  20.445  0.00  0.00    +0.000 A 
ATOM      2  C   UNL     1      -0.989  10.447  21.696  0.00  0.00    +0.000 A 
ATOM      3  C   UNL     1      -0.311  10.169  22.889  0.00  0.00    +0.000 A 
ATOM      4  C   UNL     1       0.862   9.433  22.856  0.00  0.00    +0.000 A 
ATOM      5  C   UNL     1       1.348   8.977  21.631  0.00  0.00    +0.000 A 
ATOM      6  C   UNL     1       0.675   9.239  20.411  0.00  0.00    +0.000 A 
ENDROOT
BRANCH   1   9
ATOM      7  C   UNL     1      -1.049  11.627  18.660  0.00  0.00    +0.000 C 
ATOM      8  O   UNL     1      -0.211  12.463  19.000  0.00  0.00    +0.000 OA
ATOM      9  N   UNL     1      -1.286  10.437  19.332  0.00  0.00    +0.000 N 
ATOM     10  H   UNL     1      -1.650   9.704  18.735  0.00  0.00    +0.000 HD
BRANCH   7  11
ATOM     11  C   UNL     1      -1.888  11.817  17.379  0.00  0.00    +0.000 C 
BRANCH  11  13
ATOM     12  C   UNL     1      -2.774   9.938  16.159  0.00  0.00    +0.000 C 
ATOM     13  N   UNL     1      -3.012  10.856  17.280  0.00  0.00    +0.000 NA
BRANCH  13  14
ATOM     14  C   UNL     1      -4.298  11.558  17.082  0.00  0.00    +0.000 C 
BRANCH  14  15
ATOM     15  C   UNL     1      -5.211  11.496  18.282  0.00  0.00    +0.000 A 
ATOM     16  C   UNL     1      -6.365  10.750  18.437  0.00  0.00    +0.000 A 
ATOM     17  C   UNL     1      -7.001  10.981  19.691  0.00  0.00    +0.000 A 
ATOM     18  C   UNL     1      -6.309  11.890  20.458  0.00  0.00    +0.000 A 
ATOM     19  S   UNL     1      -4.893  12.442  19.680  0.00  0.00    +0.000 S 
ENDBRANCH  14  15
ENDBRANCH  13  14
ENDBRANCH  11  13
ENDBRANCH   7  11
ENDBRANCH   1   9
BRANCH   6  20
ATOM     20  C   UNL     1       1.492   8.884  19.213  0.00  0.00    +0.000 C 
ATOM     21  O   UNL     1       1.621   9.716  18.315  0.00  0.00    +0.000 OA
ATOM     22  N   UNL     1       2.131   7.673  19.179  0.00  0.00    +0.000 N 
ATOM     23  H   UNL     1       2.148   7.108  20.027  0.00  0.00    +0.000 HD
BRANCH  22  24
ATOM     24  C   UNL     1       2.978   7.288  18.067  0.00  0.00    +0.000 C 
BRANCH  24  25
ATOM     25  C   UNL     1       3.575   5.888  18.205  0.00  0.00    +0.000 C 
BRANCH  25  26
ATOM     26  C   UNL     1       2.737   4.806  18.861  0.00  0.00    +0.000 A 
ATOM     27  C   UNL     1       2.756   4.530  20.236  0.00  0.00    +0.000 A 
ATOM     28  C   UNL     1       1.899   3.567  20.783  0.00  0.00    +0.000 A 
ATOM     29  C   UNL     1       1.003   2.877  19.969  0.00  0.00    +0.000 A 
ATOM     30  C   UNL     1       0.966   3.153  18.603  0.00  0.00    +0.000 A 
ATOM     31  C   UNL     1       1.820   4.109  18.058  0.00  0.00    +0.000 A 
ENDBRANCH  25  26
ENDBRANCH  24  25
ENDBRANCH  22  24
ENDBRANCH   6  20
TORSDOF 9
ENDMDL
MODEL 6
REMARK VINA RESULT:      -7.5      3.620      7.569
REMARK  Name = 
REMARK  10 active torsions:
REMARK  status: ('A' for Active; 'I' for Inactive)
REMARK    1  A    between atoms: C_1  and  N_2
REMARK    2  A    between atoms: N_2  and  C_3
REMARK    3  A    between atoms: N_2  and  C_24
REMARK    4  A    between atoms: C_3  and  C_4
REMARK    5  A    between atoms: N_6  and  C_7
REMARK    6  A    between atoms: C_12  and  C_13
REMARK    7  A    between atoms: N_15  and  C_16
REMARK    8  A    between atoms: C_16  and  C_17
REMARK    9  A    between atoms: C_17  and  C_18
REMARK   10  A    between atoms: C_24  and  C_25
REMARK                            x       y       z     vdW  Elec       q    Type
REMARK                         _______ _______ _______ _____ _____    ______ ____
ROOT
ATOM      1  C   UNL     1       5.545   5.355  17.301  0.00  0.00    +0.000 A 
ATOM      2  C   UNL     1       5.055   4.384  16.398  0.00  0.00    +0.000 A 
ATOM      3  C   UNL     1       5.665   4.146  15.161  0.00  0.00    +0.000 A 
ATOM      4  C   UNL     1       6.796   4.862  14.805  0.00  0.00    +0.000 A 
ATOM      5  C   UNL     1       7.308   5.812  15.686  0.00  0.00    +0.000 A 
ATOM      6  C   UNL     1       6.704   6.076  16.942  0.00  0.00    +0.000 A 
ENDROOT
BRANCH   1   9
ATOM      7  C   UNL     1       3.772   6.211  18.815  0.00  0.00    +0.000 C 
ATOM      8  O   UNL     1       3.328   7.056  18.036  0.00  0.00    +0.000 OA
ATOM      9  N   UNL     1       4.860   5.395  18.547  0.00  0.00    +0.000 N 
ATOM     10  H   UNL     1       4.833   4.513  19.046  0.00  0.00    +0.000 HD
BRANCH   7  11
ATOM     11  C   UNL     1       3.090   5.945  20.173  0.00  0.00    +0.000 C 
BRANCH  11  13
ATOM     12  C   UNL     1       1.009   6.763  21.068  0.00  0.00    +0.000 C 
ATOM     13  N   UNL     1       1.614   5.871  20.071  0.00  0.00    +0.000 NA
BRANCH  13  14
ATOM     14  C   UNL     1       1.133   4.489  20.284  0.00  0.00    +0.000 C 
BRANCH  14  15
ATOM     15  C   UNL     1       1.850   3.463  19.441  0.00  0.00    +0.000 A 
ATOM     16  C   UNL     1       1.649   3.168  18.105  0.00  0.00    +0.000 A 
ATOM     17  C   UNL     1       2.476   2.100  17.651  0.00  0.00    +0.000 A 
ATOM     18  C   UNL     1       3.289   1.619  18.651  0.00  0.00    +0.000 A 
ATOM     19  S   UNL     1       3.070   2.463  20.119  0.00  0.00    +0.000 S 
ENDBRANCH  14  15
ENDBRANCH  13  14
ENDBRANCH  11  13
ENDBRANCH   7  11
ENDBRANCH   1   9
BRANCH   6  20
ATOM     20  C   UNL     1       7.551   6.936  17.821  0.00  0.00    +0.000 C 
ATOM     21  O   UNL     1       8.143   6.415  18.767  0.00  0.00    +0.000 OA
ATOM     22  N   UNL     1       7.701   8.261  17.511  0.00  0.00    +0.000 N 
ATOM     23  H   UNL     1       7.350   8.593  16.614  0.00  0.00    +0.000 HD
BRANCH  22  24
ATOM     24  C   UNL     1       8.548   9.137  18.296  0.00  0.00    +0.000 C 
BRANCH  24  25
ATOM     25  C   UNL     1       8.587  10.576  17.783  0.00  0.00    +0.000 C 
BRANCH  25  26
ATOM     26  C   UNL     1       9.578  11.541  18.409  0.00  0.00    +0.000 A 
ATOM     27  C   UNL     1       9.214  12.577  19.282  0.00  0.00    +0.000 A 
ATOM     28  C   UNL     1      10.189  13.382  19.882  0.00  0.00    +0.000 A 
ATOM     29  C   UNL     1      11.541  13.155  19.632  0.00  0.00    +0.000 A 
ATOM     30  C   UNL     1      11.916  12.120  18.777  0.00  0.00    +0.000 A 
ATOM     31  C   UNL     1      10.945  11.320  18.178  0.00  0.00    +0.000 A 
ENDBRANCH  25  26
ENDBRANCH  24  25
ENDBRANCH  22  24
ENDBRANCH   6  20
TORSDOF 9
ENDMDL
MODEL 7
REMARK VINA RESULT:      -7.5      0.866      1.094
REMARK  Name = 
REMARK  10 active torsions:
REMARK  status: ('A' for Active; 'I' for Inactive)
REMARK    1  A    between atoms: C_1  and  N_2
REMARK    2  A    between atoms: N_2  and  C_3
REMARK    3  A    between atoms: N_2  and  C_24
REMARK    4  A    between atoms: C_3  and  C_4
REMARK    5  A    between atoms: N_6  and  C_7
REMARK    6  A    between atoms: C_12  and  C_13
REMARK    7  A    between atoms: N_15  and  C_16
REMARK    8  A    between atoms: C_16  and  C_17
REMARK    9  A    between atoms: C_17  and  C_18
REMARK   10  A    between atoms: C_24  and  C_25
REMARK                            x       y       z     vdW  Elec       q    Type
REMARK                         _______ _______ _______ _____ _____    ______ ____
ROOT
ATOM      1  C   UNL     1       3.868   4.753  19.181  0.00  0.00    +0.000 A 
ATOM      2  C   UNL     1       3.603   3.506  19.792  0.00  0.00    +0.000 A 
ATOM      3  C   UNL     1       2.501   3.311  20.632  0.00  0.00    +0.000 A 
ATOM      4  C   UNL     1       1.623   4.356  20.866  0.00  0.00    +0.000 A 
ATOM      5  C   UNL     1       1.854   5.590  20.261  0.00  0.00    +0.000 A 
ATOM      6  C   UNL     1       2.967   5.815  19.412  0.00  0.00    +0.000 A 
ENDROOT
BRANCH   1   9
ATOM      7  C   UNL     1       6.285   4.996  18.661  0.00  0.00    +0.000 C 
ATOM      8  O   UNL     1       6.630   5.342  19.791  0.00  0.00    +0.000 OA
ATOM      9  N   UNL     1       4.974   4.743  18.286  0.00  0.00    +0.000 N 
ATOM     10  H   UNL     1       4.895   4.085  17.520  0.00  0.00    +0.000 HD
BRANCH   7  11
ATOM     11  C   UNL     1       7.327   4.750  17.550  0.00  0.00    +0.000 C 
BRANCH  11  13
ATOM     12  C   UNL     1       7.501   7.145  17.367  0.00  0.00    +0.000 C 
ATOM     13  N   UNL     1       7.445   5.888  16.610  0.00  0.00    +0.000 NA
BRANCH  13  14
ATOM     14  C   UNL     1       6.303   5.924  15.671  0.00  0.00    +0.000 C 
BRANCH  14  15
ATOM     15  C   UNL     1       6.504   5.073  14.442  0.00  0.00    +0.000 A 
ATOM     16  C   UNL     1       7.498   5.177  13.486  0.00  0.00    +0.000 A 
ATOM     17  C   UNL     1       7.343   4.232  12.431  0.00  0.00    +0.000 A 
ATOM     18  C   UNL     1       6.242   3.429  12.618  0.00  0.00    +0.000 A 
ATOM     19  S   UNL     1       5.414   3.800  14.066  0.00  0.00    +0.000 S 
ENDBRANCH  14  15
ENDBRANCH  13  14
ENDBRANCH  11  13
ENDBRANCH   7  11
ENDBRANCH   1   9
BRANCH   6  20
ATOM     20  C   UNL     1       2.882   7.112  18.679  0.00  0.00    +0.000 C 
ATOM     21  O   UNL     1       3.674   7.328  17.761  0.00  0.00    +0.000 OA
ATOM     22  N   UNL     1       1.885   7.994  19.000  0.00  0.00    +0.000 N 
ATOM     23  H   UNL     1       1.146   7.684  19.629  0.00  0.00    +0.000 HD
BRANCH  22  24
ATOM     24  C   UNL     1       1.719   9.249  18.293  0.00  0.00    +0.000 C 
BRANCH  24  25
ATOM     25  C   UNL     1       0.263   9.699  18.174  0.00  0.00    +0.000 C 
BRANCH  25  26
ATOM     26  C   UNL     1      -0.291  10.640  19.228  0.00  0.00    +0.000 A 
ATOM     27  C   UNL     1      -1.462  11.395  19.062  0.00  0.00    +0.000 A 
ATOM     28  C   UNL     1      -1.956  12.186  20.106  0.00  0.00    +0.000 A 
ATOM     29  C   UNL     1      -1.297  12.224  21.334  0.00  0.00    +0.000 A 
ATOM     30  C   UNL     1      -0.140  11.468  21.514  0.00  0.00    +0.000 A 
ATOM     31  C   UNL     1       0.352  10.682  20.474  0.00  0.00    +0.000 A 
ENDBRANCH  25  26
ENDBRANCH  24  25
ENDBRANCH  22  24
ENDBRANCH   6  20
TORSDOF 9
ENDMDL
MODEL 8
REMARK VINA RESULT:      -7.5      1.173      1.641
REMARK  Name = 
REMARK  10 active torsions:
REMARK  status: ('A' for Active; 'I' for Inactive)
REMARK    1  A    between atoms: C_1  and  N_2
REMARK    2  A    between atoms: N_2  and  C_3
REMARK    3  A    between atoms: N_2  and  C_24
REMARK    4  A    between atoms: C_3  and  C_4
REMARK    5  A    between atoms: N_6  and  C_7
REMARK    6  A    between atoms: C_12  and  C_13
REMARK    7  A    between atoms: N_15  and  C_16
REMARK    8  A    between atoms: C_16  and  C_17
REMARK    9  A    between atoms: C_17  and  C_18
REMARK   10  A    between atoms: C_24  and  C_25
REMARK                            x       y       z     vdW  Elec       q    Type
REMARK                         _______ _______ _______ _____ _____    ______ ____
ROOT
ATOM      1  C   UNL     1       3.532   3.678  18.308  0.00  0.00    +0.000 A 
ATOM      2  C   UNL     1       3.128   2.340  18.097  0.00  0.00    +0.000 A 
ATOM      3  C   UNL     1       1.896   1.856  18.551  0.00  0.00    +0.000 A 
ATOM      4  C   UNL     1       1.025   2.708  19.210  0.00  0.00    +0.000 A 
ATOM      5  C   UNL     1       1.393   4.037  19.413  0.00  0.00    +0.000 A 
ATOM      6  C   UNL     1       2.639   4.548  18.970  0.00  0.00    +0.000 A 
ENDROOT
BRANCH   1   9
ATOM      7  C   UNL     1       5.889   4.457  18.389  0.00  0.00    +0.000 C 
ATOM      8  O   UNL     1       5.913   4.683  19.600  0.00  0.00    +0.000 OA
ATOM      9  N   UNL     1       4.770   4.019  17.697  0.00  0.00    +0.000 N 
ATOM     10  H   UNL     1       4.996   3.485  16.866  0.00  0.00    +0.000 HD
BRANCH   7  11
ATOM     11  C   UNL     1       7.163   4.590  17.529  0.00  0.00    +0.000 C 
BRANCH  11  13
ATOM     12  C   UNL     1       6.964   6.987  17.402  0.00  0.00    +0.000 C 
ATOM     13  N   UNL     1       7.122   5.756  16.617  0.00  0.00    +0.000 NA
BRANCH  13  14
ATOM     14  C   UNL     1       6.009   5.638  15.651  0.00  0.00    +0.000 C 
BRANCH  14  15
ATOM     15  C   UNL     1       6.400   4.963  14.359  0.00  0.00    +0.000 A 
ATOM     16  C   UNL     1       7.499   5.222  13.561  0.00  0.00    +0.000 A 
ATOM     17  C   UNL     1       7.520   4.420  12.383  0.00  0.00    +0.000 A 
ATOM     18  C   UNL     1       6.442   3.568  12.322  0.00  0.00    +0.000 A 
ATOM     19  S   UNL     1       5.425   3.720  13.685  0.00  0.00    +0.000 S 
ENDBRANCH  14  15
ENDBRANCH  13  14
ENDBRANCH  11  13
ENDBRANCH   7  11
ENDBRANCH   1   9
BRANCH   6  20
ATOM     20  C   UNL     1       2.720   6.036  19.064  0.00  0.00    +0.000 C 
ATOM     21  O   UNL     1       2.873   6.554  20.170  0.00  0.00    +0.000 OA
ATOM     22  N   UNL     1       2.692   6.777  17.913  0.00  0.00    +0.000 N 
ATOM     23  H   UNL     1       2.760   6.292  17.019  0.00  0.00    +0.000 HD
BRANCH  22  24
ATOM     24  C   UNL     1       2.815   8.222  17.932  0.00  0.00    +0.000 C 
BRANCH  24  25
ATOM     25  C   UNL     1       1.519   8.954  17.587  0.00  0.00    +0.000 C 
BRANCH  25  26
ATOM     26  C   UNL     1       0.719   9.578  18.716  0.00  0.00    +0.000 A 
ATOM     27  C   UNL     1       1.080   9.494  20.069  0.00  0.00    +0.000 A 
ATOM     28  C   UNL     1       0.336  10.158  21.050  0.00  0.00    +0.000 A 
ATOM     29  C   UNL     1      -0.771  10.927  20.696  0.00  0.00    +0.000 A 
ATOM     30  C   UNL     1      -1.132  11.029  19.353  0.00  0.00    +0.000 A 
ATOM     31  C   UNL     1      -0.392  10.366  18.376  0.00  0.00    +0.000 A 
ENDBRANCH  25  26
ENDBRANCH  24  25
ENDBRANCH  22  24
ENDBRANCH   6  20
TORSDOF 9
ENDMDL
MODEL 9
REMARK VINA RESULT:      -7.5      1.449      2.001
REMARK  Name = 
REMARK  10 active torsions:
REMARK  status: ('A' for Active; 'I' for Inactive)
REMARK    1  A    between atoms: C_1  and  N_2
REMARK    2  A    between atoms: N_2  and  C_3
REMARK    3  A    between atoms: N_2  and  C_24
REMARK    4  A    between atoms: C_3  and  C_4
REMARK    5  A    between atoms: N_6  and  C_7
REMARK    6  A    between atoms: C_12  and  C_13
REMARK    7  A    between atoms: N_15  and  C_16
REMARK    8  A    between atoms: C_16  and  C_17
REMARK    9  A    between atoms: C_17  and  C_18
REMARK   10  A    between atoms: C_24  and  C_25
REMARK                            x       y       z     vdW  Elec       q    Type
REMARK                         _______ _______ _______ _____ _____    ______ ____
ROOT
ATOM      1  C   UNL     1       4.147   3.836  19.382  0.00  0.00    +0.000 A 
ATOM      2  C   UNL     1       4.284   2.649  20.138  0.00  0.00    +0.000 A 
ATOM      3  C   UNL     1       3.334   2.262  21.089  0.00  0.00    +0.000 A 
ATOM      4  C   UNL     1       2.210   3.045  21.295  0.00  0.00    +0.000 A 
ATOM      5  C   UNL     1       2.045   4.211  20.549  0.00  0.00    +0.000 A 
ATOM      6  C   UNL     1       2.996   4.628  19.585  0.00  0.00    +0.000 A 
ENDROOT
BRANCH   1   9
ATOM      7  C   UNL     1       6.382   4.623  18.637  0.00  0.00    +0.000 C 
ATOM      8  O   UNL     1       6.705   5.142  19.706  0.00  0.00    +0.000 OA
ATOM      9  N   UNL     1       5.156   4.022  18.397  0.00  0.00    +0.000 N 
ATOM     10  H   UNL     1       5.195   3.300  17.686  0.00  0.00    +0.000 HD
BRANCH   7  11
ATOM     11  C   UNL     1       7.375   4.547  17.458  0.00  0.00    +0.000 C 
BRANCH  11  13
ATOM     12  C   UNL     1       7.067   6.910  17.110  0.00  0.00    +0.000 C 
ATOM     13  N   UNL     1       7.148   5.603  16.445  0.00  0.00    +0.000 NA
BRANCH  13  14
ATOM     14  C   UNL     1       5.904   5.354  15.686  0.00  0.00    +0.000 C 
BRANCH  14  15
ATOM     15  C   UNL     1       6.136   4.713  14.339  0.00  0.00    +0.000 A 
ATOM     16  C   UNL     1       5.307   3.842  13.657  0.00  0.00    +0.000 A 
ATOM     17  C   UNL     1       5.877   3.395  12.429  0.00  0.00    +0.000 A 
ATOM     18  C   UNL     1       7.118   3.946  12.207  0.00  0.00    +0.000 A 
ATOM     19  S   UNL     1       7.582   5.009  13.461  0.00  0.00    +0.000 S 
ENDBRANCH  14  15
ENDBRANCH  13  14
ENDBRANCH  11  13
ENDBRANCH   7  11
ENDBRANCH   1   9
BRANCH   6  20
ATOM     20  C   UNL     1       2.504   5.752  18.735  0.00  0.00    +0.000 C 
ATOM     21  O   UNL     1       1.927   5.489  17.679  0.00  0.00    +0.000 OA
ATOM     22  N   UNL     1       2.644   7.037  19.185  0.00  0.00    +0.000 N 
ATOM     23  H   UNL     1       2.950   7.186  20.145  0.00  0.00    +0.000 HD
BRANCH  22  24
ATOM     24  C   UNL     1       2.143   8.170  18.430  0.00  0.00    +0.000 C 
BRANCH  24  25
ATOM     25  C   UNL     1       1.602   9.301  19.304  0.00  0.00    +0.000 C 
BRANCH  25  26
ATOM     26  C   UNL     1       0.247   9.893  18.963  0.00  0.00    +0.000 A 
ATOM     27  C   UNL     1      -0.392  10.876  19.733  0.00  0.00    +0.000 A 
ATOM     28  C   UNL     1      -1.607  11.432  19.317  0.00  0.00    +0.000 A 
ATOM     29  C   UNL     1      -2.195  11.026  18.121  0.00  0.00    +0.000 A 
ATOM     30  C   UNL     1      -1.562  10.059  17.340  0.00  0.00    +0.000 A 
ATOM     31  C   UNL     1      -0.354   9.505  17.755  0.00  0.00    +0.000 A 
ENDBRANCH  25  26
ENDBRANCH  24  25
ENDBRANCH  22  24
ENDBRANCH   6  20
TORSDOF 9
ENDMDL
