MODEL 1
REMARK VINA RESULT:      -7.2      0.000      0.000
REMARK  Name = 
REMARK  6 active torsions:
REMARK  status: ('A' for Active; 'I' for Inactive)
REMARK    1  A    between atoms: C_1  and  C_2
REMARK    2  A    between atoms: C_2  and  C_3
REMARK    3  A    between atoms: C_3  and  C_4
REMARK    4  A    between atoms: C_3  and  N_11
REMARK    5  A    between atoms: C_15  and  C_16
REMARK    6  A    between atoms: N_19  and  C_20
REMARK                            x       y       z     vdW  Elec       q    Type
REMARK                         _______ _______ _______ _____ _____    ______ ____
ROOT
ATOM      1  N   UNL     1       5.533   5.096  18.043  0.00  0.00    +0.000 N 
ATOM      2  C   UNL     1       6.053   5.221  19.310  0.00  0.00    +0.000 A 
ATOM      3  N   UNL     1       7.360   5.120  19.324  0.00  0.00    +0.000 NA
ATOM      4  C   UNL     1       7.710   4.916  18.020  0.00  0.00    +0.000 A 
ATOM      5  C   UNL     1       6.604   4.907  17.187  0.00  0.00    +0.000 A 
ENDROOT
BRANCH   5   6
ATOM      6  C   UNL     1       6.655   4.654  15.719  0.00  0.00    +0.000 A 
ATOM      7  C   UNL     1       7.404   5.248  14.681  0.00  0.00    +0.000 A 
ATOM      8  N   UNL     1       7.066   4.793  13.471  0.00  0.00    +0.000 NA
ATOM      9  N   UNL     1       6.100   3.898  13.732  0.00  0.00    +0.000 N 
ATOM     10  C   UNL     1       5.377   3.273  12.651  0.00  0.00    +0.000 C 
ATOM     11  C   UNL     1       5.866   3.730  15.066  0.00  0.00    +0.000 A 
ENDBRANCH   5   6
BRANCH   1  12
ATOM     12  C   UNL     1       4.101   5.010  17.742  0.00  0.00    +0.000 C 
BRANCH  12  13
ATOM     13  C   UNL     1       3.331   6.234  18.268  0.00  0.00    +0.000 A 
ATOM     14  C   UNL     1       2.700   6.246  19.530  0.00  0.00    +0.000 A 
ATOM     15  C   UNL     1       1.978   7.363  19.964  0.00  0.00    +0.000 A 
ATOM     16  C   UNL     1       1.888   8.479  19.145  0.00  0.00    +0.000 A 
ATOM     17  F   UNL     1       1.185   9.541  19.553  0.00  0.00    +0.000 F 
ATOM     18  C   UNL     1       2.519   8.507  17.907  0.00  0.00    +0.000 A 
ATOM     19  C   UNL     1       3.242   7.393  17.471  0.00  0.00    +0.000 A 
ENDBRANCH  12  13
BRANCH  12  21
ATOM     20  C   UNL     1       2.421   3.082  17.258  0.00  0.00    +0.000 C 
ATOM     21  C   UNL     1       3.474   3.666  18.192  0.00  0.00    +0.000 C 
ENDBRANCH  12  21
ENDBRANCH   1  12
TORSDOF 4
ENDMDL
MODEL 2
REMARK VINA RESULT:      -7.1      0.081      1.057
REMARK  Name = 
REMARK  6 active torsions:
REMARK  status: ('A' for Active; 'I' for Inactive)
REMARK    1  A    between atoms: C_1  and  C_2
REMARK    2  A    between atoms: C_2  and  C_3
REMARK    3  A    between atoms: C_3  and  C_4
REMARK    4  A    between atoms: C_3  and  N_11
REMARK    5  A    between atoms: C_15  and  C_16
REMARK    6  A    between atoms: N_19  and  C_20
REMARK                            x       y       z     vdW  Elec       q    Type
REMARK                         _______ _______ _______ _____ _____    ______ ____
ROOT
ATOM      1  N   UNL     1       5.535   5.072  18.013  0.00  0.00    +0.000 N 
ATOM      2  C   UNL     1       6.043   5.196  19.286  0.00  0.00    +0.000 A 
ATOM      3  N   UNL     1       7.351   5.110  19.310  0.00  0.00    +0.000 NA
ATOM      4  C   UNL     1       7.714   4.917  18.007  0.00  0.00    +0.000 A 
ATOM      5  C   UNL     1       6.615   4.900  17.165  0.00  0.00    +0.000 A 
ENDROOT
BRANCH   5   6
ATOM      6  C   UNL     1       6.682   4.654  15.696  0.00  0.00    +0.000 A 
ATOM      7  C   UNL     1       7.428   5.266  14.667  0.00  0.00    +0.000 A 
ATOM      8  N   UNL     1       7.107   4.811  13.452  0.00  0.00    +0.000 NA
ATOM      9  N   UNL     1       6.154   3.900  13.702  0.00  0.00    +0.000 N 
ATOM     10  C   UNL     1       5.449   3.269  12.612  0.00  0.00    +0.000 C 
ATOM     11  C   UNL     1       5.912   3.721  15.033  0.00  0.00    +0.000 A 
ENDBRANCH   5   6
BRANCH   1  12
ATOM     12  C   UNL     1       4.107   4.971  17.700  0.00  0.00    +0.000 C 
BRANCH  12  13
ATOM     13  C   UNL     1       3.321   6.191  18.211  0.00  0.00    +0.000 A 
ATOM     14  C   UNL     1       3.217   7.388  17.473  0.00  0.00    +0.000 A 
ATOM     15  C   UNL     1       2.524   8.492  17.982  0.00  0.00    +0.000 A 
ATOM     16  C   UNL     1       1.922   8.405  19.229  0.00  0.00    +0.000 A 
ATOM     17  F   UNL     1       1.273   9.464  19.722  0.00  0.00    +0.000 F 
ATOM     18  C   UNL     1       1.986   7.230  19.970  0.00  0.00    +0.000 A 
ATOM     19  C   UNL     1       2.677   6.126  19.462  0.00  0.00    +0.000 A 
ENDBRANCH  12  13
BRANCH  12  21
ATOM     20  C   UNL     1       2.356   3.090  17.282  0.00  0.00    +0.000 C 
ATOM     21  C   UNL     1       3.488   3.624  18.152  0.00  0.00    +0.000 C 
ENDBRANCH  12  21
ENDBRANCH   1  12
TORSDOF 4
ENDMDL
MODEL 3
REMARK VINA RESULT:      -7.1      0.575      1.015
REMARK  Name = 
REMARK  6 active torsions:
REMARK  status: ('A' for Active; 'I' for Inactive)
REMARK    1  A    between atoms: C_1  and  C_2
REMARK    2  A    between atoms: C_2  and  C_3
REMARK    3  A    between atoms: C_3  and  C_4
REMARK    4  A    between atoms: C_3  and  N_11
REMARK    5  A    between atoms: C_15  and  C_16
REMARK    6  A    between atoms: N_19  and  C_20
REMARK                            x       y       z     vdW  Elec       q    Type
REMARK                         _______ _______ _______ _____ _____    ______ ____
ROOT
ATOM      1  N   UNL     1       5.384   5.063  18.077  0.00  0.00    +0.000 N 
ATOM      2  C   UNL     1       6.003   5.196  19.298  0.00  0.00    +0.000 A 
ATOM      3  N   UNL     1       7.308   5.105  19.207  0.00  0.00    +0.000 NA
ATOM      4  C   UNL     1       7.553   4.897  17.879  0.00  0.00    +0.000 A 
ATOM      5  C   UNL     1       6.384   4.877  17.138  0.00  0.00    +0.000 A 
ENDROOT
BRANCH   5   6
ATOM      6  C   UNL     1       6.318   4.617  15.672  0.00  0.00    +0.000 A 
ATOM      7  C   UNL     1       5.516   3.752  14.898  0.00  0.00    +0.000 A 
ATOM      8  N   UNL     1       5.855   3.746  13.606  0.00  0.00    +0.000 NA
ATOM      9  N   UNL     1       6.877   4.614  13.547  0.00  0.00    +0.000 N 
ATOM     10  C   UNL     1       7.613   4.786  12.318  0.00  0.00    +0.000 C 
ATOM     11  C   UNL     1       7.147   5.213  14.744  0.00  0.00    +0.000 A 
ENDBRANCH   5   6
BRANCH   1  12
ATOM     12  C   UNL     1       3.933   4.966  17.893  0.00  0.00    +0.000 C 
BRANCH  12  13
ATOM     13  C   UNL     1       3.206   6.225  18.398  0.00  0.00    +0.000 A 
ATOM     14  C   UNL     1       2.563   6.275  19.652  0.00  0.00    +0.000 A 
ATOM     15  C   UNL     1       1.881   7.424  20.068  0.00  0.00    +0.000 A 
ATOM     16  C   UNL     1       1.844   8.535  19.237  0.00  0.00    +0.000 A 
ATOM     17  F   UNL     1       1.180   9.627  19.626  0.00  0.00    +0.000 F 
ATOM     18  C   UNL     1       2.489   8.524  18.006  0.00  0.00    +0.000 A 
ATOM     19  C   UNL     1       3.172   7.378  17.589  0.00  0.00    +0.000 A 
ENDBRANCH  12  13
BRANCH  12  21
ATOM     20  C   UNL     1       2.530   2.809  17.501  0.00  0.00    +0.000 C 
ATOM     21  C   UNL     1       3.341   3.657  18.473  0.00  0.00    +0.000 C 
ENDBRANCH  12  21
ENDBRANCH   1  12
TORSDOF 4
ENDMDL
MODEL 4
REMARK VINA RESULT:      -7.0      0.616      1.469
REMARK  Name = 
REMARK  6 active torsions:
REMARK  status: ('A' for Active; 'I' for Inactive)
REMARK    1  A    between atoms: C_1  and  C_2
REMARK    2  A    between atoms: C_2  and  C_3
REMARK    3  A    between atoms: C_3  and  C_4
REMARK    4  A    between atoms: C_3  and  N_11
REMARK    5  A    between atoms: C_15  and  C_16
REMARK    6  A    between atoms: N_19  and  C_20
REMARK                            x       y       z     vdW  Elec       q    Type
REMARK                         _______ _______ _______ _____ _____    ______ ____
ROOT
ATOM      1  N   UNL     1       5.345   5.045  18.081  0.00  0.00    +0.000 N 
ATOM      2  C   UNL     1       5.980   5.178  19.295  0.00  0.00    +0.000 A 
ATOM      3  N   UNL     1       7.284   5.123  19.183  0.00  0.00    +0.000 NA
ATOM      4  C   UNL     1       7.515   4.940  17.849  0.00  0.00    +0.000 A 
ATOM      5  C   UNL     1       6.336   4.900  17.126  0.00  0.00    +0.000 A 
ENDROOT
BRANCH   5   6
ATOM      6  C   UNL     1       6.255   4.659  15.657  0.00  0.00    +0.000 A 
ATOM      7  C   UNL     1       5.355   3.912  14.868  0.00  0.00    +0.000 A 
ATOM      8  N   UNL     1       5.707   3.868  13.579  0.00  0.00    +0.000 NA
ATOM      9  N   UNL     1       6.836   4.593  13.539  0.00  0.00    +0.000 N 
ATOM     10  C   UNL     1       7.604   4.673  12.320  0.00  0.00    +0.000 C 
ATOM     11  C   UNL     1       7.167   5.144  14.743  0.00  0.00    +0.000 A 
ENDBRANCH   5   6
BRANCH   1  12
ATOM     12  C   UNL     1       3.895   4.912  17.917  0.00  0.00    +0.000 C 
BRANCH  12  13
ATOM     13  C   UNL     1       3.146   6.162  18.412  0.00  0.00    +0.000 A 
ATOM     14  C   UNL     1       3.060   7.344  17.647  0.00  0.00    +0.000 A 
ATOM     15  C   UNL     1       2.401   8.476  18.140  0.00  0.00    +0.000 A 
ATOM     16  C   UNL     1       1.815   8.432  19.397  0.00  0.00    +0.000 A 
ATOM     17  F   UNL     1       1.199   9.517  19.875  0.00  0.00    +0.000 F 
ATOM     18  C   UNL     1       1.862   7.273  20.164  0.00  0.00    +0.000 A 
ATOM     19  C   UNL     1       2.519   6.141  19.673  0.00  0.00    +0.000 A 
ENDBRANCH  12  13
BRANCH  12  21
ATOM     20  C   UNL     1       2.524   2.725  17.583  0.00  0.00    +0.000 C 
ATOM     21  C   UNL     1       3.341   3.599  18.526  0.00  0.00    +0.000 C 
ENDBRANCH  12  21
ENDBRANCH   1  12
TORSDOF 4
ENDMDL
MODEL 5
REMARK VINA RESULT:      -7.0      2.118      3.277
REMARK  Name = 
REMARK  6 active torsions:
REMARK  status: ('A' for Active; 'I' for Inactive)
REMARK    1  A    between atoms: C_1  and  C_2
REMARK    2  A    between atoms: C_2  and  C_3
REMARK    3  A    between atoms: C_3  and  C_4
REMARK    4  A    between atoms: C_3  and  N_11
REMARK    5  A    between atoms: C_15  and  C_16
REMARK    6  A    between atoms: N_19  and  C_20
REMARK                            x       y       z     vdW  Elec       q    Type
REMARK                         _______ _______ _______ _____ _____    ______ ____
ROOT
ATOM      1  N   UNL     1       5.934   5.575  18.370  0.00  0.00    +0.000 N 
ATOM      2  C   UNL     1       6.760   5.555  19.471  0.00  0.00    +0.000 A 
ATOM      3  N   UNL     1       7.915   4.991  19.215  0.00  0.00    +0.000 NA
ATOM      4  C   UNL     1       7.843   4.621  17.903  0.00  0.00    +0.000 A 
ATOM      5  C   UNL     1       6.632   4.978  17.335  0.00  0.00    +0.000 A 
ENDROOT
BRANCH   5   6
ATOM      6  C   UNL     1       6.231   4.663  15.934  0.00  0.00    +0.000 A 
ATOM      7  C   UNL     1       5.050   4.118  15.387  0.00  0.00    +0.000 A 
ATOM      8  N   UNL     1       5.142   3.895  14.072  0.00  0.00    +0.000 NA
ATOM      9  N   UNL     1       6.386   4.302  13.772  0.00  0.00    +0.000 N 
ATOM     10  C   UNL     1       6.917   4.097  12.447  0.00  0.00    +0.000 C 
ATOM     11  C   UNL     1       7.052   4.833  14.839  0.00  0.00    +0.000 A 
ENDBRANCH   5   6
BRANCH   1  12
ATOM     12  C   UNL     1       4.532   5.999  18.398  0.00  0.00    +0.000 C 
BRANCH  12  13
ATOM     13  C   UNL     1       3.572   4.800  18.483  0.00  0.00    +0.000 A 
ATOM     14  C   UNL     1       3.916   3.600  19.140  0.00  0.00    +0.000 A 
ATOM     15  C   UNL     1       3.034   2.515  19.170  0.00  0.00    +0.000 A 
ATOM     16  C   UNL     1       1.797   2.623  18.550  0.00  0.00    +0.000 A 
ATOM     17  F   UNL     1       0.960   1.581  18.565  0.00  0.00    +0.000 F 
ATOM     18  C   UNL     1       1.419   3.800  17.916  0.00  0.00    +0.000 A 
ATOM     19  C   UNL     1       2.299   4.886  17.886  0.00  0.00    +0.000 A 
ENDBRANCH  12  13
BRANCH  12  21
ATOM     20  C   UNL     1       3.208   8.093  17.598  0.00  0.00    +0.000 C 
ATOM     21  C   UNL     1       4.178   6.972  17.244  0.00  0.00    +0.000 C 
ENDBRANCH  12  21
ENDBRANCH   1  12
TORSDOF 4
ENDMDL
MODEL 6
REMARK VINA RESULT:      -7.0      2.765      4.608
REMARK  Name = 
REMARK  6 active torsions:
REMARK  status: ('A' for Active; 'I' for Inactive)
REMARK    1  A    between atoms: C_1  and  C_2
REMARK    2  A    between atoms: C_2  and  C_3
REMARK    3  A    between atoms: C_3  and  C_4
REMARK    4  A    between atoms: C_3  and  N_11
REMARK    5  A    between atoms: C_15  and  C_16
REMARK    6  A    between atoms: N_19  and  C_20
REMARK                            x       y       z     vdW  Elec       q    Type
REMARK                         _______ _______ _______ _____ _____    ______ ____
ROOT
ATOM      1  N   UNL     1       4.601   4.844  17.550  0.00  0.00    +0.000 N 
ATOM      2  C   UNL     1       4.153   3.839  16.724  0.00  0.00    +0.000 A 
ATOM      3  N   UNL     1       5.085   3.417  15.904  0.00  0.00    +0.000 NA
ATOM      4  C   UNL     1       6.181   4.176  16.198  0.00  0.00    +0.000 A 
ATOM      5  C   UNL     1       5.928   5.068  17.226  0.00  0.00    +0.000 A 
ENDROOT
BRANCH   5   6
ATOM      6  C   UNL     1       6.909   6.068  17.737  0.00  0.00    +0.000 A 
ATOM      7  C   UNL     1       7.834   6.027  18.801  0.00  0.00    +0.000 A 
ATOM      8  N   UNL     1       8.458   7.194  18.991  0.00  0.00    +0.000 NA
ATOM      9  N   UNL     1       7.934   7.987  18.043  0.00  0.00    +0.000 N 
ATOM     10  C   UNL     1       8.264   9.390  18.006  0.00  0.00    +0.000 C 
ATOM     11  C   UNL     1       7.053   7.340  17.224  0.00  0.00    +0.000 A 
ENDBRANCH   5   6
BRANCH   1  12
ATOM     12  C   UNL     1       3.743   5.613  18.456  0.00  0.00    +0.000 C 
BRANCH  12  13
ATOM     13  C   UNL     1       2.978   4.701  19.432  0.00  0.00    +0.000 A 
ATOM     14  C   UNL     1       1.573   4.729  19.548  0.00  0.00    +0.000 A 
ATOM     15  C   UNL     1       0.910   3.911  20.470  0.00  0.00    +0.000 A 
ATOM     16  C   UNL     1       1.645   3.054  21.277  0.00  0.00    +0.000 A 
ATOM     17  F   UNL     1       1.013   2.285  22.168  0.00  0.00    +0.000 F 
ATOM     18  C   UNL     1       3.029   2.987  21.167  0.00  0.00    +0.000 A 
ATOM     19  C   UNL     1       3.694   3.802  20.246  0.00  0.00    +0.000 A 
ENDBRANCH  12  13
BRANCH  12  21
ATOM     20  C   UNL     1       2.627   7.963  18.370  0.00  0.00    +0.000 C 
ATOM     21  C   UNL     1       2.816   6.604  17.707  0.00  0.00    +0.000 C 
ENDBRANCH  12  21
ENDBRANCH   1  12
TORSDOF 4
ENDMDL
MODEL 7
REMARK VINA RESULT:      -7.0      2.133      3.401
REMARK  Name = 
REMARK  6 active torsions:
REMARK  status: ('A' for Active; 'I' for Inactive)
REMARK    1  A    between atoms: C_1  and  C_2
REMARK    2  A    between atoms: C_2  and  C_3
REMARK    3  A    between atoms: C_3  and  C_4
REMARK    4  A    between atoms: C_3  and  N_11
REMARK    5  A    between atoms: C_15  and  C_16
REMARK    6  A    between atoms: N_19  and  C_20
REMARK                            x       y       z     vdW  Elec       q    Type
REMARK                         _______ _______ _______ _____ _____    ______ ____
ROOT
ATOM      1  N   UNL     1       5.922   5.550  18.346  0.00  0.00    +0.000 N 
ATOM      2  C   UNL     1       6.742   5.531  19.451  0.00  0.00    +0.000 A 
ATOM      3  N   UNL     1       7.905   4.983  19.199  0.00  0.00    +0.000 NA
ATOM      4  C   UNL     1       7.845   4.622  17.883  0.00  0.00    +0.000 A 
ATOM      5  C   UNL     1       6.633   4.970  17.310  0.00  0.00    +0.000 A 
ENDROOT
BRANCH   5   6
ATOM      6  C   UNL     1       6.245   4.662  15.904  0.00  0.00    +0.000 A 
ATOM      7  C   UNL     1       5.072   4.114  15.345  0.00  0.00    +0.000 A 
ATOM      8  N   UNL     1       5.175   3.900  14.029  0.00  0.00    +0.000 NA
ATOM      9  N   UNL     1       6.419   4.316  13.742  0.00  0.00    +0.000 N 
ATOM     10  C   UNL     1       6.961   4.122  12.419  0.00  0.00    +0.000 C 
ATOM     11  C   UNL     1       7.074   4.844  14.817  0.00  0.00    +0.000 A 
ENDBRANCH   5   6
BRANCH   1  12
ATOM     12  C   UNL     1       4.515   5.958  18.368  0.00  0.00    +0.000 C 
BRANCH  12  13
ATOM     13  C   UNL     1       3.568   4.746  18.422  0.00  0.00    +0.000 A 
ATOM     14  C   UNL     1       2.279   4.767  17.850  0.00  0.00    +0.000 A 
ATOM     15  C   UNL     1       1.429   3.660  17.947  0.00  0.00    +0.000 A 
ATOM     16  C   UNL     1       1.864   2.521  18.609  0.00  0.00    +0.000 A 
ATOM     17  F   UNL     1       1.046   1.468  18.715  0.00  0.00    +0.000 F 
ATOM     18  C   UNL     1       3.138   2.461  19.161  0.00  0.00    +0.000 A 
ATOM     19  C   UNL     1       3.989   3.566  19.064  0.00  0.00    +0.000 A 
ENDBRANCH  12  13
BRANCH  12  21
ATOM     20  C   UNL     1       3.229   8.091  17.612  0.00  0.00    +0.000 C 
ATOM     21  C   UNL     1       4.160   6.948  17.229  0.00  0.00    +0.000 C 
ENDBRANCH  12  21
ENDBRANCH   1  12
TORSDOF 4
ENDMDL
MODEL 8
REMARK VINA RESULT:      -6.9      2.641      4.599
REMARK  Name = 
REMARK  6 active torsions:
REMARK  status: ('A' for Active; 'I' for Inactive)
REMARK    1  A    between atoms: C_1  and  C_2
REMARK    2  A    between atoms: C_2  and  C_3
REMARK    3  A    between atoms: C_3  and  C_4
REMARK    4  A    between atoms: C_3  and  N_11
REMARK    5  A    between atoms: C_15  and  C_16
REMARK    6  A    between atoms: N_19  and  C_20
REMARK                            x       y       z     vdW  Elec       q    Type
REMARK                         _______ _______ _______ _____ _____    ______ ____
ROOT
ATOM      1  N   UNL     1       5.124   5.289  17.122  0.00  0.00    +0.000 N 
ATOM      2  C   UNL     1       4.817   4.300  16.215  0.00  0.00    +0.000 A 
ATOM      3  N   UNL     1       5.862   3.920  15.521  0.00  0.00    +0.000 NA
ATOM      4  C   UNL     1       6.890   4.691  15.983  0.00  0.00    +0.000 A 
ATOM      5  C   UNL     1       6.478   5.547  16.989  0.00  0.00    +0.000 A 
ENDROOT
BRANCH   5   6
ATOM      6  C   UNL     1       7.356   6.550  17.656  0.00  0.00    +0.000 A 
ATOM      7  C   UNL     1       8.116   6.502  18.844  0.00  0.00    +0.000 A 
ATOM      8  N   UNL     1       8.685   7.673  19.145  0.00  0.00    +0.000 NA
ATOM      9  N   UNL     1       8.293   8.477  18.144  0.00  0.00    +0.000 N 
ATOM     10  C   UNL     1       8.602   9.886  18.181  0.00  0.00    +0.000 C 
ATOM     11  C   UNL     1       7.553   7.834  17.193  0.00  0.00    +0.000 A 
ENDBRANCH   5   6
BRANCH   1  12
ATOM     12  C   UNL     1       4.133   6.014  17.921  0.00  0.00    +0.000 C 
BRANCH  12  13
ATOM     13  C   UNL     1       3.145   5.059  18.613  0.00  0.00    +0.000 A 
ATOM     14  C   UNL     1       2.069   4.457  17.927  0.00  0.00    +0.000 A 
ATOM     15  C   UNL     1       1.168   3.619  18.593  0.00  0.00    +0.000 A 
ATOM     16  C   UNL     1       1.339   3.371  19.948  0.00  0.00    +0.000 A 
ATOM     17  F   UNL     1       0.469   2.584  20.588  0.00  0.00    +0.000 F 
ATOM     18  C   UNL     1       2.403   3.930  20.645  0.00  0.00    +0.000 A 
ATOM     19  C   UNL     1       3.306   4.766  19.981  0.00  0.00    +0.000 A 
ENDBRANCH  12  13
BRANCH  12  21
ATOM     20  C   UNL     1       2.606   8.122  17.947  0.00  0.00    +0.000 C 
ATOM     21  C   UNL     1       3.424   7.137  17.122  0.00  0.00    +0.000 C 
ENDBRANCH  12  21
ENDBRANCH   1  12
TORSDOF 4
ENDMDL
MODEL 9
REMARK VINA RESULT:      -6.9      3.226      6.152
REMARK  Name = 
REMARK  6 active torsions:
REMARK  status: ('A' for Active; 'I' for Inactive)
REMARK    1  A    between atoms: C_1  and  C_2
REMARK    2  A    between atoms: C_2  and  C_3
REMARK    3  A    between atoms: C_3  and  C_4
REMARK    4  A    between atoms: C_3  and  N_11
REMARK    5  A    between atoms: C_15  and  C_16
REMARK    6  A    between atoms: N_19  and  C_20
REMARK                            x       y       z     vdW  Elec       q    Type
REMARK                         _______ _______ _______ _____ _____    ______ ____
ROOT
ATOM      1  N   UNL     1       4.038   5.311  19.133  0.00  0.00    +0.000 N 
ATOM      2  C   UNL     1       3.916   4.130  19.829  0.00  0.00    +0.000 A 
ATOM      3  N   UNL     1       2.746   4.011  20.407  0.00  0.00    +0.000 NA
ATOM      4  C   UNL     1       2.077   5.158  20.085  0.00  0.00    +0.000 A 
ATOM      5  C   UNL     1       2.840   5.988  19.282  0.00  0.00    +0.000 A 
ENDROOT
BRANCH   5   6
ATOM      6  C   UNL     1       2.408   7.334  18.809  0.00  0.00    +0.000 A 
ATOM      7  C   UNL     1       2.634   8.032  17.604  0.00  0.00    +0.000 A 
ATOM      8  N   UNL     1       2.152   9.278  17.627  0.00  0.00    +0.000 NA
ATOM      9  N   UNL     1       1.610   9.381  18.851  0.00  0.00    +0.000 N 
ATOM     10  C   UNL     1       1.094  10.647  19.312  0.00  0.00    +0.000 C 
ATOM     11  C   UNL     1       1.677   8.223  19.570  0.00  0.00    +0.000 A 
ENDBRANCH   5   6
BRANCH   1  12
ATOM     12  C   UNL     1       5.282   5.785  18.520  0.00  0.00    +0.000 C 
BRANCH  12  13
ATOM     13  C   UNL     1       5.435   5.284  17.073  0.00  0.00    +0.000 A 
ATOM     14  C   UNL     1       5.749   3.943  16.766  0.00  0.00    +0.000 A 
ATOM     15  C   UNL     1       5.915   3.527  15.441  0.00  0.00    +0.000 A 
ATOM     16  C   UNL     1       5.761   4.445  14.412  0.00  0.00    +0.000 A 
ATOM     17  F   UNL     1       5.935   4.052  13.146  0.00  0.00    +0.000 F 
ATOM     18  C   UNL     1       5.428   5.767  14.682  0.00  0.00    +0.000 A 
ATOM     19  C   UNL     1       5.259   6.185  16.005  0.00  0.00    +0.000 A 
ENDBRANCH  12  13
BRANCH  12  21
ATOM     20  C   UNL     1       7.838   6.095  18.899  0.00  0.00    +0.000 C 
ATOM     21  C   UNL     1       6.528   5.492  19.393  0.00  0.00    +0.000 C 
ENDBRANCH  12  21
ENDBRANCH   1  12
TORSDOF 4
ENDMDL
