MODEL 1
REMARK VINA RESULT:      -5.7      0.000      0.000
REMARK  Name = 
REMARK  7 active torsions:
REMARK  status: ('A' for Active; 'I' for Inactive)
REMARK    1  A    between atoms: C_6  and  O_7
REMARK    2  A    between atoms: O_7  and  C_8
REMARK    3  A    between atoms: C_8  and  C_9
REMARK    4  A    between atoms: C_9  and  O_10
REMARK    5  A    between atoms: O_10  and  C_11
REMARK    6  A    between atoms: C_11  and  C_12
REMARK    7  A    between atoms: C_12  and  N_13
REMARK                            x       y       z     vdW  Elec       q    Type
REMARK                         _______ _______ _______ _____ _____    ______ ____
ROOT
ATOM      1  C   UNL     1       3.327   6.665  18.024  0.00  0.00    +0.000 C 
ENDROOT
BRANCH   1   2
ATOM      2  O   UNL     1       3.529   5.281  17.710  0.00  0.00    +0.000 OA
BRANCH   2   8
ATOM      3 BR   UNL     1       6.256   3.901  13.516  0.00  0.00    +0.000 Br
ATOM      4  C   UNL     1       6.124   4.339  15.350  0.00  0.00    +0.000 A 
ATOM      5  C   UNL     1       7.285   4.443  16.113  0.00  0.00    +0.000 A 
ATOM      6  C   UNL     1       7.189   4.734  17.471  0.00  0.00    +0.000 A 
ATOM      7  C   UNL     1       5.939   4.961  18.048  0.00  0.00    +0.000 A 
ATOM      8  C   UNL     1       4.782   4.949  17.263  0.00  0.00    +0.000 A 
ATOM      9  C   UNL     1       4.872   4.579  15.919  0.00  0.00    +0.000 A 
ENDBRANCH   2   8
ENDBRANCH   1   2
BRANCH   1  10
ATOM     10  C   UNL     1       2.539   6.811  19.322  0.00  0.00    +0.000 C 
BRANCH  10  11
ATOM     11  O   UNL     1       2.878   5.717  20.186  0.00  0.00    +0.000 OA
BRANCH  11  12
ATOM     12  C   UNL     1       1.715   5.093  20.727  0.00  0.00    +0.000 C 
BRANCH  12  13
ATOM     13  C   UNL     1       2.024   3.636  21.060  0.00  0.00    +0.000 C 
BRANCH  13  14
ATOM     14  N   UNL     1       2.384   2.888  19.876  0.00  0.00    +0.000 N 
ATOM     15  C   UNL     1       1.592   2.666  18.785  0.00  0.00    +0.000 A 
ATOM     16  C   UNL     1       2.393   1.976  17.904  0.00  0.00    +0.000 A 
ATOM     17  N   UNL     1       3.637   1.763  18.441  0.00  0.00    +0.000 NA
ATOM     18  C   UNL     1       3.598   2.314  19.633  0.00  0.00    +0.000 A 
ENDBRANCH  13  14
ENDBRANCH  12  13
ENDBRANCH  11  12
ENDBRANCH  10  11
ENDBRANCH   1  10
TORSDOF 7
ENDMDL
MODEL 2
REMARK VINA RESULT:      -5.4      1.775      2.713
REMARK  Name = 
REMARK  7 active torsions:
REMARK  status: ('A' for Active; 'I' for Inactive)
REMARK    1  A    between atoms: C_6  and  O_7
REMARK    2  A    between atoms: O_7  and  C_8
REMARK    3  A    between atoms: C_8  and  C_9
REMARK    4  A    between atoms: C_9  and  O_10
REMARK    5  A    between atoms: O_10  and  C_11
REMARK    6  A    between atoms: C_11  and  C_12
REMARK    7  A    between atoms: C_12  and  N_13
REMARK                            x       y       z     vdW  Elec       q    Type
REMARK                         _______ _______ _______ _____ _____    ______ ____
ROOT
ATOM      1  C   UNL     1       4.519   2.716  19.239  0.00  0.00    +0.000 C 
ENDROOT
BRANCH   1   2
ATOM      2  O   UNL     1       5.493   3.766  19.278  0.00  0.00    +0.000 OA
BRANCH   2   8
ATOM      3 BR   UNL     1       5.931   4.083  14.116  0.00  0.00    +0.000 Br
ATOM      4  C   UNL     1       5.632   4.855  15.816  0.00  0.00    +0.000 A 
ATOM      5  C   UNL     1       5.279   6.200  15.903  0.00  0.00    +0.000 A 
ATOM      6  C   UNL     1       5.090   6.780  17.154  0.00  0.00    +0.000 A 
ATOM      7  C   UNL     1       5.214   6.003  18.307  0.00  0.00    +0.000 A 
ATOM      8  C   UNL     1       5.476   4.633  18.216  0.00  0.00    +0.000 A 
ATOM      9  C   UNL     1       5.744   4.071  16.965  0.00  0.00    +0.000 A 
ENDBRANCH   2   8
ENDBRANCH   1   2
BRANCH   1  10
ATOM     10  C   UNL     1       4.403   2.041  20.602  0.00  0.00    +0.000 C 
BRANCH  10  11
ATOM     11  O   UNL     1       3.489   2.797  21.408  0.00  0.00    +0.000 OA
BRANCH  11  12
ATOM     12  C   UNL     1       2.169   2.259  21.356  0.00  0.00    +0.000 C 
BRANCH  12  13
ATOM     13  C   UNL     1       1.176   3.369  21.022  0.00  0.00    +0.000 C 
BRANCH  13  14
ATOM     14  N   UNL     1       1.306   3.798  19.647  0.00  0.00    +0.000 N 
ATOM     15  C   UNL     1       1.777   5.007  19.216  0.00  0.00    +0.000 A 
ATOM     16  C   UNL     1       1.776   4.914  17.843  0.00  0.00    +0.000 A 
ATOM     17  N   UNL     1       1.303   3.692  17.437  0.00  0.00    +0.000 NA
ATOM     18  C   UNL     1       1.018   3.046  18.545  0.00  0.00    +0.000 A 
ENDBRANCH  13  14
ENDBRANCH  12  13
ENDBRANCH  11  12
ENDBRANCH  10  11
ENDBRANCH   1  10
TORSDOF 7
ENDMDL
MODEL 3
REMARK VINA RESULT:      -5.4      1.601      1.951
REMARK  Name = 
REMARK  7 active torsions:
REMARK  status: ('A' for Active; 'I' for Inactive)
REMARK    1  A    between atoms: C_6  and  O_7
REMARK    2  A    between atoms: O_7  and  C_8
REMARK    3  A    between atoms: C_8  and  C_9
REMARK    4  A    between atoms: C_9  and  O_10
REMARK    5  A    between atoms: O_10  and  C_11
REMARK    6  A    between atoms: C_11  and  C_12
REMARK    7  A    between atoms: C_12  and  N_13
REMARK                            x       y       z     vdW  Elec       q    Type
REMARK                         _______ _______ _______ _____ _____    ______ ____
ROOT
ATOM      1  C   UNL     1       2.969   6.954  18.214  0.00  0.00    +0.000 C 
ENDROOT
BRANCH   1   2
ATOM      2  O   UNL     1       3.141   5.663  17.615  0.00  0.00    +0.000 OA
BRANCH   2   8
ATOM      3 BR   UNL     1       8.029   5.740  19.357  0.00  0.00    +0.000 Br
ATOM      4  C   UNL     1       6.724   5.283  18.068  0.00  0.00    +0.000 A 
ATOM      5  C   UNL     1       7.093   4.514  16.966  0.00  0.00    +0.000 A 
ATOM      6  C   UNL     1       6.142   4.203  15.998  0.00  0.00    +0.000 A 
ATOM      7  C   UNL     1       4.822   4.626  16.158  0.00  0.00    +0.000 A 
ATOM      8  C   UNL     1       4.432   5.316  17.309  0.00  0.00    +0.000 A 
ATOM      9  C   UNL     1       5.402   5.696  18.239  0.00  0.00    +0.000 A 
ENDBRANCH   2   8
ENDBRANCH   1   2
BRANCH   1  10
ATOM     10  C   UNL     1       2.265   6.830  19.562  0.00  0.00    +0.000 C 
BRANCH  10  11
ATOM     11  O   UNL     1       1.791   5.485  19.706  0.00  0.00    +0.000 OA
BRANCH  11  12
ATOM     12  C   UNL     1       2.089   4.955  20.997  0.00  0.00    +0.000 C 
BRANCH  12  13
ATOM     13  C   UNL     1       1.770   3.463  21.025  0.00  0.00    +0.000 C 
BRANCH  13  14
ATOM     14  N   UNL     1       2.325   2.782  19.876  0.00  0.00    +0.000 N 
ATOM     15  C   UNL     1       1.629   2.310  18.798  0.00  0.00    +0.000 A 
ATOM     16  C   UNL     1       2.592   1.815  17.949  0.00  0.00    +0.000 A 
ATOM     17  N   UNL     1       3.843   1.961  18.491  0.00  0.00    +0.000 NA
ATOM     18  C   UNL     1       3.650   2.536  19.656  0.00  0.00    +0.000 A 
ENDBRANCH  13  14
ENDBRANCH  12  13
ENDBRANCH  11  12
ENDBRANCH  10  11
ENDBRANCH   1  10
TORSDOF 7
ENDMDL
MODEL 4
REMARK VINA RESULT:      -5.4      6.214      7.208
REMARK  Name = 
REMARK  7 active torsions:
REMARK  status: ('A' for Active; 'I' for Inactive)
REMARK    1  A    between atoms: C_6  and  O_7
REMARK    2  A    between atoms: O_7  and  C_8
REMARK    3  A    between atoms: C_8  and  C_9
REMARK    4  A    between atoms: C_9  and  O_10
REMARK    5  A    between atoms: O_10  and  C_11
REMARK    6  A    between atoms: C_11  and  C_12
REMARK    7  A    between atoms: C_12  and  N_13
REMARK                            x       y       z     vdW  Elec       q    Type
REMARK                         _______ _______ _______ _____ _____    ______ ____
ROOT
ATOM      1  C   UNL     1       8.284   9.533  17.854  0.00  0.00    +0.000 C 
ENDROOT
BRANCH   1   2
ATOM      2  O   UNL     1       9.019   9.547  19.085  0.00  0.00    +0.000 OA
BRANCH   2   8
ATOM      3 BR   UNL     1      11.660  13.476  16.959  0.00  0.00    +0.000 Br
ATOM      4  C   UNL     1      10.898  12.588  18.444  0.00  0.00    +0.000 A 
ATOM      5  C   UNL     1      10.927  13.200  19.695  0.00  0.00    +0.000 A 
ATOM      6  C   UNL     1      10.395  12.535  20.796  0.00  0.00    +0.000 A 
ATOM      7  C   UNL     1       9.802  11.282  20.633  0.00  0.00    +0.000 A 
ATOM      8  C   UNL     1       9.690  10.709  19.363  0.00  0.00    +0.000 A 
ATOM      9  C   UNL     1      10.294  11.341  18.274  0.00  0.00    +0.000 A 
ENDBRANCH   2   8
ENDBRANCH   1   2
BRANCH   1  10
ATOM     10  C   UNL     1       7.709   8.145  17.588  0.00  0.00    +0.000 C 
BRANCH  10  11
ATOM     11  O   UNL     1       8.190   7.251  18.601  0.00  0.00    +0.000 OA
BRANCH  11  12
ATOM     12  C   UNL     1       7.588   5.962  18.497  0.00  0.00    +0.000 C 
BRANCH  12  13
ATOM     13  C   UNL     1       6.419   6.021  17.518  0.00  0.00    +0.000 C 
BRANCH  13  14
ATOM     14  N   UNL     1       5.158   5.775  18.184  0.00  0.00    +0.000 N 
ATOM     15  C   UNL     1       4.978   5.085  19.350  0.00  0.00    +0.000 A 
ATOM     16  C   UNL     1       3.631   5.184  19.611  0.00  0.00    +0.000 A 
ATOM     17  N   UNL     1       2.995   5.898  18.629  0.00  0.00    +0.000 NA
ATOM     18  C   UNL     1       3.938   6.232  17.777  0.00  0.00    +0.000 A 
ENDBRANCH  13  14
ENDBRANCH  12  13
ENDBRANCH  11  12
ENDBRANCH  10  11
ENDBRANCH   1  10
TORSDOF 7
ENDMDL
MODEL 5
REMARK VINA RESULT:      -5.4      3.180      5.342
REMARK  Name = 
REMARK  7 active torsions:
REMARK  status: ('A' for Active; 'I' for Inactive)
REMARK    1  A    between atoms: C_6  and  O_7
REMARK    2  A    between atoms: O_7  and  C_8
REMARK    3  A    between atoms: C_8  and  C_9
REMARK    4  A    between atoms: C_9  and  O_10
REMARK    5  A    between atoms: O_10  and  C_11
REMARK    6  A    between atoms: C_11  and  C_12
REMARK    7  A    between atoms: C_12  and  N_13
REMARK                            x       y       z     vdW  Elec       q    Type
REMARK                         _______ _______ _______ _____ _____    ______ ____
ROOT
ATOM      1  C   UNL     1       3.307   6.719  18.441  0.00  0.00    +0.000 C 
ENDROOT
BRANCH   1   2
ATOM      2  O   UNL     1       2.321   5.902  17.799  0.00  0.00    +0.000 OA
BRANCH   2   8
ATOM      3 BR   UNL     1       1.604   2.675  21.800  0.00  0.00    +0.000 Br
ATOM      4  C   UNL     1       1.953   3.017  19.973  0.00  0.00    +0.000 A 
ATOM      5  C   UNL     1       2.040   1.949  19.083  0.00  0.00    +0.000 A 
ATOM      6  C   UNL     1       2.328   2.195  17.744  0.00  0.00    +0.000 A 
ATOM      7  C   UNL     1       2.487   3.506  17.295  0.00  0.00    +0.000 A 
ATOM      8  C   UNL     1       2.308   4.583  18.169  0.00  0.00    +0.000 A 
ATOM      9  C   UNL     1       2.098   4.331  19.527  0.00  0.00    +0.000 A 
ENDBRANCH   2   8
ENDBRANCH   1   2
BRANCH   1  10
ATOM     10  C   UNL     1       4.692   6.441  17.864  0.00  0.00    +0.000 C 
BRANCH  10  11
ATOM     11  O   UNL     1       5.455   5.718  18.839  0.00  0.00    +0.000 OA
BRANCH  11  12
ATOM     12  C   UNL     1       5.994   4.513  18.299  0.00  0.00    +0.000 C 
BRANCH  12  13
ATOM     13  C   UNL     1       7.163   4.844  17.375  0.00  0.00    +0.000 C 
BRANCH  13  14
ATOM     14  N   UNL     1       6.846   4.549  15.995  0.00  0.00    +0.000 N 
ATOM     15  C   UNL     1       5.869   3.702  15.550  0.00  0.00    +0.000 A 
ATOM     16  C   UNL     1       5.908   3.812  14.180  0.00  0.00    +0.000 A 
ATOM     17  N   UNL     1       6.890   4.686  13.788  0.00  0.00    +0.000 NA
ATOM     18  C   UNL     1       7.444   5.106  14.902  0.00  0.00    +0.000 A 
ENDBRANCH  13  14
ENDBRANCH  12  13
ENDBRANCH  11  12
ENDBRANCH  10  11
ENDBRANCH   1  10
TORSDOF 7
ENDMDL
MODEL 6
REMARK VINA RESULT:      -5.3      1.669      2.056
REMARK  Name = 
REMARK  7 active torsions:
REMARK  status: ('A' for Active; 'I' for Inactive)
REMARK    1  A    between atoms: C_6  and  O_7
REMARK    2  A    between atoms: O_7  and  C_8
REMARK    3  A    between atoms: C_8  and  C_9
REMARK    4  A    between atoms: C_9  and  O_10
REMARK    5  A    between atoms: O_10  and  C_11
REMARK    6  A    between atoms: C_11  and  C_12
REMARK    7  A    between atoms: C_12  and  N_13
REMARK                            x       y       z     vdW  Elec       q    Type
REMARK                         _______ _______ _______ _____ _____    ______ ____
ROOT
ATOM      1  C   UNL     1       2.731   6.540  18.269  0.00  0.00    +0.000 C 
ENDROOT
BRANCH   1   2
ATOM      2  O   UNL     1       3.165   5.321  17.653  0.00  0.00    +0.000 OA
BRANCH   2   8
ATOM      3 BR   UNL     1       7.717   7.814  17.648  0.00  0.00    +0.000 Br
ATOM      4  C   UNL     1       6.565   6.441  17.044  0.00  0.00    +0.000 A 
ATOM      5  C   UNL     1       7.058   5.469  16.176  0.00  0.00    +0.000 A 
ATOM      6  C   UNL     1       6.204   4.475  15.705  0.00  0.00    +0.000 A 
ATOM      7  C   UNL     1       4.878   4.435  16.135  0.00  0.00    +0.000 A 
ATOM      8  C   UNL     1       4.409   5.355  17.078  0.00  0.00    +0.000 A 
ATOM      9  C   UNL     1       5.243   6.397  17.488  0.00  0.00    +0.000 A 
ENDBRANCH   2   8
ENDBRANCH   1   2
BRANCH   1  10
ATOM     10  C   UNL     1       2.387   6.308  19.737  0.00  0.00    +0.000 C 
BRANCH  10  11
ATOM     11  O   UNL     1       1.828   4.994  19.871  0.00  0.00    +0.000 OA
BRANCH  11  12
ATOM     12  C   UNL     1       1.899   4.525  21.216  0.00  0.00    +0.000 C 
BRANCH  12  13
ATOM     13  C   UNL     1       2.432   3.095  21.231  0.00  0.00    +0.000 C 
BRANCH  13  14
ATOM     14  N   UNL     1       2.655   2.599  19.891  0.00  0.00    +0.000 N 
ATOM     15  C   UNL     1       3.862   2.276  19.336  0.00  0.00    +0.000 A 
ATOM     16  C   UNL     1       3.555   1.791  18.086  0.00  0.00    +0.000 A 
ATOM     17  N   UNL     1       2.201   1.828  17.868  0.00  0.00    +0.000 NA
ATOM     18  C   UNL     1       1.687   2.330  18.968  0.00  0.00    +0.000 A 
ENDBRANCH  13  14
ENDBRANCH  12  13
ENDBRANCH  11  12
ENDBRANCH  10  11
ENDBRANCH   1  10
TORSDOF 7
ENDMDL
MODEL 7
REMARK VINA RESULT:      -5.3      3.403      5.627
REMARK  Name = 
REMARK  7 active torsions:
REMARK  status: ('A' for Active; 'I' for Inactive)
REMARK    1  A    between atoms: C_6  and  O_7
REMARK    2  A    between atoms: O_7  and  C_8
REMARK    3  A    between atoms: C_8  and  C_9
REMARK    4  A    between atoms: C_9  and  O_10
REMARK    5  A    between atoms: O_10  and  C_11
REMARK    6  A    between atoms: C_11  and  C_12
REMARK    7  A    between atoms: C_12  and  N_13
REMARK                            x       y       z     vdW  Elec       q    Type
REMARK                         _______ _______ _______ _____ _____    ______ ____
ROOT
ATOM      1  C   UNL     1       3.792   6.754  17.636  0.00  0.00    +0.000 C 
ENDROOT
BRANCH   1   2
ATOM      2  O   UNL     1       3.070   6.771  18.874  0.00  0.00    +0.000 OA
BRANCH   2   8
ATOM      3 BR   UNL     1       0.273   9.395  22.370  0.00  0.00    +0.000 Br
ATOM      4  C   UNL     1       0.890   9.102  20.608  0.00  0.00    +0.000 A 
ATOM      5  C   UNL     1       0.552  10.008  19.605  0.00  0.00    +0.000 A 
ATOM      6  C   UNL     1       0.978   9.778  18.300  0.00  0.00    +0.000 A 
ATOM      7  C   UNL     1       1.774   8.669  18.013  0.00  0.00    +0.000 A 
ATOM      8  C   UNL     1       2.191   7.810  19.035  0.00  0.00    +0.000 A 
ATOM      9  C   UNL     1       1.697   7.998  20.328  0.00  0.00    +0.000 A 
ENDBRANCH   2   8
ENDBRANCH   1   2
BRANCH   1  10
ATOM     10  C   UNL     1       4.630   5.484  17.522  0.00  0.00    +0.000 C 
BRANCH  10  11
ATOM     11  O   UNL     1       3.788   4.424  17.048  0.00  0.00    +0.000 OA
BRANCH  11  12
ATOM     12  C   UNL     1       4.161   3.165  17.604  0.00  0.00    +0.000 C 
BRANCH  12  13
ATOM     13  C   UNL     1       2.928   2.473  18.178  0.00  0.00    +0.000 C 
BRANCH  13  14
ATOM     14  N   UNL     1       2.398   3.194  19.314  0.00  0.00    +0.000 N 
ATOM     15  C   UNL     1       3.090   3.573  20.430  0.00  0.00    +0.000 A 
ATOM     16  C   UNL     1       2.184   4.285  21.181  0.00  0.00    +0.000 A 
ATOM     17  N   UNL     1       0.964   4.332  20.556  0.00  0.00    +0.000 NA
ATOM     18  C   UNL     1       1.120   3.657  19.440  0.00  0.00    +0.000 A 
ENDBRANCH  13  14
ENDBRANCH  12  13
ENDBRANCH  11  12
ENDBRANCH  10  11
ENDBRANCH   1  10
TORSDOF 7
ENDMDL
MODEL 8
REMARK VINA RESULT:      -5.3      3.659      6.017
REMARK  Name = 
REMARK  7 active torsions:
REMARK  status: ('A' for Active; 'I' for Inactive)
REMARK    1  A    between atoms: C_6  and  O_7
REMARK    2  A    between atoms: O_7  and  C_8
REMARK    3  A    between atoms: C_8  and  C_9
REMARK    4  A    between atoms: C_9  and  O_10
REMARK    5  A    between atoms: O_10  and  C_11
REMARK    6  A    between atoms: C_11  and  C_12
REMARK    7  A    between atoms: C_12  and  N_13
REMARK                            x       y       z     vdW  Elec       q    Type
REMARK                         _______ _______ _______ _____ _____    ______ ____
ROOT
ATOM      1  C   UNL     1       5.899   5.194  19.063  0.00  0.00    +0.000 C 
ENDROOT
BRANCH   1   2
ATOM      2  O   UNL     1       5.411   3.953  18.538  0.00  0.00    +0.000 OA
BRANCH   2   8
ATOM      3 BR   UNL     1       1.451   2.707  21.652  0.00  0.00    +0.000 Br
ATOM      4  C   UNL     1       2.155   3.245  19.982  0.00  0.00    +0.000 A 
ATOM      5  C   UNL     1       1.283   3.569  18.945  0.00  0.00    +0.000 A 
ATOM      6  C   UNL     1       1.798   3.935  17.705  0.00  0.00    +0.000 A 
ATOM      7  C   UNL     1       3.179   4.014  17.520  0.00  0.00    +0.000 A 
ATOM      8  C   UNL     1       4.053   3.780  18.586  0.00  0.00    +0.000 A 
ATOM      9  C   UNL     1       3.537   3.336  19.806  0.00  0.00    +0.000 A 
ENDBRANCH   2   8
ENDBRANCH   1   2
BRANCH   1  10
ATOM     10  C   UNL     1       6.459   6.067  17.944  0.00  0.00    +0.000 C 
BRANCH  10  11
ATOM     11  O   UNL     1       5.370   6.513  17.126  0.00  0.00    +0.000 OA
BRANCH  11  12
ATOM     12  C   UNL     1       5.610   6.257  15.743  0.00  0.00    +0.000 C 
BRANCH  12  13
ATOM     13  C   UNL     1       6.713   5.212  15.599  0.00  0.00    +0.000 C 
BRANCH  13  14
ATOM     14  N   UNL     1       6.753   4.666  14.261  0.00  0.00    +0.000 N 
ATOM     15  C   UNL     1       5.961   3.666  13.768  0.00  0.00    +0.000 A 
ATOM     16  C   UNL     1       6.321   3.553  12.446  0.00  0.00    +0.000 A 
ATOM     17  N   UNL     1       7.317   4.443  12.133  0.00  0.00    +0.000 NA
ATOM     18  C   UNL     1       7.564   5.091  13.249  0.00  0.00    +0.000 A 
ENDBRANCH  13  14
ENDBRANCH  12  13
ENDBRANCH  11  12
ENDBRANCH  10  11
ENDBRANCH   1  10
TORSDOF 7
ENDMDL
MODEL 9
REMARK VINA RESULT:      -5.3      0.899      1.200
REMARK  Name = 
REMARK  7 active torsions:
REMARK  status: ('A' for Active; 'I' for Inactive)
REMARK    1  A    between atoms: C_6  and  O_7
REMARK    2  A    between atoms: O_7  and  C_8
REMARK    3  A    between atoms: C_8  and  C_9
REMARK    4  A    between atoms: C_9  and  O_10
REMARK    5  A    between atoms: O_10  and  C_11
REMARK    6  A    between atoms: C_11  and  C_12
REMARK    7  A    between atoms: C_12  and  N_13
REMARK                            x       y       z     vdW  Elec       q    Type
REMARK                         _______ _______ _______ _____ _____    ______ ____
ROOT
ATOM      1  C   UNL     1       2.792   6.420  18.282  0.00  0.00    +0.000 C 
ENDROOT
BRANCH   1   2
ATOM      2  O   UNL     1       3.984   6.994  17.732  0.00  0.00    +0.000 OA
BRANCH   2   8
ATOM      3 BR   UNL     1       6.210   4.085  14.055  0.00  0.00    +0.000 Br
ATOM      4  C   UNL     1       6.118   4.766  15.816  0.00  0.00    +0.000 A 
ATOM      5  C   UNL     1       7.139   4.469  16.717  0.00  0.00    +0.000 A 
ATOM      6  C   UNL     1       7.059   4.942  18.024  0.00  0.00    +0.000 A 
ATOM      7  C   UNL     1       5.982   5.741  18.410  0.00  0.00    +0.000 A 
ATOM      8  C   UNL     1       5.006   6.116  17.482  0.00  0.00    +0.000 A 
ATOM      9  C   UNL     1       5.047   5.576  16.194  0.00  0.00    +0.000 A 
ENDBRANCH   2   8
ENDBRANCH   1   2
BRANCH   1  10
ATOM     10  C   UNL     1       2.463   7.054  19.630  0.00  0.00    +0.000 C 
BRANCH  10  11
ATOM     11  O   UNL     1       1.430   6.281  20.257  0.00  0.00    +0.000 OA
BRANCH  11  12
ATOM     12  C   UNL     1       1.960   5.145  20.938  0.00  0.00    +0.000 C 
BRANCH  12  13
ATOM     13  C   UNL     1       1.353   3.871  20.358  0.00  0.00    +0.000 C 
BRANCH  13  14
ATOM     14  N   UNL     1       2.351   3.071  19.681  0.00  0.00    +0.000 N 
ATOM     15  C   UNL     1       3.704   3.137  19.864  0.00  0.00    +0.000 A 
ATOM     16  C   UNL     1       4.215   2.144  19.060  0.00  0.00    +0.000 A 
ATOM     17  N   UNL     1       3.211   1.496  18.387  0.00  0.00    +0.000 NA
ATOM     18  C   UNL     1       2.101   2.083  18.773  0.00  0.00    +0.000 A 
ENDBRANCH  13  14
ENDBRANCH  12  13
ENDBRANCH  11  12
ENDBRANCH  10  11
ENDBRANCH   1  10
TORSDOF 7
ENDMDL
