MODEL 1
REMARK VINA RESULT:      -9.2      0.000      0.000
REMARK  Name = 
REMARK  8 active torsions:
REMARK  status: ('A' for Active; 'I' for Inactive)
REMARK    1  A    between atoms: C_1  and  N_2
REMARK    2  A    between atoms: C_3  and  C_5
REMARK    3  A    between atoms: C_7  and  C_8
REMARK    4  A    between atoms: C_10  and  C_11
REMARK    5  A    between atoms: C_15  and  C_16
REMARK    6  A    between atoms: C_20  and  N_21
REMARK    7  A    between atoms: N_24  and  C_25
REMARK    8  A    between atoms: C_25  and  C_26
REMARK                            x       y       z     vdW  Elec       q    Type
REMARK                         _______ _______ _______ _____ _____    ______ ____
ROOT
ATOM      1  C   UNL     1       1.282   8.892  19.134  0.00  0.00    +0.000 A 
ATOM      2  C   UNL     1       2.442   8.885  18.231  0.00  0.00    +0.000 A 
ATOM      3  C   UNL     1       3.287   7.843  18.220  0.00  0.00    +0.000 A 
ATOM      4  N   UNL     1       3.091   6.776  19.101  0.00  0.00    +0.000 N 
ATOM      5  C   UNL     1       3.832   5.614  19.310  0.00  0.00    +0.000 A 
ATOM      6  C   UNL     1       3.099   4.924  20.264  0.00  0.00    +0.000 A 
ATOM      7  N   UNL     1       1.991   5.616  20.668  0.00  0.00    +0.000 NA
ATOM      8  C   UNL     1       2.009   6.734  19.975  0.00  0.00    +0.000 A 
ATOM      9  C   UNL     1       1.103   7.836  19.968  0.00  0.00    +0.000 A 
ENDROOT
BRANCH   1  15
ATOM     10  C   UNL     1      -1.592  10.905  18.148  0.00  0.00    +0.000 A 
ATOM     11  C   UNL     1      -1.789  11.743  19.226  0.00  0.00    +0.000 A 
ATOM     12  C   UNL     1      -0.845  11.669  20.220  0.00  0.00    +0.000 A 
ATOM     13  C   UNL     1      -0.915  12.546  21.432  0.00  0.00    +0.000 C 
ATOM     14  N   UNL     1       0.174  10.790  20.171  0.00  0.00    +0.000 NA
ATOM     15  C   UNL     1       0.263   9.981  19.098  0.00  0.00    +0.000 A 
ATOM     16  N   UNL     1      -0.569  10.023  18.042  0.00  0.00    +0.000 NA
BRANCH  10  19
ATOM     17  C   UNL     1      -3.096  10.208  14.738  0.00  0.00    +0.000 C 
ATOM     18  N   UNL     1      -2.207  10.299  15.868  0.00  0.00    +0.000 N 
ATOM     19  C   UNL     1      -2.590  10.934  17.030  0.00  0.00    +0.000 C 
ATOM     20  O   UNL     1      -3.668  11.500  17.166  0.00  0.00    +0.000 OA
ATOM     21  H   UNL     1      -1.278   9.896  15.828  0.00  0.00    +0.000 HD
ENDBRANCH  10  19
ENDBRANCH   1  15
BRANCH   5  22
ATOM     22  C   UNL     1       5.099   5.255  18.656  0.00  0.00    +0.000 A 
ATOM     23  C   UNL     1       6.317   5.612  19.250  0.00  0.00    +0.000 A 
ATOM     24  C   UNL     1       7.521   5.333  18.618  0.00  0.00    +0.000 A 
ATOM     25  C   UNL     1       7.528   4.640  17.412  0.00  0.00    +0.000 A 
ATOM     26  C   UNL     1       6.341   4.209  16.819  0.00  0.00    +0.000 A 
ATOM     27  C   UNL     1       5.122   4.532  17.449  0.00  0.00    +0.000 A 
BRANCH  26  28
ATOM     28  N   UNL     1       6.314   3.476  15.603  0.00  0.00    +0.000 N 
ATOM     29  C   UNL     1       6.145   4.010  14.346  0.00  0.00    +0.000 C 
ATOM     30  O   UNL     1       6.038   5.197  14.054  0.00  0.00    +0.000 OA
ATOM     31  N   UNL     1       6.036   3.058  13.360  0.00  0.00    +0.000 N 
ATOM     32  H   UNL     1       6.401   2.477  15.669  0.00  0.00    +0.000 HD
ATOM     33  H   UNL     1       6.571   2.208  13.487  0.00  0.00    +0.000 HD
BRANCH  31  34
ATOM     34  C   UNL     1       5.837   3.523  11.980  0.00  0.00    +0.000 C 
BRANCH  34  35
ATOM     35  C   UNL     1       4.481   3.186  11.338  0.00  0.00    +0.000 C 
ATOM     36  F   UNL     1       4.139   4.074  10.376  0.00  0.00    +0.000 F 
ATOM     37  F   UNL     1       4.548   1.969  10.738  0.00  0.00    +0.000 F 
ATOM     38  F   UNL     1       3.479   3.131  12.239  0.00  0.00    +0.000 F 
ENDBRANCH  34  35
ENDBRANCH  31  34
ENDBRANCH  26  28
ENDBRANCH   5  22
TORSDOF 6
ENDMDL
MODEL 2
REMARK VINA RESULT:      -9.2      1.096      1.165
REMARK  Name = 
REMARK  8 active torsions:
REMARK  status: ('A' for Active; 'I' for Inactive)
REMARK    1  A    between atoms: C_1  and  N_2
REMARK    2  A    between atoms: C_3  and  C_5
REMARK    3  A    between atoms: C_7  and  C_8
REMARK    4  A    between atoms: C_10  and  C_11
REMARK    5  A    between atoms: C_15  and  C_16
REMARK    6  A    between atoms: C_20  and  N_21
REMARK    7  A    between atoms: N_24  and  C_25
REMARK    8  A    between atoms: C_25  and  C_26
REMARK                            x       y       z     vdW  Elec       q    Type
REMARK                         _______ _______ _______ _____ _____    ______ ____
ROOT
ATOM      1  C   UNL     1       1.544   9.114  18.568  0.00  0.00    +0.000 A 
ATOM      2  C   UNL     1       2.745   8.992  17.731  0.00  0.00    +0.000 A 
ATOM      3  C   UNL     1       3.541   7.917  17.839  0.00  0.00    +0.000 A 
ATOM      4  N   UNL     1       3.251   6.925  18.781  0.00  0.00    +0.000 N 
ATOM      5  C   UNL     1       3.926   5.751  19.110  0.00  0.00    +0.000 A 
ATOM      6  C   UNL     1       3.115   5.164  20.070  0.00  0.00    +0.000 A 
ATOM      7  N   UNL     1       2.022   5.930  20.364  0.00  0.00    +0.000 NA
ATOM      8  C   UNL     1       2.126   6.993  19.597  0.00  0.00    +0.000 A 
ATOM      9  C   UNL     1       1.274   8.130  19.464  0.00  0.00    +0.000 A 
ENDROOT
BRANCH   1  15
ATOM     10  C   UNL     1      -1.562  10.966  18.112  0.00  0.00    +0.000 A 
ATOM     11  C   UNL     1      -1.223  12.260  18.447  0.00  0.00    +0.000 A 
ATOM     12  C   UNL     1       0.106  12.480  18.710  0.00  0.00    +0.000 A 
ATOM     13  C   UNL     1       0.621  13.844  19.052  0.00  0.00    +0.000 C 
ATOM     14  N   UNL     1       1.009  11.481  18.699  0.00  0.00    +0.000 NA
ATOM     15  C   UNL     1       0.580  10.240  18.402  0.00  0.00    +0.000 A 
ATOM     16  N   UNL     1      -0.686   9.934  18.063  0.00  0.00    +0.000 NA
BRANCH  10  19
ATOM     17  C   UNL     1      -5.218  11.589  17.321  0.00  0.00    +0.000 C 
ATOM     18  N   UNL     1      -3.827  11.749  17.661  0.00  0.00    +0.000 N 
ATOM     19  C   UNL     1      -2.999  10.657  17.817  0.00  0.00    +0.000 C 
ATOM     20  O   UNL     1      -3.387   9.498  17.733  0.00  0.00    +0.000 OA
ATOM     21  H   UNL     1      -3.430  12.672  17.792  0.00  0.00    +0.000 HD
ENDBRANCH  10  19
ENDBRANCH   1  15
BRANCH   5  22
ATOM     22  C   UNL     1       5.206   5.292  18.551  0.00  0.00    +0.000 A 
ATOM     23  C   UNL     1       6.398   5.526  19.250  0.00  0.00    +0.000 A 
ATOM     24  C   UNL     1       7.620   5.151  18.711  0.00  0.00    +0.000 A 
ATOM     25  C   UNL     1       7.666   4.484  17.491  0.00  0.00    +0.000 A 
ATOM     26  C   UNL     1       6.498   4.173  16.793  0.00  0.00    +0.000 A 
ATOM     27  C   UNL     1       5.265   4.593  17.331  0.00  0.00    +0.000 A 
BRANCH  26  28
ATOM     28  N   UNL     1       6.508   3.469  15.560  0.00  0.00    +0.000 N 
ATOM     29  C   UNL     1       6.239   4.009  14.324  0.00  0.00    +0.000 C 
ATOM     30  O   UNL     1       5.995   5.185  14.066  0.00  0.00    +0.000 OA
ATOM     31  N   UNL     1       6.198   3.073  13.317  0.00  0.00    +0.000 N 
ATOM     32  H   UNL     1       6.704   2.484  15.597  0.00  0.00    +0.000 HD
ATOM     33  H   UNL     1       6.825   2.284  13.405  0.00  0.00    +0.000 HD
BRANCH  31  34
ATOM     34  C   UNL     1       5.903   3.545  11.957  0.00  0.00    +0.000 C 
BRANCH  34  35
ATOM     35  C   UNL     1       4.499   3.225  11.417  0.00  0.00    +0.000 C 
ATOM     36  F   UNL     1       4.094   4.125  10.489  0.00  0.00    +0.000 F 
ATOM     37  F   UNL     1       4.509   2.013  10.805  0.00  0.00    +0.000 F 
ATOM     38  F   UNL     1       3.567   3.173  12.390  0.00  0.00    +0.000 F 
ENDBRANCH  34  35
ENDBRANCH  31  34
ENDBRANCH  26  28
ENDBRANCH   5  22
TORSDOF 6
ENDMDL
MODEL 3
REMARK VINA RESULT:      -9.0      1.577      2.383
REMARK  Name = 
REMARK  8 active torsions:
REMARK  status: ('A' for Active; 'I' for Inactive)
REMARK    1  A    between atoms: C_1  and  N_2
REMARK    2  A    between atoms: C_3  and  C_5
REMARK    3  A    between atoms: C_7  and  C_8
REMARK    4  A    between atoms: C_10  and  C_11
REMARK    5  A    between atoms: C_15  and  C_16
REMARK    6  A    between atoms: C_20  and  N_21
REMARK    7  A    between atoms: N_24  and  C_25
REMARK    8  A    between atoms: C_25  and  C_26
REMARK                            x       y       z     vdW  Elec       q    Type
REMARK                         _______ _______ _______ _____ _____    ______ ____
ROOT
ATOM      1  C   UNL     1       1.381   8.978  18.670  0.00  0.00    +0.000 A 
ATOM      2  C   UNL     1       2.551   8.873  17.787  0.00  0.00    +0.000 A 
ATOM      3  C   UNL     1       3.388   7.830  17.891  0.00  0.00    +0.000 A 
ATOM      4  N   UNL     1       3.173   6.857  18.871  0.00  0.00    +0.000 N 
ATOM      5  C   UNL     1       3.902   5.716  19.203  0.00  0.00    +0.000 A 
ATOM      6  C   UNL     1       3.153   5.129  20.212  0.00  0.00    +0.000 A 
ATOM      7  N   UNL     1       2.045   5.866  20.531  0.00  0.00    +0.000 NA
ATOM      8  C   UNL     1       2.080   6.909  19.731  0.00  0.00    +0.000 A 
ATOM      9  C   UNL     1       1.184   8.011  19.603  0.00  0.00    +0.000 A 
ENDROOT
BRANCH   1  15
ATOM     10  C   UNL     1      -0.135  12.287  18.483  0.00  0.00    +0.000 A 
ATOM     11  C   UNL     1      -1.360  12.053  17.894  0.00  0.00    +0.000 A 
ATOM     12  C   UNL     1      -1.678  10.734  17.682  0.00  0.00    +0.000 A 
ATOM     13  C   UNL     1      -2.989  10.332  17.082  0.00  0.00    +0.000 C 
ATOM     14  N   UNL     1      -0.821   9.738  17.978  0.00  0.00    +0.000 NA
ATOM     15  C   UNL     1       0.371  10.064  18.514  0.00  0.00    +0.000 A 
ATOM     16  N   UNL     1       0.749  11.318  18.822  0.00  0.00    +0.000 NA
BRANCH  10  19
ATOM     17  C   UNL     1      -0.495  15.995  19.193  0.00  0.00    +0.000 C 
ATOM     18  N   UNL     1      -0.755  14.610  18.890  0.00  0.00    +0.000 N 
ATOM     19  C   UNL     1       0.275  13.707  18.738  0.00  0.00    +0.000 C 
ATOM     20  O   UNL     1       1.460  14.016  18.795  0.00  0.00    +0.000 OA
ATOM     21  H   UNL     1      -1.705  14.274  18.783  0.00  0.00    +0.000 HD
ENDBRANCH  10  19
ENDBRANCH   1  15
BRANCH   5  22
ATOM     22  C   UNL     1       5.174   5.285  18.604  0.00  0.00    +0.000 A 
ATOM     23  C   UNL     1       6.382   5.562  19.257  0.00  0.00    +0.000 A 
ATOM     24  C   UNL     1       7.595   5.214  18.678  0.00  0.00    +0.000 A 
ATOM     25  C   UNL     1       7.615   4.532  17.466  0.00  0.00    +0.000 A 
ATOM     26  C   UNL     1       6.433   4.180  16.814  0.00  0.00    +0.000 A 
ATOM     27  C   UNL     1       5.209   4.573  17.391  0.00  0.00    +0.000 A 
BRANCH  26  28
ATOM     28  N   UNL     1       6.418   3.462  15.590  0.00  0.00    +0.000 N 
ATOM     29  C   UNL     1       6.229   4.005  14.340  0.00  0.00    +0.000 C 
ATOM     30  O   UNL     1       6.089   5.192  14.062  0.00  0.00    +0.000 OA
ATOM     31  N   UNL     1       6.138   3.062  13.344  0.00  0.00    +0.000 N 
ATOM     32  H   UNL     1       6.532   2.464  15.644  0.00  0.00    +0.000 HD
ATOM     33  H   UNL     1       6.696   2.225  13.458  0.00  0.00    +0.000 HD
BRANCH  31  34
ATOM     34  C   UNL     1       5.920   3.537  11.970  0.00  0.00    +0.000 C 
BRANCH  34  35
ATOM     35  C   UNL     1       4.555   3.203  11.345  0.00  0.00    +0.000 C 
ATOM     36  F   UNL     1       4.209   4.087  10.379  0.00  0.00    +0.000 F 
ATOM     37  F   UNL     1       4.609   1.982  10.754  0.00  0.00    +0.000 F 
ATOM     38  F   UNL     1       3.562   3.162  12.256  0.00  0.00    +0.000 F 
ENDBRANCH  34  35
ENDBRANCH  31  34
ENDBRANCH  26  28
ENDBRANCH   5  22
TORSDOF 6
ENDMDL
MODEL 4
REMARK VINA RESULT:      -8.8      3.268      5.408
REMARK  Name = 
REMARK  8 active torsions:
REMARK  status: ('A' for Active; 'I' for Inactive)
REMARK    1  A    between atoms: C_1  and  N_2
REMARK    2  A    between atoms: C_3  and  C_5
REMARK    3  A    between atoms: C_7  and  C_8
REMARK    4  A    between atoms: C_10  and  C_11
REMARK    5  A    between atoms: C_15  and  C_16
REMARK    6  A    between atoms: C_20  and  N_21
REMARK    7  A    between atoms: N_24  and  C_25
REMARK    8  A    between atoms: C_25  and  C_26
REMARK                            x       y       z     vdW  Elec       q    Type
REMARK                         _______ _______ _______ _____ _____    ______ ____
ROOT
ATOM      1  C   UNL     1      -0.573  11.062  22.165  0.00  0.00    +0.000 A 
ATOM      2  C   UNL     1      -0.090   9.805  22.755  0.00  0.00    +0.000 A 
ATOM      3  C   UNL     1       0.612   8.934  22.014  0.00  0.00    +0.000 A 
ATOM      4  N   UNL     1       0.852   9.201  20.662  0.00  0.00    +0.000 N 
ATOM      5  C   UNL     1       1.510   8.456  19.685  0.00  0.00    +0.000 A 
ATOM      6  C   UNL     1       1.472   9.274  18.566  0.00  0.00    +0.000 A 
ATOM      7  N   UNL     1       0.799  10.441  18.801  0.00  0.00    +0.000 NA
ATOM      8  C   UNL     1       0.416  10.376  20.057  0.00  0.00    +0.000 A 
ATOM      9  C   UNL     1      -0.313  11.306  20.855  0.00  0.00    +0.000 A 
ENDROOT
BRANCH   1  15
ATOM     10  C   UNL     1      -1.368  14.244  23.753  0.00  0.00    +0.000 A 
ATOM     11  C   UNL     1      -2.673  14.084  24.171  0.00  0.00    +0.000 A 
ATOM     12  C   UNL     1      -3.206  12.832  23.995  0.00  0.00    +0.000 A 
ATOM     13  C   UNL     1      -4.600  12.506  24.434  0.00  0.00    +0.000 C 
ATOM     14  N   UNL     1      -2.517  11.841  23.397  0.00  0.00    +0.000 NA
ATOM     15  C   UNL     1      -1.262  12.101  22.983  0.00  0.00    +0.000 A 
ATOM     16  N   UNL     1      -0.626  13.272  23.171  0.00  0.00    +0.000 NA
BRANCH  10  19
ATOM     17  C   UNL     1      -0.374  17.806  22.913  0.00  0.00    +0.000 C 
ATOM     18  N   UNL     1      -0.894  16.464  22.860  0.00  0.00    +0.000 N 
ATOM     19  C   UNL     1      -0.727  15.590  23.913  0.00  0.00    +0.000 C 
ATOM     20  O   UNL     1      -0.094  15.866  24.926  0.00  0.00    +0.000 OA
ATOM     21  H   UNL     1      -1.395  16.135  22.043  0.00  0.00    +0.000 HD
ENDBRANCH  10  19
ENDBRANCH   1  15
BRANCH   5  22
ATOM     22  C   UNL     1       2.082   7.111  19.848  0.00  0.00    +0.000 A 
ATOM     23  C   UNL     1       1.483   6.198  20.727  0.00  0.00    +0.000 A 
ATOM     24  C   UNL     1       2.042   4.946  20.937  0.00  0.00    +0.000 A 
ATOM     25  C   UNL     1       3.176   4.564  20.227  0.00  0.00    +0.000 A 
ATOM     26  C   UNL     1       3.767   5.418  19.294  0.00  0.00    +0.000 A 
ATOM     27  C   UNL     1       3.213   6.702  19.118  0.00  0.00    +0.000 A 
BRANCH  26  28
ATOM     28  N   UNL     1       4.907   5.050  18.534  0.00  0.00    +0.000 N 
ATOM     29  C   UNL     1       4.890   4.463  17.290  0.00  0.00    +0.000 C 
ATOM     30  O   UNL     1       3.903   4.202  16.607  0.00  0.00    +0.000 OA
ATOM     31  N   UNL     1       6.138   4.102  16.839  0.00  0.00    +0.000 N 
ATOM     32  H   UNL     1       5.808   5.210  18.952  0.00  0.00    +0.000 HD
ATOM     33  H   UNL     1       6.910   4.696  17.113  0.00  0.00    +0.000 HD
BRANCH  31  34
ATOM     34  C   UNL     1       6.229   3.452  15.524  0.00  0.00    +0.000 C 
BRANCH  34  35
ATOM     35  C   UNL     1       6.450   4.383  14.320  0.00  0.00    +0.000 C 
ATOM     36  F   UNL     1       6.481   3.703  13.150  0.00  0.00    +0.000 F 
ATOM     37  F   UNL     1       5.421   5.265  14.230  0.00  0.00    +0.000 F 
ATOM     38  F   UNL     1       7.585   5.104  14.422  0.00  0.00    +0.000 F 
ENDBRANCH  34  35
ENDBRANCH  31  34
ENDBRANCH  26  28
ENDBRANCH   5  22
TORSDOF 6
ENDMDL
MODEL 5
REMARK VINA RESULT:      -8.7      3.047      4.940
REMARK  Name = 
REMARK  8 active torsions:
REMARK  status: ('A' for Active; 'I' for Inactive)
REMARK    1  A    between atoms: C_1  and  N_2
REMARK    2  A    between atoms: C_3  and  C_5
REMARK    3  A    between atoms: C_7  and  C_8
REMARK    4  A    between atoms: C_10  and  C_11
REMARK    5  A    between atoms: C_15  and  C_16
REMARK    6  A    between atoms: C_20  and  N_21
REMARK    7  A    between atoms: N_24  and  C_25
REMARK    8  A    between atoms: C_25  and  C_26
REMARK                            x       y       z     vdW  Elec       q    Type
REMARK                         _______ _______ _______ _____ _____    ______ ____
ROOT
ATOM      1  C   UNL     1      -0.374  11.011  21.458  0.00  0.00    +0.000 A 
ATOM      2  C   UNL     1      -0.094   9.750  22.158  0.00  0.00    +0.000 A 
ATOM      3  C   UNL     1       0.626   8.788  21.561  0.00  0.00    +0.000 A 
ATOM      4  N   UNL     1       1.079   8.966  20.251  0.00  0.00    +0.000 N 
ATOM      5  C   UNL     1       1.800   8.122  19.409  0.00  0.00    +0.000 A 
ATOM      6  C   UNL     1       1.996   8.884  18.267  0.00  0.00    +0.000 A 
ATOM      7  N   UNL     1       1.403  10.113  18.356  0.00  0.00    +0.000 NA
ATOM      8  C   UNL     1       0.841  10.142  19.544  0.00  0.00    +0.000 A 
ATOM      9  C   UNL     1       0.091  11.168  20.192  0.00  0.00    +0.000 A 
ENDROOT
BRANCH   1  15
ATOM     10  C   UNL     1      -2.835  12.911  23.360  0.00  0.00    +0.000 A 
ATOM     11  C   UNL     1      -2.190  14.099  23.635  0.00  0.00    +0.000 A 
ATOM     12  C   UNL     1      -0.957  14.257  23.053  0.00  0.00    +0.000 A 
ATOM     13  C   UNL     1      -0.159  15.511  23.237  0.00  0.00    +0.000 C 
ATOM     14  N   UNL     1      -0.390  13.287  22.309  0.00  0.00    +0.000 NA
ATOM     15  C   UNL     1      -1.078  12.143  22.127  0.00  0.00    +0.000 A 
ATOM     16  N   UNL     1      -2.318  11.918  22.597  0.00  0.00    +0.000 NA
BRANCH  10  19
ATOM     17  C   UNL     1      -6.578  13.222  23.887  0.00  0.00    +0.000 C 
ATOM     18  N   UNL     1      -5.224  13.399  23.427  0.00  0.00    +0.000 N 
ATOM     19  C   UNL     1      -4.184  12.674  23.969  0.00  0.00    +0.000 C 
ATOM     20  O   UNL     1      -4.323  11.884  24.896  0.00  0.00    +0.000 OA
ATOM     21  H   UNL     1      -5.010  14.063  22.692  0.00  0.00    +0.000 HD
ENDBRANCH  10  19
ENDBRANCH   1  15
BRANCH   5  22
ATOM     22  C   UNL     1       2.221   6.744  19.704  0.00  0.00    +0.000 A 
ATOM     23  C   UNL     1       1.578   6.018  20.716  0.00  0.00    +0.000 A 
ATOM     24  C   UNL     1       2.001   4.739  21.046  0.00  0.00    +0.000 A 
ATOM     25  C   UNL     1       3.034   4.142  20.331  0.00  0.00    +0.000 A 
ATOM     26  C   UNL     1       3.658   4.804  19.274  0.00  0.00    +0.000 A 
ATOM     27  C   UNL     1       3.247   6.118  18.972  0.00  0.00    +0.000 A 
BRANCH  26  28
ATOM     28  N   UNL     1       4.696   4.214  18.506  0.00  0.00    +0.000 N 
ATOM     29  C   UNL     1       5.479   4.862  17.579  0.00  0.00    +0.000 C 
ATOM     30  O   UNL     1       5.451   6.055  17.290  0.00  0.00    +0.000 OA
ATOM     31  N   UNL     1       6.324   4.020  16.895  0.00  0.00    +0.000 N 
ATOM     32  H   UNL     1       4.857   3.229  18.634  0.00  0.00    +0.000 HD
ATOM     33  H   UNL     1       6.689   3.227  17.408  0.00  0.00    +0.000 HD
BRANCH  31  34
ATOM     34  C   UNL     1       7.194   4.610  15.869  0.00  0.00    +0.000 C 
BRANCH  34  35
ATOM     35  C   UNL     1       6.648   4.607  14.430  0.00  0.00    +0.000 C 
ATOM     36  F   UNL     1       6.358   3.357  14.000  0.00  0.00    +0.000 F 
ATOM     37  F   UNL     1       5.490   5.315  14.379  0.00  0.00    +0.000 F 
ATOM     38  F   UNL     1       7.499   5.172  13.550  0.00  0.00    +0.000 F 
ENDBRANCH  34  35
ENDBRANCH  31  34
ENDBRANCH  26  28
ENDBRANCH   5  22
TORSDOF 6
ENDMDL
MODEL 6
REMARK VINA RESULT:      -8.7      1.079      1.397
REMARK  Name = 
REMARK  8 active torsions:
REMARK  status: ('A' for Active; 'I' for Inactive)
REMARK    1  A    between atoms: C_1  and  N_2
REMARK    2  A    between atoms: C_3  and  C_5
REMARK    3  A    between atoms: C_7  and  C_8
REMARK    4  A    between atoms: C_10  and  C_11
REMARK    5  A    between atoms: C_15  and  C_16
REMARK    6  A    between atoms: C_20  and  N_21
REMARK    7  A    between atoms: N_24  and  C_25
REMARK    8  A    between atoms: C_25  and  C_26
REMARK                            x       y       z     vdW  Elec       q    Type
REMARK                         _______ _______ _______ _____ _____    ______ ____
ROOT
ATOM      1  C   UNL     1       1.209   8.999  19.044  0.00  0.00    +0.000 A 
ATOM      2  C   UNL     1       2.265   8.922  18.027  0.00  0.00    +0.000 A 
ATOM      3  C   UNL     1       3.096   7.869  17.988  0.00  0.00    +0.000 A 
ATOM      4  N   UNL     1       2.984   6.857  18.946  0.00  0.00    +0.000 N 
ATOM      5  C   UNL     1       3.732   5.698  19.144  0.00  0.00    +0.000 A 
ATOM      6  C   UNL     1       3.099   5.075  20.209  0.00  0.00    +0.000 A 
ATOM      7  N   UNL     1       2.046   5.806  20.685  0.00  0.00    +0.000 NA
ATOM      8  C   UNL     1       2.000   6.882  19.930  0.00  0.00    +0.000 A 
ATOM      9  C   UNL     1       1.109   7.995  19.953  0.00  0.00    +0.000 A 
ENDROOT
BRANCH   1  15
ATOM     10  C   UNL     1      -1.685  11.042  18.185  0.00  0.00    +0.000 A 
ATOM     11  C   UNL     1      -1.823  11.885  19.268  0.00  0.00    +0.000 A 
ATOM     12  C   UNL     1      -0.836  11.802  20.219  0.00  0.00    +0.000 A 
ATOM     13  C   UNL     1      -0.840  12.683  21.430  0.00  0.00    +0.000 C 
ATOM     14  N   UNL     1       0.170  10.911  20.126  0.00  0.00    +0.000 NA
ATOM     15  C   UNL     1       0.202  10.099  19.052  0.00  0.00    +0.000 A 
ATOM     16  N   UNL     1      -0.678  10.148  18.035  0.00  0.00    +0.000 NA
BRANCH  10  19
ATOM     17  C   UNL     1      -3.337  10.382  14.836  0.00  0.00    +0.000 C 
ATOM     18  N   UNL     1      -2.398  10.463  15.926  0.00  0.00    +0.000 N 
ATOM     19  C   UNL     1      -2.732  11.080  17.113  0.00  0.00    +0.000 C 
ATOM     20  O   UNL     1      -3.806  11.638  17.306  0.00  0.00    +0.000 OA
ATOM     21  H   UNL     1      -1.470  10.065  15.840  0.00  0.00    +0.000 HD
ENDBRANCH  10  19
ENDBRANCH   1  15
BRANCH   5  22
ATOM     22  C   UNL     1       4.920   5.282  18.383  0.00  0.00    +0.000 A 
ATOM     23  C   UNL     1       6.200   5.598  18.857  0.00  0.00    +0.000 A 
ATOM     24  C   UNL     1       7.329   5.265  18.123  0.00  0.00    +0.000 A 
ATOM     25  C   UNL     1       7.199   4.559  16.931  0.00  0.00    +0.000 A 
ATOM     26  C   UNL     1       5.947   4.169  16.455  0.00  0.00    +0.000 A 
ATOM     27  C   UNL     1       4.805   4.546  17.189  0.00  0.00    +0.000 A 
BRANCH  26  28
ATOM     28  N   UNL     1       5.781   3.425  15.257  0.00  0.00    +0.000 N 
ATOM     29  C   UNL     1       6.401   3.685  14.056  0.00  0.00    +0.000 C 
ATOM     30  O   UNL     1       7.229   4.561  13.824  0.00  0.00    +0.000 OA
ATOM     31  N   UNL     1       5.963   2.880  13.031  0.00  0.00    +0.000 N 
ATOM     32  H   UNL     1       5.135   2.655  15.282  0.00  0.00    +0.000 HD
ATOM     33  H   UNL     1       5.700   1.934  13.276  0.00  0.00    +0.000 HD
BRANCH  31  34
ATOM     34  C   UNL     1       6.551   3.087  11.700  0.00  0.00    +0.000 C 
BRANCH  34  35
ATOM     35  C   UNL     1       7.121   1.837  11.008  0.00  0.00    +0.000 C 
ATOM     36  F   UNL     1       7.937   1.131  11.825  0.00  0.00    +0.000 F 
ATOM     37  F   UNL     1       6.106   1.006  10.658  0.00  0.00    +0.000 F 
ATOM     38  F   UNL     1       7.801   2.132   9.882  0.00  0.00    +0.000 F 
ENDBRANCH  34  35
ENDBRANCH  31  34
ENDBRANCH  26  28
ENDBRANCH   5  22
TORSDOF 6
ENDMDL
MODEL 7
REMARK VINA RESULT:      -8.6      2.877      4.739
REMARK  Name = 
REMARK  8 active torsions:
REMARK  status: ('A' for Active; 'I' for Inactive)
REMARK    1  A    between atoms: C_1  and  N_2
REMARK    2  A    between atoms: C_3  and  C_5
REMARK    3  A    between atoms: C_7  and  C_8
REMARK    4  A    between atoms: C_10  and  C_11
REMARK    5  A    between atoms: C_15  and  C_16
REMARK    6  A    between atoms: C_20  and  N_21
REMARK    7  A    between atoms: N_24  and  C_25
REMARK    8  A    between atoms: C_25  and  C_26
REMARK                            x       y       z     vdW  Elec       q    Type
REMARK                         _______ _______ _______ _____ _____    ______ ____
ROOT
ATOM      1  C   UNL     1       0.033  10.658  21.499  0.00  0.00    +0.000 A 
ATOM      2  C   UNL     1       0.318   9.371  22.148  0.00  0.00    +0.000 A 
ATOM      3  C   UNL     1       0.966   8.403  21.481  0.00  0.00    +0.000 A 
ATOM      4  N   UNL     1       1.338   8.603  20.148  0.00  0.00    +0.000 N 
ATOM      5  C   UNL     1       1.976   7.760  19.240  0.00  0.00    +0.000 A 
ATOM      6  C   UNL     1       2.120   8.546  18.106  0.00  0.00    +0.000 A 
ATOM      7  N   UNL     1       1.575   9.789  18.265  0.00  0.00    +0.000 NA
ATOM      8  C   UNL     1       1.092   9.804  19.488  0.00  0.00    +0.000 A 
ATOM      9  C   UNL     1       0.419  10.834  20.209  0.00  0.00    +0.000 A 
ENDROOT
BRANCH   1  15
ATOM     10  C   UNL     1      -0.652  14.018  22.735  0.00  0.00    +0.000 A 
ATOM     11  C   UNL     1      -1.906  13.909  23.297  0.00  0.00    +0.000 A 
ATOM     12  C   UNL     1      -2.435  12.643  23.338  0.00  0.00    +0.000 A 
ATOM     13  C   UNL     1      -3.774  12.373  23.953  0.00  0.00    +0.000 C 
ATOM     14  N   UNL     1      -1.792  11.585  22.808  0.00  0.00    +0.000 NA
ATOM     15  C   UNL     1      -0.588  11.792  22.241  0.00  0.00    +0.000 A 
ATOM     16  N   UNL     1       0.044  12.980  22.212  0.00  0.00    +0.000 NA
BRANCH  10  19
ATOM     17  C   UNL     1      -0.407  17.785  22.376  0.00  0.00    +0.000 C 
ATOM     18  N   UNL     1      -0.881  16.425  22.421  0.00  0.00    +0.000 N 
ATOM     19  C   UNL     1      -0.020  15.375  22.655  0.00  0.00    +0.000 C 
ATOM     20  O   UNL     1       1.191  15.511  22.788  0.00  0.00    +0.000 OA
ATOM     21  H   UNL     1      -1.862  16.215  22.279  0.00  0.00    +0.000 HD
ENDBRANCH  10  19
ENDBRANCH   1  15
BRANCH   5  22
ATOM     22  C   UNL     1       2.370   6.362  19.472  0.00  0.00    +0.000 A 
ATOM     23  C   UNL     1       1.884   5.676  20.592  0.00  0.00    +0.000 A 
ATOM     24  C   UNL     1       2.291   4.376  20.858  0.00  0.00    +0.000 A 
ATOM     25  C   UNL     1       3.146   3.722  19.976  0.00  0.00    +0.000 A 
ATOM     26  C   UNL     1       3.603   4.347  18.816  0.00  0.00    +0.000 A 
ATOM     27  C   UNL     1       3.214   5.680  18.576  0.00  0.00    +0.000 A 
BRANCH  26  28
ATOM     28  N   UNL     1       4.453   3.699  17.882  0.00  0.00    +0.000 N 
ATOM     29  C   UNL     1       5.311   4.324  17.006  0.00  0.00    +0.000 C 
ATOM     30  O   UNL     1       5.524   5.530  16.912  0.00  0.00    +0.000 OA
ATOM     31  N   UNL     1       5.924   3.459  16.131  0.00  0.00    +0.000 N 
ATOM     32  H   UNL     1       4.408   2.695  17.840  0.00  0.00    +0.000 HD
ATOM     33  H   UNL     1       6.136   2.533  16.481  0.00  0.00    +0.000 HD
BRANCH  31  34
ATOM     34  C   UNL     1       6.850   4.028  15.142  0.00  0.00    +0.000 C 
BRANCH  34  35
ATOM     35  C   UNL     1       6.337   4.099  13.693  0.00  0.00    +0.000 C 
ATOM     36  F   UNL     1       7.064   4.956  12.939  0.00  0.00    +0.000 F 
ATOM     37  F   UNL     1       6.447   2.878  13.109  0.00  0.00    +0.000 F 
ATOM     38  F   UNL     1       5.041   4.462  13.618  0.00  0.00    +0.000 F 
ENDBRANCH  34  35
ENDBRANCH  31  34
ENDBRANCH  26  28
ENDBRANCH   5  22
TORSDOF 6
ENDMDL
MODEL 8
REMARK VINA RESULT:      -8.6      6.606     11.927
REMARK  Name = 
REMARK  8 active torsions:
REMARK  status: ('A' for Active; 'I' for Inactive)
REMARK    1  A    between atoms: C_1  and  N_2
REMARK    2  A    between atoms: C_3  and  C_5
REMARK    3  A    between atoms: C_7  and  C_8
REMARK    4  A    between atoms: C_10  and  C_11
REMARK    5  A    between atoms: C_15  and  C_16
REMARK    6  A    between atoms: C_20  and  N_21
REMARK    7  A    between atoms: N_24  and  C_25
REMARK    8  A    between atoms: C_25  and  C_26
REMARK                            x       y       z     vdW  Elec       q    Type
REMARK                         _______ _______ _______ _____ _____    ______ ____
ROOT
ATOM      1  C   UNL     1       2.979   6.515  18.372  0.00  0.00    +0.000 A 
ATOM      2  C   UNL     1       2.298   6.447  19.672  0.00  0.00    +0.000 A 
ATOM      3  C   UNL     1       1.613   7.504  20.135  0.00  0.00    +0.000 A 
ATOM      4  N   UNL     1       1.580   8.692  19.399  0.00  0.00    +0.000 N 
ATOM      5  C   UNL     1       0.982   9.921  19.671  0.00  0.00    +0.000 A 
ATOM      6  C   UNL     1       1.248  10.675  18.538  0.00  0.00    +0.000 A 
ATOM      7  N   UNL     1       2.000   9.989  17.625  0.00  0.00    +0.000 NA
ATOM      8  C   UNL     1       2.208   8.808  18.162  0.00  0.00    +0.000 A 
ATOM      9  C   UNL     1       2.918   7.674  17.667  0.00  0.00    +0.000 A 
ENDROOT
BRANCH   1  15
ATOM     10  C   UNL     1       5.418   4.442  16.628  0.00  0.00    +0.000 A 
ATOM     11  C   UNL     1       5.076   3.157  16.994  0.00  0.00    +0.000 A 
ATOM     12  C   UNL     1       3.933   3.035  17.744  0.00  0.00    +0.000 A 
ATOM     13  C   UNL     1       3.424   1.696  18.181  0.00  0.00    +0.000 C 
ATOM     14  N   UNL     1       3.226   4.108  18.146  0.00  0.00    +0.000 NA
ATOM     15  C   UNL     1       3.659   5.329  17.776  0.00  0.00    +0.000 A 
ATOM     16  N   UNL     1       4.725   5.550  16.986  0.00  0.00    +0.000 NA
BRANCH  10  19
ATOM     17  C   UNL     1       7.568   5.122  13.579  0.00  0.00    +0.000 C 
ATOM     18  N   UNL     1       6.462   4.859  14.464  0.00  0.00    +0.000 N 
ATOM     19  C   UNL     1       6.659   4.646  15.811  0.00  0.00    +0.000 C 
ATOM     20  O   UNL     1       7.766   4.613  16.335  0.00  0.00    +0.000 OA
ATOM     21  H   UNL     1       5.513   4.825  14.109  0.00  0.00    +0.000 HD
ENDBRANCH  10  19
ENDBRANCH   1  15
BRANCH   5  22
ATOM     22  C   UNL     1       0.259  10.289  20.898  0.00  0.00    +0.000 A 
ATOM     23  C   UNL     1       0.315   9.452  22.020  0.00  0.00    +0.000 A 
ATOM     24  C   UNL     1      -0.407   9.755  23.166  0.00  0.00    +0.000 A 
ATOM     25  C   UNL     1      -1.150  10.929  23.228  0.00  0.00    +0.000 A 
ATOM     26  C   UNL     1      -1.182  11.822  22.157  0.00  0.00    +0.000 A 
ATOM     27  C   UNL     1      -0.476  11.486  20.984  0.00  0.00    +0.000 A 
BRANCH  26  28
ATOM     28  N   UNL     1      -1.908  13.041  22.197  0.00  0.00    +0.000 N 
ATOM     29  C   UNL     1      -1.592  14.141  22.961  0.00  0.00    +0.000 C 
ATOM     30  O   UNL     1      -0.617  14.278  23.694  0.00  0.00    +0.000 OA
ATOM     31  N   UNL     1      -2.537  15.138  22.899  0.00  0.00    +0.000 N 
ATOM     32  H   UNL     1      -2.741  13.097  21.636  0.00  0.00    +0.000 HD
ATOM     33  H   UNL     1      -3.022  15.250  22.019  0.00  0.00    +0.000 HD
BRANCH  31  34
ATOM     34  C   UNL     1      -2.303  16.353  23.693  0.00  0.00    +0.000 C 
BRANCH  34  35
ATOM     35  C   UNL     1      -2.933  16.380  25.096  0.00  0.00    +0.000 C 
ATOM     36  F   UNL     1      -3.201  17.642  25.507  0.00  0.00    +0.000 F 
ATOM     37  F   UNL     1      -4.118  15.717  25.078  0.00  0.00    +0.000 F 
ATOM     38  F   UNL     1      -2.158  15.787  26.025  0.00  0.00    +0.000 F 
ENDBRANCH  34  35
ENDBRANCH  31  34
ENDBRANCH  26  28
ENDBRANCH   5  22
TORSDOF 6
ENDMDL
MODEL 9
REMARK VINA RESULT:      -8.5      1.355      1.617
REMARK  Name = 
REMARK  8 active torsions:
REMARK  status: ('A' for Active; 'I' for Inactive)
REMARK    1  A    between atoms: C_1  and  N_2
REMARK    2  A    between atoms: C_3  and  C_5
REMARK    3  A    between atoms: C_7  and  C_8
REMARK    4  A    between atoms: C_10  and  C_11
REMARK    5  A    between atoms: C_15  and  C_16
REMARK    6  A    between atoms: C_20  and  N_21
REMARK    7  A    between atoms: N_24  and  C_25
REMARK    8  A    between atoms: C_25  and  C_26
REMARK                            x       y       z     vdW  Elec       q    Type
REMARK                         _______ _______ _______ _____ _____    ______ ____
ROOT
ATOM      1  C   UNL     1       1.340   9.155  18.898  0.00  0.00    +0.000 A 
ATOM      2  C   UNL     1       2.414   9.059  17.900  0.00  0.00    +0.000 A 
ATOM      3  C   UNL     1       3.228   7.992  17.879  0.00  0.00    +0.000 A 
ATOM      4  N   UNL     1       3.083   6.985  18.838  0.00  0.00    +0.000 N 
ATOM      5  C   UNL     1       3.809   5.815  19.053  0.00  0.00    +0.000 A 
ATOM      6  C   UNL     1       3.147   5.206  20.108  0.00  0.00    +0.000 A 
ATOM      7  N   UNL     1       2.097   5.955  20.563  0.00  0.00    +0.000 NA
ATOM      8  C   UNL     1       2.082   7.029  19.804  0.00  0.00    +0.000 A 
ATOM      9  C   UNL     1       1.208   8.156  19.808  0.00  0.00    +0.000 A 
ENDROOT
BRANCH   1  15
ATOM     10  C   UNL     1      -1.695  11.076  18.276  0.00  0.00    +0.000 A 
ATOM     11  C   UNL     1      -1.588  12.144  19.143  0.00  0.00    +0.000 A 
ATOM     12  C   UNL     1      -0.408  12.234  19.838  0.00  0.00    +0.000 A 
ATOM     13  C   UNL     1      -0.142  13.362  20.787  0.00  0.00    +0.000 C 
ATOM     14  N   UNL     1       0.559  11.303  19.724  0.00  0.00    +0.000 NA
ATOM     15  C   UNL     1       0.350  10.271  18.884  0.00  0.00    +0.000 A 
ATOM     16  N   UNL     1      -0.740  10.130  18.108  0.00  0.00    +0.000 NA
BRANCH  10  19
ATOM     17  C   UNL     1      -5.115  11.930  16.880  0.00  0.00    +0.000 C 
ATOM     18  N   UNL     1      -3.882  11.936  17.625  0.00  0.00    +0.000 N 
ATOM     19  C   UNL     1      -2.961  10.919  17.490  0.00  0.00    +0.000 C 
ATOM     20  O   UNL     1      -3.141   9.933  16.784  0.00  0.00    +0.000 OA
ATOM     21  H   UNL     1      -3.668  12.691  18.265  0.00  0.00    +0.000 HD
ENDBRANCH  10  19
ENDBRANCH   1  15
BRANCH   5  22
ATOM     22  C   UNL     1       5.004   5.379  18.314  0.00  0.00    +0.000 A 
ATOM     23  C   UNL     1       6.279   5.704  18.794  0.00  0.00    +0.000 A 
ATOM     24  C   UNL     1       7.415   5.351  18.080  0.00  0.00    +0.000 A 
ATOM     25  C   UNL     1       7.296   4.616  16.905  0.00  0.00    +0.000 A 
ATOM     26  C   UNL     1       6.049   4.216  16.426  0.00  0.00    +0.000 A 
ATOM     27  C   UNL     1       4.899   4.614  17.138  0.00  0.00    +0.000 A 
BRANCH  26  28
ATOM     28  N   UNL     1       5.894   3.443  15.245  0.00  0.00    +0.000 N 
ATOM     29  C   UNL     1       6.459   3.720  14.022  0.00  0.00    +0.000 C 
ATOM     30  O   UNL     1       7.223   4.642  13.751  0.00  0.00    +0.000 OA
ATOM     31  N   UNL     1       6.042   2.872  13.023  0.00  0.00    +0.000 N 
ATOM     32  H   UNL     1       5.298   2.634  15.302  0.00  0.00    +0.000 HD
ATOM     33  H   UNL     1       5.846   1.916  13.291  0.00  0.00    +0.000 HD
BRANCH  31  34
ATOM     34  C   UNL     1       6.576   3.092  11.672  0.00  0.00    +0.000 C 
BRANCH  34  35
ATOM     35  C   UNL     1       7.170   1.860  10.968  0.00  0.00    +0.000 C 
ATOM     36  F   UNL     1       6.212   1.081  10.412  0.00  0.00    +0.000 F 
ATOM     37  F   UNL     1       7.982   2.259   9.955  0.00  0.00    +0.000 F 
ATOM     38  F   UNL     1       7.910   1.095  11.795  0.00  0.00    +0.000 F 
ENDBRANCH  34  35
ENDBRANCH  31  34
ENDBRANCH  26  28
ENDBRANCH   5  22
TORSDOF 6
ENDMDL
