MODEL 1
REMARK VINA RESULT:      -9.3      0.000      0.000
REMARK  Name = 
REMARK  4 active torsions:
REMARK  status: ('A' for Active; 'I' for Inactive)
REMARK    1  A    between atoms: C_2  and  C_3
REMARK    2  A    between atoms: C_11  and  C_12
REMARK    3  A    between atoms: C_12  and  N_13
REMARK    4  A    between atoms: N_13  and  C_14
REMARK                            x       y       z     vdW  Elec       q    Type
REMARK                         _______ _______ _______ _____ _____    ______ ____
ROOT
ATOM      1  C   UNL     1       6.076   4.631  19.219  0.00  0.00    +0.000 C 
ENDROOT
BRANCH   1   6
ATOM      2  C   UNL     1       5.811   4.461  16.651  0.00  0.00    +0.000 A 
ATOM      3  C   UNL     1       6.526   5.133  15.647  0.00  0.00    +0.000 A 
ATOM      4  N   UNL     1       7.386   6.025  16.163  0.00  0.00    +0.000 NA
ATOM      5  O   UNL     1       7.252   5.918  17.539  0.00  0.00    +0.000 OA
ATOM      6  C   UNL     1       6.317   4.968  17.815  0.00  0.00    +0.000 A 
BRANCH   3   7
ATOM      7  C   UNL     1       6.410   4.933  14.183  0.00  0.00    +0.000 C 
ATOM      8  C   UNL     1       5.913   3.517  13.855  0.00  0.00    +0.000 C 
ATOM      9  C   UNL     1       5.703   3.369  12.355  0.00  0.00    +0.000 C 
ATOM     10  C   UNL     1       6.969   3.707  11.567  0.00  0.00    +0.000 C 
ATOM     11  C   UNL     1       7.569   5.058  11.956  0.00  0.00    +0.000 C 
ATOM     12  C   UNL     1       7.746   5.188  13.464  0.00  0.00    +0.000 C 
ENDBRANCH   3   7
ENDBRANCH   1   6
BRANCH   1  13
ATOM     13  N   UNL     1       5.317   3.397  19.300  0.00  0.00    +0.000 NA
ATOM     14  H   UNL     1       5.746   2.727  19.933  0.00  0.00    +0.000 HD
BRANCH  13  15
ATOM     15  C   UNL     1       3.865   3.426  19.435  0.00  0.00    +0.000 C 
ATOM     16  C   UNL     1       3.330   4.876  19.427  0.00  0.00    +0.000 C 
ATOM     17  C   UNL     1       1.813   4.901  19.240  0.00  0.00    +0.000 C 
ATOM     18  C   UNL     1       1.150   4.175  20.423  0.00  0.00    +0.000 C 
ATOM     19  C   UNL     1       1.656   2.725  20.499  0.00  0.00    +0.000 C 
ATOM     20  C   UNL     1       1.231   2.027  19.191  0.00  0.00    +0.000 C 
ATOM     21  C   UNL     1       1.900   2.712  18.000  0.00  0.00    +0.000 C 
ATOM     22  C   UNL     1       1.493   4.190  17.919  0.00  0.00    +0.000 C 
ATOM     23  C   UNL     1       3.411   2.626  18.184  0.00  0.00    +0.000 C 
ATOM     24  C   UNL     1       3.209   2.712  20.656  0.00  0.00    +0.000 C 
ENDBRANCH  13  15
ENDBRANCH   1  13
TORSDOF 4
ENDMDL
MODEL 2
REMARK VINA RESULT:      -8.9      1.004      1.989
REMARK  Name = 
REMARK  4 active torsions:
REMARK  status: ('A' for Active; 'I' for Inactive)
REMARK    1  A    between atoms: C_2  and  C_3
REMARK    2  A    between atoms: C_11  and  C_12
REMARK    3  A    between atoms: C_12  and  N_13
REMARK    4  A    between atoms: N_13  and  C_14
REMARK                            x       y       z     vdW  Elec       q    Type
REMARK                         _______ _______ _______ _____ _____    ______ ____
ROOT
ATOM      1  C   UNL     1       5.535   5.668  19.241  0.00  0.00    +0.000 C 
ENDROOT
BRANCH   1   6
ATOM      2  C   UNL     1       5.534   5.568  16.656  0.00  0.00    +0.000 A 
ATOM      3  C   UNL     1       6.502   5.023  15.796  0.00  0.00    +0.000 A 
ATOM      4  N   UNL     1       7.578   4.592  16.472  0.00  0.00    +0.000 NA
ATOM      5  O   UNL     1       7.300   4.834  17.809  0.00  0.00    +0.000 OA
ATOM      6  C   UNL     1       6.068   5.404  17.903  0.00  0.00    +0.000 A 
BRANCH   3   7
ATOM      7  C   UNL     1       6.418   4.898  14.322  0.00  0.00    +0.000 C 
ATOM      8  C   UNL     1       5.908   3.508  13.914  0.00  0.00    +0.000 C 
ATOM      9  C   UNL     1       5.731   3.437  12.404  0.00  0.00    +0.000 C 
ATOM     10  C   UNL     1       7.020   3.793  11.662  0.00  0.00    +0.000 C 
ATOM     11  C   UNL     1       7.630   5.114  12.131  0.00  0.00    +0.000 C 
ATOM     12  C   UNL     1       7.774   5.166  13.647  0.00  0.00    +0.000 C 
ENDBRANCH   3   7
ENDBRANCH   1   6
BRANCH   1  13
ATOM     13  N   UNL     1       4.093   5.816  19.170  0.00  0.00    +0.000 NA
ATOM     14  H   UNL     1       3.809   6.414  18.398  0.00  0.00    +0.000 HD
BRANCH  13  15
ATOM     15  C   UNL     1       3.220   4.657  19.317  0.00  0.00    +0.000 C 
ATOM     16  C   UNL     1       4.033   3.378  19.622  0.00  0.00    +0.000 C 
ATOM     17  C   UNL     1       3.119   2.246  20.093  0.00  0.00    +0.000 C 
ATOM     18  C   UNL     1       2.129   1.901  18.968  0.00  0.00    +0.000 C 
ATOM     19  C   UNL     1       1.298   3.142  18.603  0.00  0.00    +0.000 C 
ATOM     20  C   UNL     1       0.497   3.539  19.860  0.00  0.00    +0.000 C 
ATOM     21  C   UNL     1       1.461   3.916  20.986  0.00  0.00    +0.000 C 
ATOM     22  C   UNL     1       2.375   2.734  21.341  0.00  0.00    +0.000 C 
ATOM     23  C   UNL     1       2.322   5.080  20.511  0.00  0.00    +0.000 C 
ATOM     24  C   UNL     1       2.243   4.301  18.156  0.00  0.00    +0.000 C 
ENDBRANCH  13  15
ENDBRANCH   1  13
TORSDOF 4
ENDMDL
MODEL 3
REMARK VINA RESULT:      -8.9      0.977      1.616
REMARK  Name = 
REMARK  4 active torsions:
REMARK  status: ('A' for Active; 'I' for Inactive)
REMARK    1  A    between atoms: C_2  and  C_3
REMARK    2  A    between atoms: C_11  and  C_12
REMARK    3  A    between atoms: C_12  and  N_13
REMARK    4  A    between atoms: N_13  and  C_14
REMARK                            x       y       z     vdW  Elec       q    Type
REMARK                         _______ _______ _______ _____ _____    ______ ____
ROOT
ATOM      1  C   UNL     1       5.329   5.639  19.177  0.00  0.00    +0.000 C 
ENDROOT
BRANCH   1   6
ATOM      2  C   UNL     1       5.390   5.535  16.592  0.00  0.00    +0.000 A 
ATOM      3  C   UNL     1       6.402   5.038  15.756  0.00  0.00    +0.000 A 
ATOM      4  N   UNL     1       7.483   4.661  16.456  0.00  0.00    +0.000 NA
ATOM      5  O   UNL     1       7.165   4.890  17.786  0.00  0.00    +0.000 OA
ATOM      6  C   UNL     1       5.904   5.399  17.852  0.00  0.00    +0.000 A 
BRANCH   3   7
ATOM      7  C   UNL     1       6.356   4.906  14.280  0.00  0.00    +0.000 C 
ATOM      8  C   UNL     1       5.876   3.509  13.864  0.00  0.00    +0.000 C 
ATOM      9  C   UNL     1       5.738   3.430  12.350  0.00  0.00    +0.000 C 
ATOM     10  C   UNL     1       7.040   3.802  11.640  0.00  0.00    +0.000 C 
ATOM     11  C   UNL     1       7.621   5.132  12.119  0.00  0.00    +0.000 C 
ATOM     12  C   UNL     1       7.725   5.191  13.638  0.00  0.00    +0.000 C 
ENDBRANCH   3   7
ENDBRANCH   1   6
BRANCH   1  13
ATOM     13  N   UNL     1       3.896   5.838  19.058  0.00  0.00    +0.000 NA
ATOM     14  H   UNL     1       3.650   6.324  18.199  0.00  0.00    +0.000 HD
BRANCH  13  15
ATOM     15  C   UNL     1       2.968   4.755  19.362  0.00  0.00    +0.000 C 
ATOM     16  C   UNL     1       2.279   4.232  18.081  0.00  0.00    +0.000 C 
ATOM     17  C   UNL     1       1.566   2.905  18.345  0.00  0.00    +0.000 C 
ATOM     18  C   UNL     1       0.467   3.127  19.398  0.00  0.00    +0.000 C 
ATOM     19  C   UNL     1       1.088   3.668  20.696  0.00  0.00    +0.000 C 
ATOM     20  C   UNL     1       2.060   2.591  21.219  0.00  0.00    +0.000 C 
ATOM     21  C   UNL     1       3.180   2.372  20.202  0.00  0.00    +0.000 C 
ATOM     22  C   UNL     1       2.612   1.905  18.854  0.00  0.00    +0.000 C 
ATOM     23  C   UNL     1       3.908   3.696  19.997  0.00  0.00    +0.000 C 
ATOM     24  C   UNL     1       1.840   5.005  20.408  0.00  0.00    +0.000 C 
ENDBRANCH  13  15
ENDBRANCH   1  13
TORSDOF 4
ENDMDL
MODEL 4
REMARK VINA RESULT:      -8.8      0.219      1.571
REMARK  Name = 
REMARK  4 active torsions:
REMARK  status: ('A' for Active; 'I' for Inactive)
REMARK    1  A    between atoms: C_2  and  C_3
REMARK    2  A    between atoms: C_11  and  C_12
REMARK    3  A    between atoms: C_12  and  N_13
REMARK    4  A    between atoms: N_13  and  C_14
REMARK                            x       y       z     vdW  Elec       q    Type
REMARK                         _______ _______ _______ _____ _____    ______ ____
ROOT
ATOM      1  C   UNL     1       6.192   4.713  19.219  0.00  0.00    +0.000 C 
ENDROOT
BRANCH   1   6
ATOM      2  C   UNL     1       5.911   4.519  16.655  0.00  0.00    +0.000 A 
ATOM      3  C   UNL     1       6.608   5.195  15.640  0.00  0.00    +0.000 A 
ATOM      4  N   UNL     1       7.456   6.105  16.143  0.00  0.00    +0.000 NA
ATOM      5  O   UNL     1       7.334   6.007  17.520  0.00  0.00    +0.000 OA
ATOM      6  C   UNL     1       6.417   5.043  17.811  0.00  0.00    +0.000 A 
BRANCH   3   7
ATOM      7  C   UNL     1       6.484   4.982  14.178  0.00  0.00    +0.000 C 
ATOM      8  C   UNL     1       5.980   3.566  13.867  0.00  0.00    +0.000 C 
ATOM      9  C   UNL     1       5.762   3.404  12.369  0.00  0.00    +0.000 C 
ATOM     10  C   UNL     1       7.027   3.729  11.572  0.00  0.00    +0.000 C 
ATOM     11  C   UNL     1       7.634   5.081  11.945  0.00  0.00    +0.000 C 
ATOM     12  C   UNL     1       7.819   5.223  13.451  0.00  0.00    +0.000 C 
ENDBRANCH   3   7
ENDBRANCH   1   6
BRANCH   1  13
ATOM     13  N   UNL     1       5.390   3.507  19.315  0.00  0.00    +0.000 NA
ATOM     14  H   UNL     1       5.706   2.899  20.066  0.00  0.00    +0.000 HD
BRANCH  13  15
ATOM     15  C   UNL     1       3.936   3.575  19.237  0.00  0.00    +0.000 C 
ATOM     16  C   UNL     1       3.406   2.843  17.982  0.00  0.00    +0.000 C 
ATOM     17  C   UNL     1       1.894   2.632  18.067  0.00  0.00    +0.000 C 
ATOM     18  C   UNL     1       1.199   4.002  18.125  0.00  0.00    +0.000 C 
ATOM     19  C   UNL     1       1.698   4.792  19.347  0.00  0.00    +0.000 C 
ATOM     20  C   UNL     1       1.303   3.986  20.601  0.00  0.00    +0.000 C 
ATOM     21  C   UNL     1       2.006   2.628  20.582  0.00  0.00    +0.000 C 
ATOM     22  C   UNL     1       1.606   1.823  19.337  0.00  0.00    +0.000 C 
ATOM     23  C   UNL     1       3.511   2.867  20.552  0.00  0.00    +0.000 C 
ATOM     24  C   UNL     1       3.246   4.973  19.266  0.00  0.00    +0.000 C 
ENDBRANCH  13  15
ENDBRANCH   1  13
TORSDOF 4
ENDMDL
MODEL 5
REMARK VINA RESULT:      -8.8      0.987      1.314
REMARK  Name = 
REMARK  4 active torsions:
REMARK  status: ('A' for Active; 'I' for Inactive)
REMARK    1  A    between atoms: C_2  and  C_3
REMARK    2  A    between atoms: C_11  and  C_12
REMARK    3  A    between atoms: C_12  and  N_13
REMARK    4  A    between atoms: N_13  and  C_14
REMARK                            x       y       z     vdW  Elec       q    Type
REMARK                         _______ _______ _______ _____ _____    ______ ____
ROOT
ATOM      1  C   UNL     1       5.705   5.523  19.241  0.00  0.00    +0.000 C 
ENDROOT
BRANCH   1   6
ATOM      2  C   UNL     1       5.651   5.478  16.655  0.00  0.00    +0.000 A 
ATOM      3  C   UNL     1       6.606   4.962  15.764  0.00  0.00    +0.000 A 
ATOM      4  N   UNL     1       7.700   4.527  16.408  0.00  0.00    +0.000 NA
ATOM      5  O   UNL     1       7.448   4.738  17.755  0.00  0.00    +0.000 OA
ATOM      6  C   UNL     1       6.212   5.293  17.887  0.00  0.00    +0.000 A 
BRANCH   3   7
ATOM      7  C   UNL     1       6.491   4.867  14.289  0.00  0.00    +0.000 C 
ATOM      8  C   UNL     1       6.039   3.464  13.859  0.00  0.00    +0.000 C 
ATOM      9  C   UNL     1       5.829   3.420  12.352  0.00  0.00    +0.000 C 
ATOM     10  C   UNL     1       7.081   3.856  11.590  0.00  0.00    +0.000 C 
ATOM     11  C   UNL     1       7.638   5.193  12.076  0.00  0.00    +0.000 C 
ATOM     12  C   UNL     1       7.816   5.217  13.590  0.00  0.00    +0.000 C 
ENDBRANCH   3   7
ENDBRANCH   1   6
BRANCH   1  13
ATOM     13  N   UNL     1       4.260   5.653  19.204  0.00  0.00    +0.000 NA
ATOM     14  H   UNL     1       3.941   6.115  18.356  0.00  0.00    +0.000 HD
BRANCH  13  15
ATOM     15  C   UNL     1       3.404   4.533  19.575  0.00  0.00    +0.000 C 
ATOM     16  C   UNL     1       2.584   4.851  20.846  0.00  0.00    +0.000 C 
ATOM     17  C   UNL     1       1.465   3.827  21.047  0.00  0.00    +0.000 C 
ATOM     18  C   UNL     1       2.088   2.435  21.242  0.00  0.00    +0.000 C 
ATOM     19  C   UNL     1       2.937   2.065  20.014  0.00  0.00    +0.000 C 
ATOM     20  C   UNL     1       1.985   2.014  18.802  0.00  0.00    +0.000 C 
ATOM     21  C   UNL     1       1.374   3.395  18.569  0.00  0.00    +0.000 C 
ATOM     22  C   UNL     1       0.576   3.855  19.798  0.00  0.00    +0.000 C 
ATOM     23  C   UNL     1       2.506   4.385  18.318  0.00  0.00    +0.000 C 
ATOM     24  C   UNL     1       4.055   3.134  19.799  0.00  0.00    +0.000 C 
ENDBRANCH  13  15
ENDBRANCH   1  13
TORSDOF 4
ENDMDL
MODEL 6
REMARK VINA RESULT:      -8.7      0.390      1.122
REMARK  Name = 
REMARK  4 active torsions:
REMARK  status: ('A' for Active; 'I' for Inactive)
REMARK    1  A    between atoms: C_2  and  C_3
REMARK    2  A    between atoms: C_11  and  C_12
REMARK    3  A    between atoms: C_12  and  N_13
REMARK    4  A    between atoms: N_13  and  C_14
REMARK                            x       y       z     vdW  Elec       q    Type
REMARK                         _______ _______ _______ _____ _____    ______ ____
ROOT
ATOM      1  C   UNL     1       5.995   4.810  19.320  0.00  0.00    +0.000 C 
ENDROOT
BRANCH   1   6
ATOM      2  C   UNL     1       6.304   4.211  16.823  0.00  0.00    +0.000 A 
ATOM      3  C   UNL     1       6.972   4.934  15.821  0.00  0.00    +0.000 A 
ATOM      4  N   UNL     1       7.409   6.119  16.273  0.00  0.00    +0.000 NA
ATOM      5  O   UNL     1       7.044   6.166  17.610  0.00  0.00    +0.000 OA
ATOM      6  C   UNL     1       6.398   5.011  17.927  0.00  0.00    +0.000 A 
BRANCH   3   7
ATOM      7  C   UNL     1       7.211   4.508  14.422  0.00  0.00    +0.000 C 
ATOM      8  C   UNL     1       7.666   5.690  13.554  0.00  0.00    +0.000 C 
ATOM      9  C   UNL     1       8.005   5.210  12.149  0.00  0.00    +0.000 C 
ATOM     10  C   UNL     1       6.833   4.468  11.504  0.00  0.00    +0.000 C 
ATOM     11  C   UNL     1       6.267   3.361  12.393  0.00  0.00    +0.000 C 
ATOM     12  C   UNL     1       5.960   3.864  13.799  0.00  0.00    +0.000 C 
ENDBRANCH   3   7
ENDBRANCH   1   6
BRANCH   1  13
ATOM     13  N   UNL     1       5.275   3.556  19.444  0.00  0.00    +0.000 NA
ATOM     14  H   UNL     1       5.692   2.946  20.143  0.00  0.00    +0.000 HD
BRANCH  13  15
ATOM     15  C   UNL     1       3.818   3.538  19.499  0.00  0.00    +0.000 C 
ATOM     16  C   UNL     1       3.242   4.972  19.540  0.00  0.00    +0.000 C 
ATOM     17  C   UNL     1       1.736   4.966  19.271  0.00  0.00    +0.000 C 
ATOM     18  C   UNL     1       1.033   4.158  20.374  0.00  0.00    +0.000 C 
ATOM     19  C   UNL     1       1.577   2.720  20.398  0.00  0.00    +0.000 C 
ATOM     20  C   UNL     1       1.244   2.085  19.033  0.00  0.00    +0.000 C 
ATOM     21  C   UNL     1       1.956   2.853  17.920  0.00  0.00    +0.000 C 
ATOM     22  C   UNL     1       1.510   4.322  17.897  0.00  0.00    +0.000 C 
ATOM     23  C   UNL     1       3.457   2.798  18.183  0.00  0.00    +0.000 C 
ATOM     24  C   UNL     1       3.119   2.740  20.641  0.00  0.00    +0.000 C 
ENDBRANCH  13  15
ENDBRANCH   1  13
TORSDOF 4
ENDMDL
MODEL 7
REMARK VINA RESULT:      -8.6      1.080      2.002
REMARK  Name = 
REMARK  4 active torsions:
REMARK  status: ('A' for Active; 'I' for Inactive)
REMARK    1  A    between atoms: C_2  and  C_3
REMARK    2  A    between atoms: C_11  and  C_12
REMARK    3  A    between atoms: C_12  and  N_13
REMARK    4  A    between atoms: N_13  and  C_14
REMARK                            x       y       z     vdW  Elec       q    Type
REMARK                         _______ _______ _______ _____ _____    ______ ____
ROOT
ATOM      1  C   UNL     1       5.339   5.642  19.255  0.00  0.00    +0.000 C 
ENDROOT
BRANCH   1   6
ATOM      2  C   UNL     1       5.812   5.213  16.748  0.00  0.00    +0.000 A 
ATOM      3  C   UNL     1       6.928   4.601  16.156  0.00  0.00    +0.000 A 
ATOM      4  N   UNL     1       7.869   4.300  17.064  0.00  0.00    +0.000 NA
ATOM      5  O   UNL     1       7.348   4.700  18.285  0.00  0.00    +0.000 OA
ATOM      6  C   UNL     1       6.111   5.230  18.082  0.00  0.00    +0.000 A 
BRANCH   3   7
ATOM      7  C   UNL     1       7.116   4.286  14.719  0.00  0.00    +0.000 C 
ATOM      8  C   UNL     1       7.635   5.508  13.948  0.00  0.00    +0.000 C 
ATOM      9  C   UNL     1       7.918   5.133  12.500  0.00  0.00    +0.000 C 
ATOM     10  C   UNL     1       6.690   4.529  11.818  0.00  0.00    +0.000 C 
ATOM     11  C   UNL     1       6.066   3.387  12.620  0.00  0.00    +0.000 C 
ATOM     12  C   UNL     1       5.815   3.783  14.070  0.00  0.00    +0.000 C 
ENDBRANCH   3   7
ENDBRANCH   1   6
BRANCH   1  13
ATOM     13  N   UNL     1       3.937   5.755  18.900  0.00  0.00    +0.000 NA
ATOM     14  H   UNL     1       3.810   6.092  17.949  0.00  0.00    +0.000 HD
BRANCH  13  15
ATOM     15  C   UNL     1       2.998   4.690  19.235  0.00  0.00    +0.000 C 
ATOM     16  C   UNL     1       2.346   4.098  17.965  0.00  0.00    +0.000 C 
ATOM     17  C   UNL     1       1.623   2.788  18.278  0.00  0.00    +0.000 C 
ATOM     18  C   UNL     1       0.495   3.066  19.285  0.00  0.00    +0.000 C 
ATOM     19  C   UNL     1       1.078   3.676  20.571  0.00  0.00    +0.000 C 
ATOM     20  C   UNL     1       2.034   2.628  21.178  0.00  0.00    +0.000 C 
ATOM     21  C   UNL     1       3.182   2.356  20.207  0.00  0.00    +0.000 C 
ATOM     22  C   UNL     1       2.652   1.817  18.870  0.00  0.00    +0.000 C 
ATOM     23  C   UNL     1       3.918   3.666  19.953  0.00  0.00    +0.000 C 
ATOM     24  C   UNL     1       1.841   4.995  20.234  0.00  0.00    +0.000 C 
ENDBRANCH  13  15
ENDBRANCH   1  13
TORSDOF 4
ENDMDL
MODEL 8
REMARK VINA RESULT:      -8.6      1.041      1.389
REMARK  Name = 
REMARK  4 active torsions:
REMARK  status: ('A' for Active; 'I' for Inactive)
REMARK    1  A    between atoms: C_2  and  C_3
REMARK    2  A    between atoms: C_11  and  C_12
REMARK    3  A    between atoms: C_12  and  N_13
REMARK    4  A    between atoms: N_13  and  C_14
REMARK                            x       y       z     vdW  Elec       q    Type
REMARK                         _______ _______ _______ _____ _____    ______ ____
ROOT
ATOM      1  C   UNL     1       6.311   4.987  17.950  0.00  0.00    +0.000 C 
ENDROOT
BRANCH   1   6
ATOM      2  C   UNL     1       5.786   4.260  15.523  0.00  0.00    +0.000 A 
ATOM      3  C   UNL     1       6.487   4.559  14.344  0.00  0.00    +0.000 A 
ATOM      4  N   UNL     1       7.503   5.405  14.573  0.00  0.00    +0.000 NA
ATOM      5  O   UNL     1       7.486   5.647  15.938  0.00  0.00    +0.000 OA
ATOM      6  C   UNL     1       6.463   4.943  16.495  0.00  0.00    +0.000 A 
BRANCH   3   7
ATOM      7  C   UNL     1       6.208   4.041  12.984  0.00  0.00    +0.000 C 
ATOM      8  C   UNL     1       4.758   3.551  12.865  0.00  0.00    +0.000 C 
ATOM      9  C   UNL     1       4.464   3.121  11.435  0.00  0.00    +0.000 C 
ATOM     10  C   UNL     1       5.449   2.057  10.948  0.00  0.00    +0.000 C 
ATOM     11  C   UNL     1       6.909   2.453  11.165  0.00  0.00    +0.000 C 
ATOM     12  C   UNL     1       7.168   2.902  12.599  0.00  0.00    +0.000 C 
ENDBRANCH   3   7
ENDBRANCH   1   6
BRANCH   1  13
ATOM     13  N   UNL     1       5.735   3.740  18.418  0.00  0.00    +0.000 NA
ATOM     14  H   UNL     1       6.349   3.257  19.069  0.00  0.00    +0.000 HD
BRANCH  13  15
ATOM     15  C   UNL     1       4.338   3.676  18.832  0.00  0.00    +0.000 C 
ATOM     16  C   UNL     1       3.717   5.089  18.926  0.00  0.00    +0.000 C 
ATOM     17  C   UNL     1       2.194   5.013  19.038  0.00  0.00    +0.000 C 
ATOM     18  C   UNL     1       1.823   4.263  20.328  0.00  0.00    +0.000 C 
ATOM     19  C   UNL     1       2.429   2.850  20.306  0.00  0.00    +0.000 C 
ATOM     20  C   UNL     1       1.805   2.106  19.108  0.00  0.00    +0.000 C 
ATOM     21  C   UNL     1       2.184   2.816  17.808  0.00  0.00    +0.000 C 
ATOM     22  C   UNL     1       1.671   4.264  17.806  0.00  0.00    +0.000 C 
ATOM     23  C   UNL     1       3.704   2.831  17.694  0.00  0.00    +0.000 C 
ATOM     24  C   UNL     1       3.981   2.940  20.158  0.00  0.00    +0.000 C 
ENDBRANCH  13  15
ENDBRANCH   1  13
TORSDOF 4
ENDMDL
MODEL 9
REMARK VINA RESULT:      -8.5      0.571      1.722
REMARK  Name = 
REMARK  4 active torsions:
REMARK  status: ('A' for Active; 'I' for Inactive)
REMARK    1  A    between atoms: C_2  and  C_3
REMARK    2  A    between atoms: C_11  and  C_12
REMARK    3  A    between atoms: C_12  and  N_13
REMARK    4  A    between atoms: N_13  and  C_14
REMARK                            x       y       z     vdW  Elec       q    Type
REMARK                         _______ _______ _______ _____ _____    ______ ____
ROOT
ATOM      1  C   UNL     1       6.076   4.899  19.146  0.00  0.00    +0.000 C 
ENDROOT
BRANCH   1   6
ATOM      2  C   UNL     1       6.071   4.427  16.602  0.00  0.00    +0.000 A 
ATOM      3  C   UNL     1       6.027   5.342  15.538  0.00  0.00    +0.000 A 
ATOM      4  N   UNL     1       5.886   6.603  15.975  0.00  0.00    +0.000 NA
ATOM      5  O   UNL     1       5.863   6.518  17.358  0.00  0.00    +0.000 OA
ATOM      6  C   UNL     1       5.990   5.212  17.719  0.00  0.00    +0.000 A 
BRANCH   3   7
ATOM      7  C   UNL     1       6.125   5.035  14.092  0.00  0.00    +0.000 C 
ATOM      8  C   UNL     1       5.575   3.634  13.785  0.00  0.00    +0.000 C 
ATOM      9  C   UNL     1       5.590   3.382  12.284  0.00  0.00    +0.000 C 
ATOM     10  C   UNL     1       6.987   3.569  11.690  0.00  0.00    +0.000 C 
ATOM     11  C   UNL     1       7.624   4.904  12.078  0.00  0.00    +0.000 C 
ATOM     12  C   UNL     1       7.573   5.141  13.582  0.00  0.00    +0.000 C 
ENDBRANCH   3   7
ENDBRANCH   1   6
BRANCH   1  13
ATOM     13  N   UNL     1       5.462   3.608  19.399  0.00  0.00    +0.000 NA
ATOM     14  H   UNL     1       5.854   3.155  20.221  0.00  0.00    +0.000 HD
BRANCH  13  15
ATOM     15  C   UNL     1       4.015   3.446  19.321  0.00  0.00    +0.000 C 
ATOM     16  C   UNL     1       3.493   2.524  20.447  0.00  0.00    +0.000 C 
ATOM     17  C   UNL     1       1.971   2.613  20.567  0.00  0.00    +0.000 C 
ATOM     18  C   UNL     1       1.336   2.134  19.252  0.00  0.00    +0.000 C 
ATOM     19  C   UNL     1       1.831   3.002  18.083  0.00  0.00    +0.000 C 
ATOM     20  C   UNL     1       1.363   4.445  18.359  0.00  0.00    +0.000 C 
ATOM     21  C   UNL     1       2.005   4.957  19.649  0.00  0.00    +0.000 C 
ATOM     22  C   UNL     1       1.608   4.077  20.844  0.00  0.00    +0.000 C 
ATOM     23  C   UNL     1       3.519   4.909  19.483  0.00  0.00    +0.000 C 
ATOM     24  C   UNL     1       3.388   2.930  17.991  0.00  0.00    +0.000 C 
ENDBRANCH  13  15
ENDBRANCH   1  13
TORSDOF 4
ENDMDL
