MODEL 1
REMARK VINA RESULT:      -7.9      0.000      0.000
REMARK  Name = 
REMARK  4 active torsions:
REMARK  status: ('A' for Active; 'I' for Inactive)
REMARK    1  A    between atoms: C_1  and  C_2
REMARK    2  A    between atoms: N_4  and  C_5
REMARK    3  A    between atoms: C_10  and  C_11
REMARK    4  A    between atoms: N_13  and  C_14
REMARK                            x       y       z     vdW  Elec       q    Type
REMARK                         _______ _______ _______ _____ _____    ______ ____
ROOT
ATOM      1  C   UNL     1       4.719   4.392  16.224  0.00  0.00    +0.000 C 
ATOM      2  O   UNL     1       4.185   5.455  16.529  0.00  0.00    +0.000 OA
ATOM      3  N   UNL     1       4.622   3.237  16.974  0.00  0.00    +0.000 N 
ATOM      4  H   UNL     1       5.342   2.531  16.849  0.00  0.00    +0.000 HD
ENDROOT
BRANCH   3   5
ATOM      5  C   UNL     1       3.761   3.041  18.081  0.00  0.00    +0.000 A 
ATOM      6  C   UNL     1       2.602   2.260  17.994  0.00  0.00    +0.000 A 
ATOM      7  C   UNL     1       1.776   2.085  19.107  0.00  0.00    +0.000 A 
ATOM      8  C   UNL     1       2.108   2.685  20.321  0.00  0.00    +0.000 A 
ATOM      9 CL   UNL     1       1.081   2.476  21.685  0.00  0.00    +0.000 Cl
ATOM     10  C   UNL     1       3.265   3.451  20.436  0.00  0.00    +0.000 A 
ATOM     11  C   UNL     1       4.093   3.615  19.319  0.00  0.00    +0.000 A 
ATOM     12 CL   UNL     1       5.516   4.586  19.498  0.00  0.00    +0.000 Cl
ENDBRANCH   3   5
BRANCH   1  18
ATOM     13  C   UNL     1       6.729   5.193  14.933  0.00  0.00    +0.000 A 
ATOM     14  C   UNL     1       7.522   5.164  13.778  0.00  0.00    +0.000 A 
ATOM     15  C   UNL     1       7.187   4.341  12.704  0.00  0.00    +0.000 A 
ATOM     16  C   UNL     1       6.045   3.548  12.768  0.00  0.00    +0.000 A 
ATOM     17  C   UNL     1       5.251   3.553  13.919  0.00  0.00    +0.000 A 
ATOM     18  C   UNL     1       5.602   4.350  15.018  0.00  0.00    +0.000 A 
BRANCH  13  22
ATOM     19  C   UNL     1       7.870   6.685  18.189  0.00  0.00    +0.000 C 
ATOM     20  C   UNL     1       7.689   5.597  17.169  0.00  0.00    +0.000 C 
ATOM     21  O   UNL     1       8.073   4.447  17.380  0.00  0.00    +0.000 OA
ATOM     22  N   UNL     1       7.086   6.047  16.010  0.00  0.00    +0.000 N 
ATOM     23  H   UNL     1       7.334   7.001  15.744  0.00  0.00    +0.000 HD
ENDBRANCH  13  22
ENDBRANCH   1  18
TORSDOF 3
ENDMDL
MODEL 2
REMARK VINA RESULT:      -7.4      1.597      1.821
REMARK  Name = 
REMARK  4 active torsions:
REMARK  status: ('A' for Active; 'I' for Inactive)
REMARK    1  A    between atoms: C_1  and  C_2
REMARK    2  A    between atoms: N_4  and  C_5
REMARK    3  A    between atoms: C_10  and  C_11
REMARK    4  A    between atoms: N_13  and  C_14
REMARK                            x       y       z     vdW  Elec       q    Type
REMARK                         _______ _______ _______ _____ _____    ______ ____
ROOT
ATOM      1  C   UNL     1       4.815   4.440  17.257  0.00  0.00    +0.000 C 
ATOM      2  O   UNL     1       4.609   5.509  17.825  0.00  0.00    +0.000 OA
ATOM      3  N   UNL     1       4.448   3.212  17.769  0.00  0.00    +0.000 N 
ATOM      4  H   UNL     1       4.939   2.392  17.426  0.00  0.00    +0.000 HD
ENDROOT
BRANCH   3   5
ATOM      5  C   UNL     1       3.628   3.002  18.905  0.00  0.00    +0.000 A 
ATOM      6  C   UNL     1       4.137   2.496  20.106  0.00  0.00    +0.000 A 
ATOM      7  C   UNL     1       3.301   2.303  21.209  0.00  0.00    +0.000 A 
ATOM      8  C   UNL     1       1.946   2.624  21.120  0.00  0.00    +0.000 A 
ATOM      9 CL   UNL     1       0.919   2.374  22.477  0.00  0.00    +0.000 Cl
ATOM     10  C   UNL     1       1.422   3.145  19.940  0.00  0.00    +0.000 A 
ATOM     11  C   UNL     1       2.268   3.343  18.842  0.00  0.00    +0.000 A 
ATOM     12 CL   UNL     1       1.575   3.982  17.388  0.00  0.00    +0.000 Cl
ENDBRANCH   3   5
BRANCH   1  18
ATOM     13  C   UNL     1       6.865   5.031  15.916  0.00  0.00    +0.000 A 
ATOM     14  C   UNL     1       7.554   5.055  14.696  0.00  0.00    +0.000 A 
ATOM     15  C   UNL     1       6.972   4.537  13.540  0.00  0.00    +0.000 A 
ATOM     16  C   UNL     1       5.687   4.004  13.588  0.00  0.00    +0.000 A 
ATOM     17  C   UNL     1       4.992   3.958  14.800  0.00  0.00    +0.000 A 
ATOM     18  C   UNL     1       5.585   4.442  15.975  0.00  0.00    +0.000 A 
BRANCH  13  22
ATOM     19  C   UNL     1       8.260   7.239  18.619  0.00  0.00    +0.000 C 
ATOM     20  C   UNL     1       7.460   6.917  17.389  0.00  0.00    +0.000 C 
ATOM     21  O   UNL     1       6.854   7.792  16.770  0.00  0.00    +0.000 OA
ATOM     22  N   UNL     1       7.475   5.572  17.079  0.00  0.00    +0.000 N 
ATOM     23  H   UNL     1       7.497   4.948  17.887  0.00  0.00    +0.000 HD
ENDBRANCH  13  22
ENDBRANCH   1  18
TORSDOF 3
ENDMDL
MODEL 3
REMARK VINA RESULT:      -7.4      5.061      6.446
REMARK  Name = 
REMARK  4 active torsions:
REMARK  status: ('A' for Active; 'I' for Inactive)
REMARK    1  A    between atoms: C_1  and  C_2
REMARK    2  A    between atoms: N_4  and  C_5
REMARK    3  A    between atoms: C_10  and  C_11
REMARK    4  A    between atoms: N_13  and  C_14
REMARK                            x       y       z     vdW  Elec       q    Type
REMARK                         _______ _______ _______ _____ _____    ______ ____
ROOT
ATOM      1  C   UNL     1       2.554   6.784  19.301  0.00  0.00    +0.000 C 
ATOM      2  O   UNL     1       2.294   6.035  20.240  0.00  0.00    +0.000 OA
ATOM      3  N   UNL     1       2.021   8.049  19.154  0.00  0.00    +0.000 N 
ATOM      4  H   UNL     1       2.009   8.450  18.222  0.00  0.00    +0.000 HD
ENDROOT
BRANCH   3   5
ATOM      5  C   UNL     1       1.262   8.744  20.128  0.00  0.00    +0.000 A 
ATOM      6  C   UNL     1       1.455   8.549  21.501  0.00  0.00    +0.000 A 
ATOM      7  C   UNL     1       0.690   9.253  22.434  0.00  0.00    +0.000 A 
ATOM      8  C   UNL     1      -0.271  10.166  22.000  0.00  0.00    +0.000 A 
ATOM      9 CL   UNL     1      -1.218  11.022  23.154  0.00  0.00    +0.000 Cl
ATOM     10  C   UNL     1      -0.467  10.389  20.640  0.00  0.00    +0.000 A 
ATOM     11  C   UNL     1       0.308   9.686  19.710  0.00  0.00    +0.000 A 
ATOM     12 CL   UNL     1       0.025   9.981  18.027  0.00  0.00    +0.000 Cl
ENDBRANCH   3   5
BRANCH   1  18
ATOM     13  C   UNL     1       3.525   4.897  17.944  0.00  0.00    +0.000 A 
ATOM     14  C   UNL     1       4.380   4.444  16.930  0.00  0.00    +0.000 A 
ATOM     15  C   UNL     1       5.159   5.341  16.202  0.00  0.00    +0.000 A 
ATOM     16  C   UNL     1       5.103   6.702  16.489  0.00  0.00    +0.000 A 
ATOM     17  C   UNL     1       4.244   7.173  17.487  0.00  0.00    +0.000 A 
ATOM     18  C   UNL     1       3.430   6.280  18.199  0.00  0.00    +0.000 A 
BRANCH  13  22
ATOM     19  C   UNL     1       0.827   2.672  19.323  0.00  0.00    +0.000 C 
ATOM     20  C   UNL     1       1.463   3.599  18.326  0.00  0.00    +0.000 C 
ATOM     21  O   UNL     1       0.869   3.952  17.307  0.00  0.00    +0.000 OA
ATOM     22  N   UNL     1       2.748   3.963  18.678  0.00  0.00    +0.000 N 
ATOM     23  H   UNL     1       3.281   3.233  19.154  0.00  0.00    +0.000 HD
ENDBRANCH  13  22
ENDBRANCH   1  18
TORSDOF 3
ENDMDL
MODEL 4
REMARK VINA RESULT:      -7.3      3.771      4.898
REMARK  Name = 
REMARK  4 active torsions:
REMARK  status: ('A' for Active; 'I' for Inactive)
REMARK    1  A    between atoms: C_1  and  C_2
REMARK    2  A    between atoms: N_4  and  C_5
REMARK    3  A    between atoms: C_10  and  C_11
REMARK    4  A    between atoms: N_13  and  C_14
REMARK                            x       y       z     vdW  Elec       q    Type
REMARK                         _______ _______ _______ _____ _____    ______ ____
ROOT
ATOM      1  C   UNL     1       4.014   5.954  18.324  0.00  0.00    +0.000 C 
ATOM      2  O   UNL     1       4.483   5.633  19.413  0.00  0.00    +0.000 OA
ATOM      3  N   UNL     1       2.849   6.677  18.169  0.00  0.00    +0.000 N 
ATOM      4  H   UNL     1       2.364   6.605  17.280  0.00  0.00    +0.000 HD
ENDROOT
BRANCH   3   5
ATOM      5  C   UNL     1       2.128   7.314  19.209  0.00  0.00    +0.000 A 
ATOM      6  C   UNL     1       1.813   6.659  20.406  0.00  0.00    +0.000 A 
ATOM      7  C   UNL     1       1.102   7.318  21.412  0.00  0.00    +0.000 A 
ATOM      8  C   UNL     1       0.705   8.643  21.232  0.00  0.00    +0.000 A 
ATOM      9 CL   UNL     1      -0.181   9.445  22.469  0.00  0.00    +0.000 Cl
ATOM     10  C   UNL     1       1.023   9.319  20.056  0.00  0.00    +0.000 A 
ATOM     11  C   UNL     1       1.743   8.655  19.056  0.00  0.00    +0.000 A 
ATOM     12 CL   UNL     1       2.107   9.526  17.603  0.00  0.00    +0.000 Cl
ENDBRANCH   3   5
BRANCH   1  18
ATOM     13  C   UNL     1       4.872   4.085  16.867  0.00  0.00    +0.000 A 
ATOM     14  C   UNL     1       5.537   3.653  15.712  0.00  0.00    +0.000 A 
ATOM     15  C   UNL     1       6.043   4.572  14.795  0.00  0.00    +0.000 A 
ATOM     16  C   UNL     1       5.905   5.937  15.032  0.00  0.00    +0.000 A 
ATOM     17  C   UNL     1       5.231   6.386  16.172  0.00  0.00    +0.000 A 
ATOM     18  C   UNL     1       4.686   5.467  17.080  0.00  0.00    +0.000 A 
BRANCH  13  22
ATOM     19  C   UNL     1       2.767   1.768  18.948  0.00  0.00    +0.000 C 
ATOM     20  C   UNL     1       3.058   2.707  17.811  0.00  0.00    +0.000 C 
ATOM     21  O   UNL     1       2.189   3.019  16.997  0.00  0.00    +0.000 OA
ATOM     22  N   UNL     1       4.373   3.130  17.791  0.00  0.00    +0.000 N 
ATOM     23  H   UNL     1       5.050   2.431  18.102  0.00  0.00    +0.000 HD
ENDBRANCH  13  22
ENDBRANCH   1  18
TORSDOF 3
ENDMDL
MODEL 5
REMARK VINA RESULT:      -7.3      1.259      1.475
REMARK  Name = 
REMARK  4 active torsions:
REMARK  status: ('A' for Active; 'I' for Inactive)
REMARK    1  A    between atoms: C_1  and  C_2
REMARK    2  A    between atoms: N_4  and  C_5
REMARK    3  A    between atoms: C_10  and  C_11
REMARK    4  A    between atoms: N_13  and  C_14
REMARK                            x       y       z     vdW  Elec       q    Type
REMARK                         _______ _______ _______ _____ _____    ______ ____
ROOT
ATOM      1  C   UNL     1       5.556   3.835  16.538  0.00  0.00    +0.000 C 
ATOM      2  O   UNL     1       6.301   3.836  17.514  0.00  0.00    +0.000 OA
ATOM      3  N   UNL     1       4.215   3.517  16.592  0.00  0.00    +0.000 N 
ATOM      4  H   UNL     1       3.767   3.212  15.733  0.00  0.00    +0.000 HD
ENDROOT
BRANCH   3   5
ATOM      5  C   UNL     1       3.457   3.332  17.774  0.00  0.00    +0.000 A 
ATOM      6  C   UNL     1       3.207   2.063  18.308  0.00  0.00    +0.000 A 
ATOM      7  C   UNL     1       2.457   1.917  19.478  0.00  0.00    +0.000 A 
ATOM      8  C   UNL     1       1.956   3.044  20.129  0.00  0.00    +0.000 A 
ATOM      9 CL   UNL     1       1.023   2.858  21.562  0.00  0.00    +0.000 Cl
ATOM     10  C   UNL     1       2.207   4.318  19.626  0.00  0.00    +0.000 A 
ATOM     11  C   UNL     1       2.966   4.457  18.458  0.00  0.00    +0.000 A 
ATOM     12 CL   UNL     1       3.246   6.057  17.856  0.00  0.00    +0.000 Cl
ENDBRANCH   3   5
BRANCH   1  18
ATOM     13  C   UNL     1       7.118   5.110  15.026  0.00  0.00    +0.000 A 
ATOM     14  C   UNL     1       7.623   5.374  13.746  0.00  0.00    +0.000 A 
ATOM     15  C   UNL     1       7.143   4.684  12.634  0.00  0.00    +0.000 A 
ATOM     16  C   UNL     1       6.140   3.732  12.788  0.00  0.00    +0.000 A 
ATOM     17  C   UNL     1       5.635   3.445  14.059  0.00  0.00    +0.000 A 
ATOM     18  C   UNL     1       6.139   4.108  15.188  0.00  0.00    +0.000 A 
BRANCH  13  22
ATOM     19  C   UNL     1       7.760   7.568  17.796  0.00  0.00    +0.000 C 
ATOM     20  C   UNL     1       6.975   6.927  16.687  0.00  0.00    +0.000 C 
ATOM     21  O   UNL     1       5.871   7.356  16.350  0.00  0.00    +0.000 OA
ATOM     22  N   UNL     1       7.616   5.832  16.142  0.00  0.00    +0.000 N 
ATOM     23  H   UNL     1       8.158   5.280  16.809  0.00  0.00    +0.000 HD
ENDBRANCH  13  22
ENDBRANCH   1  18
TORSDOF 3
ENDMDL
MODEL 6
REMARK VINA RESULT:      -7.2      4.673      6.626
REMARK  Name = 
REMARK  4 active torsions:
REMARK  status: ('A' for Active; 'I' for Inactive)
REMARK    1  A    between atoms: C_1  and  C_2
REMARK    2  A    between atoms: N_4  and  C_5
REMARK    3  A    between atoms: C_10  and  C_11
REMARK    4  A    between atoms: N_13  and  C_14
REMARK                            x       y       z     vdW  Elec       q    Type
REMARK                         _______ _______ _______ _____ _____    ______ ____
ROOT
ATOM      1  C   UNL     1       2.349   5.935  19.276  0.00  0.00    +0.000 C 
ATOM      2  O   UNL     1       2.234   5.950  18.053  0.00  0.00    +0.000 OA
ATOM      3  N   UNL     1       2.245   7.056  20.074  0.00  0.00    +0.000 N 
ATOM      4  H   UNL     1       2.678   7.024  20.992  0.00  0.00    +0.000 HD
ENDROOT
BRANCH   3   5
ATOM      5  C   UNL     1       1.810   8.335  19.649  0.00  0.00    +0.000 A 
ATOM      6  C   UNL     1       2.138   8.853  18.391  0.00  0.00    +0.000 A 
ATOM      7  C   UNL     1       1.690  10.118  18.002  0.00  0.00    +0.000 A 
ATOM      8  C   UNL     1       0.902  10.874  18.869  0.00  0.00    +0.000 A 
ATOM      9 CL   UNL     1       0.364  12.436  18.391  0.00  0.00    +0.000 Cl
ATOM     10  C   UNL     1       0.549  10.372  20.119  0.00  0.00    +0.000 A 
ATOM     11  C   UNL     1       0.994   9.100  20.499  0.00  0.00    +0.000 A 
ATOM     12 CL   UNL     1       0.544   8.516  22.066  0.00  0.00    +0.000 Cl
ENDBRANCH   3   5
BRANCH   1  18
ATOM     13  C   UNL     1       3.816   3.899  19.500  0.00  0.00    +0.000 A 
ATOM     14  C   UNL     1       4.115   2.678  20.121  0.00  0.00    +0.000 A 
ATOM     15  C   UNL     1       3.311   2.187  21.148  0.00  0.00    +0.000 A 
ATOM     16  C   UNL     1       2.189   2.903  21.555  0.00  0.00    +0.000 A 
ATOM     17  C   UNL     1       1.885   4.129  20.957  0.00  0.00    +0.000 A 
ATOM     18  C   UNL     1       2.710   4.649  19.949  0.00  0.00    +0.000 A 
BRANCH  13  22
ATOM     19  C   UNL     1       6.484   5.501  17.391  0.00  0.00    +0.000 C 
ATOM     20  C   UNL     1       5.854   5.008  18.663  0.00  0.00    +0.000 C 
ATOM     21  O   UNL     1       6.405   5.157  19.753  0.00  0.00    +0.000 OA
ATOM     22  N   UNL     1       4.645   4.375  18.450  0.00  0.00    +0.000 N 
ATOM     23  H   UNL     1       4.590   3.845  17.579  0.00  0.00    +0.000 HD
ENDBRANCH  13  22
ENDBRANCH   1  18
TORSDOF 3
ENDMDL
MODEL 7
REMARK VINA RESULT:      -7.1      3.624      4.752
REMARK  Name = 
REMARK  4 active torsions:
REMARK  status: ('A' for Active; 'I' for Inactive)
REMARK    1  A    between atoms: C_1  and  C_2
REMARK    2  A    between atoms: N_4  and  C_5
REMARK    3  A    between atoms: C_10  and  C_11
REMARK    4  A    between atoms: N_13  and  C_14
REMARK                            x       y       z     vdW  Elec       q    Type
REMARK                         _______ _______ _______ _____ _____    ______ ____
ROOT
ATOM      1  C   UNL     1       4.273   6.055  18.019  0.00  0.00    +0.000 C 
ATOM      2  O   UNL     1       4.920   6.119  19.062  0.00  0.00    +0.000 OA
ATOM      3  N   UNL     1       2.996   6.557  17.873  0.00  0.00    +0.000 N 
ATOM      4  H   UNL     1       2.421   6.175  17.127  0.00  0.00    +0.000 HD
ENDROOT
BRANCH   3   5
ATOM      5  C   UNL     1       2.316   7.373  18.810  0.00  0.00    +0.000 A 
ATOM      6  C   UNL     1       1.981   8.703  18.534  0.00  0.00    +0.000 A 
ATOM      7  C   UNL     1       1.307   9.479  19.480  0.00  0.00    +0.000 A 
ATOM      8  C   UNL     1       0.956   8.927  20.711  0.00  0.00    +0.000 A 
ATOM      9 CL   UNL     1       0.138   9.890  21.878  0.00  0.00    +0.000 Cl
ATOM     10  C   UNL     1       1.265   7.600  21.001  0.00  0.00    +0.000 A 
ATOM     11  C   UNL     1       1.932   6.826  20.045  0.00  0.00    +0.000 A 
ATOM     12 CL   UNL     1       2.309   5.183  20.448  0.00  0.00    +0.000 Cl
ENDBRANCH   3   5
BRANCH   1  18
ATOM     13  C   UNL     1       4.929   3.908  16.874  0.00  0.00    +0.000 A 
ATOM     14  C   UNL     1       5.510   3.238  15.790  0.00  0.00    +0.000 A 
ATOM     15  C   UNL     1       6.045   3.949  14.717  0.00  0.00    +0.000 A 
ATOM     16  C   UNL     1       6.018   5.341  14.724  0.00  0.00    +0.000 A 
ATOM     17  C   UNL     1       5.428   6.025  15.791  0.00  0.00    +0.000 A 
ATOM     18  C   UNL     1       4.854   5.316  16.856  0.00  0.00    +0.000 A 
BRANCH  13  22
ATOM     19  C   UNL     1       2.766   2.004  19.289  0.00  0.00    +0.000 C 
ATOM     20  C   UNL     1       3.108   2.672  17.987  0.00  0.00    +0.000 C 
ATOM     21  O   UNL     1       2.296   2.731  17.063  0.00  0.00    +0.000 OA
ATOM     22  N   UNL     1       4.399   3.162  17.960  0.00  0.00    +0.000 N 
ATOM     23  H   UNL     1       5.079   2.599  18.472  0.00  0.00    +0.000 HD
ENDBRANCH  13  22
ENDBRANCH   1  18
TORSDOF 3
ENDMDL
MODEL 8
REMARK VINA RESULT:      -7.1      4.562      5.899
REMARK  Name = 
REMARK  4 active torsions:
REMARK  status: ('A' for Active; 'I' for Inactive)
REMARK    1  A    between atoms: C_1  and  C_2
REMARK    2  A    between atoms: N_4  and  C_5
REMARK    3  A    between atoms: C_10  and  C_11
REMARK    4  A    between atoms: N_13  and  C_14
REMARK                            x       y       z     vdW  Elec       q    Type
REMARK                         _______ _______ _______ _____ _____    ______ ____
ROOT
ATOM      1  C   UNL     1       3.035   6.273  18.186  0.00  0.00    +0.000 C 
ATOM      2  O   UNL     1       3.818   6.827  17.420  0.00  0.00    +0.000 OA
ATOM      3  N   UNL     1       2.149   6.946  19.003  0.00  0.00    +0.000 N 
ATOM      4  H   UNL     1       1.798   6.458  19.822  0.00  0.00    +0.000 HD
ENDROOT
BRANCH   3   5
ATOM      5  C   UNL     1       1.871   8.334  18.954  0.00  0.00    +0.000 A 
ATOM      6  C   UNL     1       2.206   9.122  17.846  0.00  0.00    +0.000 A 
ATOM      7  C   UNL     1       1.915  10.488  17.830  0.00  0.00    +0.000 A 
ATOM      8  C   UNL     1       1.277  11.077  18.921  0.00  0.00    +0.000 A 
ATOM      9 CL   UNL     1       0.932  12.762  18.901  0.00  0.00    +0.000 Cl
ATOM     10  C   UNL     1       0.919  10.309  20.027  0.00  0.00    +0.000 A 
ATOM     11  C   UNL     1       1.207   8.939  20.033  0.00  0.00    +0.000 A 
ATOM     12 CL   UNL     1       0.757   8.021  21.431  0.00  0.00    +0.000 Cl
ENDBRANCH   3   5
BRANCH   1  18
ATOM     13  C   UNL     1       4.260   4.156  18.792  0.00  0.00    +0.000 A 
ATOM     14  C   UNL     1       4.303   2.758  18.874  0.00  0.00    +0.000 A 
ATOM     15  C   UNL     1       3.218   1.987  18.459  0.00  0.00    +0.000 A 
ATOM     16  C   UNL     1       2.084   2.605  17.943  0.00  0.00    +0.000 A 
ATOM     17  C   UNL     1       2.018   4.000  17.869  0.00  0.00    +0.000 A 
ATOM     18  C   UNL     1       3.090   4.784  18.319  0.00  0.00    +0.000 A 
BRANCH  13  22
ATOM     19  C   UNL     1       7.611   5.812  19.191  0.00  0.00    +0.000 C 
ATOM     20  C   UNL     1       6.546   5.028  18.479  0.00  0.00    +0.000 C 
ATOM     21  O   UNL     1       6.731   4.569  17.351  0.00  0.00    +0.000 OA
ATOM     22  N   UNL     1       5.381   4.920  19.213  0.00  0.00    +0.000 N 
ATOM     23  H   UNL     1       5.160   5.738  19.783  0.00  0.00    +0.000 HD
ENDBRANCH  13  22
ENDBRANCH   1  18
TORSDOF 3
ENDMDL
MODEL 9
REMARK VINA RESULT:      -7.1      5.301      6.784
REMARK  Name = 
REMARK  4 active torsions:
REMARK  status: ('A' for Active; 'I' for Inactive)
REMARK    1  A    between atoms: C_1  and  C_2
REMARK    2  A    between atoms: N_4  and  C_5
REMARK    3  A    between atoms: C_10  and  C_11
REMARK    4  A    between atoms: N_13  and  C_14
REMARK                            x       y       z     vdW  Elec       q    Type
REMARK                         _______ _______ _______ _____ _____    ______ ____
ROOT
ATOM      1  C   UNL     1       2.100   6.707  19.823  0.00  0.00    +0.000 C 
ATOM      2  O   UNL     1       1.401   5.989  20.533  0.00  0.00    +0.000 OA
ATOM      3  N   UNL     1       1.960   8.077  19.736  0.00  0.00    +0.000 N 
ATOM      4  H   UNL     1       2.322   8.537  18.907  0.00  0.00    +0.000 HD
ENDROOT
BRANCH   3   5
ATOM      5  C   UNL     1       1.141   8.878  20.570  0.00  0.00    +0.000 A 
ATOM      6  C   UNL     1       1.199   8.801  21.966  0.00  0.00    +0.000 A 
ATOM      7  C   UNL     1       0.379   9.608  22.759  0.00  0.00    +0.000 A 
ATOM      8  C   UNL     1      -0.504  10.506  22.159  0.00  0.00    +0.000 A 
ATOM      9 CL   UNL     1      -1.520  11.488  23.139  0.00  0.00    +0.000 Cl
ATOM     10  C   UNL     1      -0.566  10.611  20.772  0.00  0.00    +0.000 A 
ATOM     11  C   UNL     1       0.265   9.806  19.984  0.00  0.00    +0.000 A 
ATOM     12 CL   UNL     1       0.149   9.958  18.262  0.00  0.00    +0.000 Cl
ENDBRANCH   3   5
BRANCH   1  18
ATOM     13  C   UNL     1       3.631   4.793  19.237  0.00  0.00    +0.000 A 
ATOM     14  C   UNL     1       4.605   4.228  18.403  0.00  0.00    +0.000 A 
ATOM     15  C   UNL     1       5.088   4.925  17.298  0.00  0.00    +0.000 A 
ATOM     16  C   UNL     1       4.613   6.204  17.022  0.00  0.00    +0.000 A 
ATOM     17  C   UNL     1       3.630   6.777  17.834  0.00  0.00    +0.000 A 
ATOM     18  C   UNL     1       3.112   6.067  18.926  0.00  0.00    +0.000 A 
BRANCH  13  22
ATOM     19  C   UNL     1       1.877   2.466  21.611  0.00  0.00    +0.000 C 
ATOM     20  C   UNL     1       2.297   2.994  20.268  0.00  0.00    +0.000 C 
ATOM     21  O   UNL     1       1.904   2.476  19.223  0.00  0.00    +0.000 OA
ATOM     22  N   UNL     1       3.161   4.067  20.363  0.00  0.00    +0.000 N 
ATOM     23  H   UNL     1       3.806   4.026  21.153  0.00  0.00    +0.000 HD
ENDBRANCH  13  22
ENDBRANCH   1  18
TORSDOF 3
ENDMDL
