MODEL 1
REMARK VINA RESULT:      -8.0      0.000      0.000
REMARK  Name = 
REMARK  5 active torsions:
REMARK  status: ('A' for Active; 'I' for Inactive)
REMARK    1  A    between atoms: C_1  and  C_2
REMARK    2  A    between atoms: C_7  and  N_8
REMARK    3  A    between atoms: N_12  and  C_13
REMARK    4  A    between atoms: C_13  and  C_14
REMARK    5  A    between atoms: C_26  and  C_27
REMARK                            x       y       z     vdW  Elec       q    Type
REMARK                         _______ _______ _______ _____ _____    ______ ____
ROOT
ATOM      1  C   UNL     1       2.872  17.285  17.127  0.00  0.00    +0.000 C 
ATOM      2  C   UNL     1       2.541  16.161  18.073  0.00  0.00    +0.000 A 
ATOM      3  C   UNL     1       1.191  15.837  18.268  0.00  0.00    +0.000 A 
ATOM      4  C   UNL     1       0.808  14.814  19.137  0.00  0.00    +0.000 A 
ATOM      5  C   UNL     1       1.787  14.106  19.838  0.00  0.00    +0.000 A 
ATOM      6  C   UNL     1       3.140  14.447  19.695  0.00  0.00    +0.000 A 
ATOM      7  C   UNL     1       3.522  15.473  18.818  0.00  0.00    +0.000 A 
ATOM      8  O   UNL     1       1.503  13.038  20.650  0.00  0.00    +0.000 OA
ATOM      9  C   UNL     1       0.113  12.845  20.984  0.00  0.00    +0.000 C 
ATOM     10  C   UNL     1      -0.826  13.091  19.799  0.00  0.00    +0.000 C 
ATOM     11  C   UNL     1      -0.649  14.518  19.324  0.00  0.00    +0.000 C 
ENDROOT
BRANCH   7  12
ATOM     12  N   UNL     1       4.886  15.864  18.708  0.00  0.00    +0.000 N 
ATOM     13  C   UNL     1       5.767  15.133  17.805  0.00  0.00    +0.000 C 
ATOM     14  C   UNL     1       7.146  14.950  18.395  0.00  0.00    +0.000 A 
ATOM     15  C   UNL     1       8.028  14.045  17.948  0.00  0.00    +0.000 A 
ATOM     16  N   UNL     1       9.287  13.906  18.531  0.00  0.00    +0.000 N 
ATOM     17  C   UNL     1       9.698  14.694  19.597  0.00  0.00    +0.000 A 
ATOM     18  O   UNL     1      10.795  14.599  20.137  0.00  0.00    +0.000 OA
ATOM     19  C   UNL     1       8.734  15.713  20.069  0.00  0.00    +0.000 A 
ATOM     20  C   UNL     1       7.547  15.844  19.464  0.00  0.00    +0.000 A 
ATOM     21  N   UNL     1       6.682  16.831  19.826  0.00  0.00    +0.000 N 
ATOM     22  C   UNL     1       5.361  16.909  19.478  0.00  0.00    +0.000 C 
ATOM     23  O   UNL     1       4.675  17.817  19.945  0.00  0.00    +0.000 OA
ATOM     24  H   UNL     1       6.953  17.518  20.518  0.00  0.00    +0.000 HD
BRANCH  16  25
ATOM     25  C   UNL     1      10.273  12.981  17.955  0.00  0.00    +0.000 C 
BRANCH  25  26
ATOM     26  C   UNL     1      10.217  11.552  18.502  0.00  0.00    +0.000 C 
ATOM     27  F   UNL     1       9.211  11.359  19.384  0.00  0.00    +0.000 F 
ATOM     28  F   UNL     1      10.079  10.642  17.512  0.00  0.00    +0.000 F 
ATOM     29  F   UNL     1      11.372  11.258  19.152  0.00  0.00    +0.000 F 
ENDBRANCH  25  26
ENDBRANCH  16  25
ENDBRANCH   7  12
BRANCH   9  30
ATOM     30  C   UNL     1      -0.052  11.437  21.530  0.00  0.00    +0.000 A 
ATOM     31  N   UNL     1       0.529  10.398  20.861  0.00  0.00    +0.000 NA
ATOM     32  C   UNL     1       0.420   9.164  21.401  0.00  0.00    +0.000 A 
ATOM     33  C   UNL     1      -0.245   8.899  22.586  0.00  0.00    +0.000 A 
ATOM     34  C   UNL     1      -0.847   9.961  23.253  0.00  0.00    +0.000 A 
ATOM     35  C   UNL     1      -0.748  11.240  22.718  0.00  0.00    +0.000 A 
ATOM     36  F   UNL     1      -1.334  12.264  23.355  0.00  0.00    +0.000 F 
ENDBRANCH   9  30
TORSDOF 4
ENDMDL
MODEL 2
REMARK VINA RESULT:      -8.0      0.953      1.155
REMARK  Name = 
REMARK  5 active torsions:
REMARK  status: ('A' for Active; 'I' for Inactive)
REMARK    1  A    between atoms: C_1  and  C_2
REMARK    2  A    between atoms: C_7  and  N_8
REMARK    3  A    between atoms: N_12  and  C_13
REMARK    4  A    between atoms: C_13  and  C_14
REMARK    5  A    between atoms: C_26  and  C_27
REMARK                            x       y       z     vdW  Elec       q    Type
REMARK                         _______ _______ _______ _____ _____    ______ ____
ROOT
ATOM      1  C   UNL     1       2.625  17.314  17.276  0.00  0.00    +0.000 C 
ATOM      2  C   UNL     1       2.346  16.164  18.207  0.00  0.00    +0.000 A 
ATOM      3  C   UNL     1       1.008  15.825  18.456  0.00  0.00    +0.000 A 
ATOM      4  C   UNL     1       0.673  14.777  19.315  0.00  0.00    +0.000 A 
ATOM      5  C   UNL     1       1.688  14.058  19.949  0.00  0.00    +0.000 A 
ATOM      6  C   UNL     1       3.031  14.412  19.753  0.00  0.00    +0.000 A 
ATOM      7  C   UNL     1       3.365  15.463  18.886  0.00  0.00    +0.000 A 
ATOM      8  O   UNL     1       1.449  12.967  20.746  0.00  0.00    +0.000 OA
ATOM      9  C   UNL     1       0.077  12.756  21.140  0.00  0.00    +0.000 C 
ATOM     10  C   UNL     1      -0.918  13.025  20.008  0.00  0.00    +0.000 C 
ATOM     11  C   UNL     1      -0.772  14.466  19.563  0.00  0.00    +0.000 C 
ENDROOT
BRANCH   7  12
ATOM     12  N   UNL     1       4.720  15.867  18.722  0.00  0.00    +0.000 N 
ATOM     13  C   UNL     1       5.575  15.132  17.798  0.00  0.00    +0.000 C 
ATOM     14  C   UNL     1       6.976  14.971  18.340  0.00  0.00    +0.000 A 
ATOM     15  C   UNL     1       7.852  14.069  17.873  0.00  0.00    +0.000 A 
ATOM     16  N   UNL     1       9.132  13.951  18.413  0.00  0.00    +0.000 N 
ATOM     17  C   UNL     1       9.573  14.757  19.453  0.00  0.00    +0.000 A 
ATOM     18  O   UNL     1      10.689  14.681  19.955  0.00  0.00    +0.000 OA
ATOM     19  C   UNL     1       8.615  15.773  19.946  0.00  0.00    +0.000 A 
ATOM     20  C   UNL     1       7.406  15.883  19.382  0.00  0.00    +0.000 A 
ATOM     21  N   UNL     1       6.544  16.867  19.762  0.00  0.00    +0.000 N 
ATOM     22  C   UNL     1       5.210  16.927  19.461  0.00  0.00    +0.000 C 
ATOM     23  O   UNL     1       4.532  17.834  19.940  0.00  0.00    +0.000 OA
ATOM     24  H   UNL     1       6.832  17.565  20.435  0.00  0.00    +0.000 HD
BRANCH  16  25
ATOM     25  C   UNL     1      10.106  13.029  17.814  0.00  0.00    +0.000 C 
BRANCH  25  26
ATOM     26  C   UNL     1      10.145  11.631  18.439  0.00  0.00    +0.000 C 
ATOM     27  F   UNL     1       9.683  11.604  19.709  0.00  0.00    +0.000 F 
ATOM     28  F   UNL     1       9.428  10.741  17.719  0.00  0.00    +0.000 F 
ATOM     29  F   UNL     1      11.423  11.175  18.476  0.00  0.00    +0.000 F 
ENDBRANCH  25  26
ENDBRANCH  16  25
ENDBRANCH   7  12
BRANCH   9  30
ATOM     30  C   UNL     1      -0.053  11.332  21.656  0.00  0.00    +0.000 A 
ATOM     31  N   UNL     1      -0.492  11.133  22.934  0.00  0.00    +0.000 NA
ATOM     32  C   UNL     1      -0.659   9.857  23.348  0.00  0.00    +0.000 A 
ATOM     33  C   UNL     1      -0.409   8.751  22.552  0.00  0.00    +0.000 A 
ATOM     34  C   UNL     1       0.052   8.964  21.259  0.00  0.00    +0.000 A 
ATOM     35  C   UNL     1       0.231  10.267  20.808  0.00  0.00    +0.000 A 
ATOM     36  F   UNL     1       0.683  10.475  19.564  0.00  0.00    +0.000 F 
ENDBRANCH   9  30
TORSDOF 4
ENDMDL
MODEL 3
REMARK VINA RESULT:      -7.9      5.270      9.337
REMARK  Name = 
REMARK  5 active torsions:
REMARK  status: ('A' for Active; 'I' for Inactive)
REMARK    1  A    between atoms: C_1  and  C_2
REMARK    2  A    between atoms: C_7  and  N_8
REMARK    3  A    between atoms: N_12  and  C_13
REMARK    4  A    between atoms: C_13  and  C_14
REMARK    5  A    between atoms: C_26  and  C_27
REMARK                            x       y       z     vdW  Elec       q    Type
REMARK                         _______ _______ _______ _____ _____    ______ ____
ROOT
ATOM      1  C   UNL     1       0.060   9.167  20.929  0.00  0.00    +0.000 C 
ATOM      2  C   UNL     1       1.092   8.624  19.977  0.00  0.00    +0.000 A 
ATOM      3  C   UNL     1       1.741   7.429  20.318  0.00  0.00    +0.000 A 
ATOM      4  C   UNL     1       2.715   6.870  19.489  0.00  0.00    +0.000 A 
ATOM      5  C   UNL     1       3.061   7.519  18.302  0.00  0.00    +0.000 A 
ATOM      6  C   UNL     1       2.459   8.740  17.966  0.00  0.00    +0.000 A 
ATOM      7  C   UNL     1       1.478   9.298  18.799  0.00  0.00    +0.000 A 
ATOM      8  O   UNL     1       3.949   7.000  17.395  0.00  0.00    +0.000 OA
ATOM      9  C   UNL     1       4.740   5.881  17.848  0.00  0.00    +0.000 C 
ATOM     10  C   UNL     1       3.938   4.884  18.689  0.00  0.00    +0.000 C 
ATOM     11  C   UNL     1       3.394   5.601  19.908  0.00  0.00    +0.000 C 
ENDROOT
BRANCH   7  12
ATOM     12  N   UNL     1       0.901  10.563  18.497  0.00  0.00    +0.000 N 
ATOM     13  C   UNL     1       1.715  11.766  18.625  0.00  0.00    +0.000 C 
ATOM     14  C   UNL     1       0.923  12.919  19.195  0.00  0.00    +0.000 A 
ATOM     15  C   UNL     1       1.486  14.013  19.728  0.00  0.00    +0.000 A 
ATOM     16  N   UNL     1       0.713  15.049  20.251  0.00  0.00    +0.000 N 
ATOM     17  C   UNL     1      -0.674  15.010  20.247  0.00  0.00    +0.000 A 
ATOM     18  O   UNL     1      -1.387  15.899  20.700  0.00  0.00    +0.000 OA
ATOM     19  C   UNL     1      -1.294  13.815  19.630  0.00  0.00    +0.000 A 
ATOM     20  C   UNL     1      -0.523  12.856  19.106  0.00  0.00    +0.000 A 
ATOM     21  N   UNL     1      -1.074  11.791  18.458  0.00  0.00    +0.000 N 
ATOM     22  C   UNL     1      -0.426  10.635  18.116  0.00  0.00    +0.000 C 
ATOM     23  O   UNL     1      -1.069   9.721  17.605  0.00  0.00    +0.000 OA
ATOM     24  H   UNL     1      -2.074  11.745  18.313  0.00  0.00    +0.000 HD
BRANCH  16  25
ATOM     25  C   UNL     1       1.353  16.282  20.731  0.00  0.00    +0.000 C 
BRANCH  25  26
ATOM     26  C   UNL     1       1.874  17.211  19.630  0.00  0.00    +0.000 C 
ATOM     27  F   UNL     1       1.188  17.100  18.471  0.00  0.00    +0.000 F 
ATOM     28  F   UNL     1       1.837  18.507  20.011  0.00  0.00    +0.000 F 
ATOM     29  F   UNL     1       3.170  16.916  19.350  0.00  0.00    +0.000 F 
ENDBRANCH  25  26
ENDBRANCH  16  25
ENDBRANCH   7  12
BRANCH   9  30
ATOM     30  C   UNL     1       5.347   5.206  16.630  0.00  0.00    +0.000 A 
ATOM     31  N   UNL     1       4.626   4.246  15.981  0.00  0.00    +0.000 NA
ATOM     32  C   UNL     1       5.162   3.705  14.864  0.00  0.00    +0.000 A 
ATOM     33  C   UNL     1       6.395   4.069  14.349  0.00  0.00    +0.000 A 
ATOM     34  C   UNL     1       7.129   5.036  15.026  0.00  0.00    +0.000 A 
ATOM     35  C   UNL     1       6.599   5.608  16.176  0.00  0.00    +0.000 A 
ATOM     36  F   UNL     1       7.309   6.535  16.835  0.00  0.00    +0.000 F 
ENDBRANCH   9  30
TORSDOF 4
ENDMDL
MODEL 4
REMARK VINA RESULT:      -7.9      5.999     10.309
REMARK  Name = 
REMARK  5 active torsions:
REMARK  status: ('A' for Active; 'I' for Inactive)
REMARK    1  A    between atoms: C_1  and  C_2
REMARK    2  A    between atoms: C_7  and  N_8
REMARK    3  A    between atoms: N_12  and  C_13
REMARK    4  A    between atoms: C_13  and  C_14
REMARK    5  A    between atoms: C_26  and  C_27
REMARK                            x       y       z     vdW  Elec       q    Type
REMARK                         _______ _______ _______ _____ _____    ______ ____
ROOT
ATOM      1  C   UNL     1      -0.382   8.571  21.514  0.00  0.00    +0.000 C 
ATOM      2  C   UNL     1       0.710   8.165  20.562  0.00  0.00    +0.000 A 
ATOM      3  C   UNL     1       1.391   6.965  20.810  0.00  0.00    +0.000 A 
ATOM      4  C   UNL     1       2.422   6.530  19.975  0.00  0.00    +0.000 A 
ATOM      5  C   UNL     1       2.792   7.309  18.877  0.00  0.00    +0.000 A 
ATOM      6  C   UNL     1       2.157   8.537  18.639  0.00  0.00    +0.000 A 
ATOM      7  C   UNL     1       1.119   8.970  19.477  0.00  0.00    +0.000 A 
ATOM      8  O   UNL     1       3.739   6.919  17.965  0.00  0.00    +0.000 OA
ATOM      9  C   UNL     1       4.553   5.788  18.339  0.00  0.00    +0.000 C 
ATOM     10  C   UNL     1       3.757   4.681  19.036  0.00  0.00    +0.000 C 
ATOM     11  C   UNL     1       3.132   5.249  20.294  0.00  0.00    +0.000 C 
ENDROOT
BRANCH   7  12
ATOM     12  N   UNL     1       0.506  10.239  19.278  0.00  0.00    +0.000 N 
ATOM     13  C   UNL     1       0.972  11.385  20.050  0.00  0.00    +0.000 C 
ATOM     14  C   UNL     1      -0.173  12.273  20.478  0.00  0.00    +0.000 A 
ATOM     15  C   UNL     1      -0.077  13.182  21.460  0.00  0.00    +0.000 A 
ATOM     16  N   UNL     1      -1.165  13.973  21.826  0.00  0.00    +0.000 N 
ATOM     17  C   UNL     1      -2.398  13.871  21.199  0.00  0.00    +0.000 A 
ATOM     18  O   UNL     1      -3.377  14.547  21.495  0.00  0.00    +0.000 OA
ATOM     19  C   UNL     1      -2.492  12.890  20.095  0.00  0.00    +0.000 A 
ATOM     20  C   UNL     1      -1.419  12.170  19.745  0.00  0.00    +0.000 A 
ATOM     21  N   UNL     1      -1.461  11.325  18.677  0.00  0.00    +0.000 N 
ATOM     22  C   UNL     1      -0.539  10.359  18.381  0.00  0.00    +0.000 C 
ATOM     23  O   UNL     1      -0.745   9.611  17.426  0.00  0.00    +0.000 OA
ATOM     24  H   UNL     1      -2.289  11.277  18.097  0.00  0.00    +0.000 HD
BRANCH  16  25
ATOM     25  C   UNL     1      -1.004  15.033  22.831  0.00  0.00    +0.000 C 
BRANCH  25  26
ATOM     26  C   UNL     1      -1.657  14.745  24.187  0.00  0.00    +0.000 C 
ATOM     27  F   UNL     1      -2.048  13.458  24.326  0.00  0.00    +0.000 F 
ATOM     28  F   UNL     1      -0.828  15.038  25.213  0.00  0.00    +0.000 F 
ATOM     29  F   UNL     1      -2.766  15.512  24.341  0.00  0.00    +0.000 F 
ENDBRANCH  25  26
ENDBRANCH  16  25
ENDBRANCH   7  12
BRANCH   9  30
ATOM     30  C   UNL     1       5.239   5.264  17.088  0.00  0.00    +0.000 A 
ATOM     31  N   UNL     1       4.544   4.437  16.253  0.00  0.00    +0.000 NA
ATOM     32  C   UNL     1       5.154   4.035  15.116  0.00  0.00    +0.000 A 
ATOM     33  C   UNL     1       6.438   4.412  14.758  0.00  0.00    +0.000 A 
ATOM     34  C   UNL     1       7.144   5.241  15.623  0.00  0.00    +0.000 A 
ATOM     35  C   UNL     1       6.538   5.669  16.797  0.00  0.00    +0.000 A 
ATOM     36  F   UNL     1       7.219   6.462  17.636  0.00  0.00    +0.000 F 
ENDBRANCH   9  30
TORSDOF 4
ENDMDL
MODEL 5
REMARK VINA RESULT:      -7.8      5.524      9.727
REMARK  Name = 
REMARK  5 active torsions:
REMARK  status: ('A' for Active; 'I' for Inactive)
REMARK    1  A    between atoms: C_1  and  C_2
REMARK    2  A    between atoms: C_7  and  N_8
REMARK    3  A    between atoms: N_12  and  C_13
REMARK    4  A    between atoms: C_13  and  C_14
REMARK    5  A    between atoms: C_26  and  C_27
REMARK                            x       y       z     vdW  Elec       q    Type
REMARK                         _______ _______ _______ _____ _____    ______ ____
ROOT
ATOM      1  C   UNL     1       0.036   8.699  21.199  0.00  0.00    +0.000 C 
ATOM      2  C   UNL     1       1.077   8.262  20.203  0.00  0.00    +0.000 A 
ATOM      3  C   UNL     1       1.766   7.067  20.450  0.00  0.00    +0.000 A 
ATOM      4  C   UNL     1       2.751   6.603  19.576  0.00  0.00    +0.000 A 
ATOM      5  C   UNL     1       3.067   7.351  18.439  0.00  0.00    +0.000 A 
ATOM      6  C   UNL     1       2.425   8.574  18.200  0.00  0.00    +0.000 A 
ATOM      7  C   UNL     1       1.432   9.035  19.077  0.00  0.00    +0.000 A 
ATOM      8  O   UNL     1       3.965   6.930  17.492  0.00  0.00    +0.000 OA
ATOM      9  C   UNL     1       4.794   5.807  17.855  0.00  0.00    +0.000 C 
ATOM     10  C   UNL     1       4.030   4.723  18.622  0.00  0.00    +0.000 C 
ATOM     11  C   UNL     1       3.473   5.329  19.894  0.00  0.00    +0.000 C 
ENDROOT
BRANCH   7  12
ATOM     12  N   UNL     1       0.814  10.301  18.875  0.00  0.00    +0.000 N 
ATOM     13  C   UNL     1       1.469  11.503  19.375  0.00  0.00    +0.000 C 
ATOM     14  C   UNL     1       0.474  12.486  19.946  0.00  0.00    +0.000 A 
ATOM     15  C   UNL     1       0.813  13.493  20.764  0.00  0.00    +0.000 A 
ATOM     16  N   UNL     1      -0.143  14.370  21.274  0.00  0.00    +0.000 N 
ATOM     17  C   UNL     1      -1.490  14.256  20.964  0.00  0.00    +0.000 A 
ATOM     18  O   UNL     1      -2.360  15.005  21.395  0.00  0.00    +0.000 OA
ATOM     19  C   UNL     1      -1.859  13.162  20.036  0.00  0.00    +0.000 A 
ATOM     20  C   UNL     1      -0.912  12.359  19.537  0.00  0.00    +0.000 A 
ATOM     21  N   UNL     1      -1.218  11.403  18.617  0.00  0.00    +0.000 N 
ATOM     22  C   UNL     1      -0.409  10.368  18.234  0.00  0.00    +0.000 C 
ATOM     23  O   UNL     1      -0.848   9.528  17.450  0.00  0.00    +0.000 OA
ATOM     24  H   UNL     1      -2.160  11.328  18.253  0.00  0.00    +0.000 HD
BRANCH  16  25
ATOM     25  C   UNL     1       0.269  15.527  22.080  0.00  0.00    +0.000 C 
BRANCH  25  26
ATOM     26  C   UNL     1       1.007  16.625  21.308  0.00  0.00    +0.000 C 
ATOM     27  F   UNL     1       0.818  17.859  21.825  0.00  0.00    +0.000 F 
ATOM     28  F   UNL     1       2.338  16.396  21.263  0.00  0.00    +0.000 F 
ATOM     29  F   UNL     1       0.567  16.665  20.024  0.00  0.00    +0.000 F 
ENDBRANCH  25  26
ENDBRANCH  16  25
ENDBRANCH   7  12
BRANCH   9  30
ATOM     30  C   UNL     1       5.413   5.245  16.586  0.00  0.00    +0.000 A 
ATOM     31  N   UNL     1       4.655   4.442  15.783  0.00  0.00    +0.000 NA
ATOM     32  C   UNL     1       5.208   4.006  14.628  0.00  0.00    +0.000 A 
ATOM     33  C   UNL     1       6.493   4.326  14.223  0.00  0.00    +0.000 A 
ATOM     34  C   UNL     1       7.263   5.131  15.055  0.00  0.00    +0.000 A 
ATOM     35  C   UNL     1       6.716   5.593  16.246  0.00  0.00    +0.000 A 
ATOM     36  F   UNL     1       7.459   6.362  17.054  0.00  0.00    +0.000 F 
ENDBRANCH   9  30
TORSDOF 4
ENDMDL
MODEL 6
REMARK VINA RESULT:      -7.7      6.002     10.049
REMARK  Name = 
REMARK  5 active torsions:
REMARK  status: ('A' for Active; 'I' for Inactive)
REMARK    1  A    between atoms: C_1  and  C_2
REMARK    2  A    between atoms: C_7  and  N_8
REMARK    3  A    between atoms: N_12  and  C_13
REMARK    4  A    between atoms: C_13  and  C_14
REMARK    5  A    between atoms: C_26  and  C_27
REMARK                            x       y       z     vdW  Elec       q    Type
REMARK                         _______ _______ _______ _____ _____    ______ ____
ROOT
ATOM      1  C   UNL     1      -0.396   8.509  21.567  0.00  0.00    +0.000 C 
ATOM      2  C   UNL     1       0.699   8.119  20.611  0.00  0.00    +0.000 A 
ATOM      3  C   UNL     1       1.344   6.890  20.811  0.00  0.00    +0.000 A 
ATOM      4  C   UNL     1       2.376   6.466  19.970  0.00  0.00    +0.000 A 
ATOM      5  C   UNL     1       2.783   7.287  18.916  0.00  0.00    +0.000 A 
ATOM      6  C   UNL     1       2.184   8.541  18.728  0.00  0.00    +0.000 A 
ATOM      7  C   UNL     1       1.146   8.963  19.572  0.00  0.00    +0.000 A 
ATOM      8  O   UNL     1       3.732   6.914  18.000  0.00  0.00    +0.000 OA
ATOM      9  C   UNL     1       4.510   5.745  18.330  0.00  0.00    +0.000 C 
ATOM     10  C   UNL     1       3.674   4.628  18.962  0.00  0.00    +0.000 C 
ATOM     11  C   UNL     1       3.046   5.153  20.237  0.00  0.00    +0.000 C 
ENDROOT
BRANCH   7  12
ATOM     12  N   UNL     1       0.570  10.256  19.425  0.00  0.00    +0.000 N 
ATOM     13  C   UNL     1       1.079  11.358  20.231  0.00  0.00    +0.000 C 
ATOM     14  C   UNL     1      -0.032  12.266  20.704  0.00  0.00    +0.000 A 
ATOM     15  C   UNL     1       0.102  13.135  21.716  0.00  0.00    +0.000 A 
ATOM     16  N   UNL     1      -0.957  13.946  22.124  0.00  0.00    +0.000 N 
ATOM     17  C   UNL     1      -2.199  13.904  21.508  0.00  0.00    +0.000 A 
ATOM     18  O   UNL     1      -3.154  14.598  21.840  0.00  0.00    +0.000 OA
ATOM     19  C   UNL     1      -2.336  12.966  20.371  0.00  0.00    +0.000 A 
ATOM     20  C   UNL     1      -1.289  12.227  19.983  0.00  0.00    +0.000 A 
ATOM     21  N   UNL     1      -1.368  11.422  18.886  0.00  0.00    +0.000 N 
ATOM     22  C   UNL     1      -0.480  10.439  18.545  0.00  0.00    +0.000 C 
ATOM     23  O   UNL     1      -0.720   9.733  17.567  0.00  0.00    +0.000 OA
ATOM     24  H   UNL     1      -2.204  11.420  18.315  0.00  0.00    +0.000 HD
BRANCH  16  25
ATOM     25  C   UNL     1      -0.753  14.964  23.163  0.00  0.00    +0.000 C 
BRANCH  25  26
ATOM     26  C   UNL     1      -0.307  16.336  22.647  0.00  0.00    +0.000 C 
ATOM     27  F   UNL     1       0.115  16.310  21.364  0.00  0.00    +0.000 F 
ATOM     28  F   UNL     1      -1.298  17.250  22.738  0.00  0.00    +0.000 F 
ATOM     29  F   UNL     1       0.729  16.798  23.394  0.00  0.00    +0.000 F 
ENDBRANCH  25  26
ENDBRANCH  16  25
ENDBRANCH   7  12
BRANCH   9  30
ATOM     30  C   UNL     1       5.200   5.261  17.065  0.00  0.00    +0.000 A 
ATOM     31  N   UNL     1       4.528   4.416  16.230  0.00  0.00    +0.000 NA
ATOM     32  C   UNL     1       5.140   4.050  15.081  0.00  0.00    +0.000 A 
ATOM     33  C   UNL     1       6.402   4.483  14.711  0.00  0.00    +0.000 A 
ATOM     34  C   UNL     1       7.085   5.331  15.575  0.00  0.00    +0.000 A 
ATOM     35  C   UNL     1       6.477   5.722  16.762  0.00  0.00    +0.000 A 
ATOM     36  F   UNL     1       7.137   6.534  17.600  0.00  0.00    +0.000 F 
ENDBRANCH   9  30
TORSDOF 4
ENDMDL
MODEL 7
REMARK VINA RESULT:      -7.7      6.330      8.147
REMARK  Name = 
REMARK  5 active torsions:
REMARK  status: ('A' for Active; 'I' for Inactive)
REMARK    1  A    between atoms: C_1  and  C_2
REMARK    2  A    between atoms: C_7  and  N_8
REMARK    3  A    between atoms: N_12  and  C_13
REMARK    4  A    between atoms: C_13  and  C_14
REMARK    5  A    between atoms: C_26  and  C_27
REMARK                            x       y       z     vdW  Elec       q    Type
REMARK                         _______ _______ _______ _____ _____    ______ ____
ROOT
ATOM      1  C   UNL     1       1.729  12.570  20.852  0.00  0.00    +0.000 C 
ATOM      2  C   UNL     1       0.306  12.781  21.297  0.00  0.00    +0.000 A 
ATOM      3  C   UNL     1       0.054  13.769  22.259  0.00  0.00    +0.000 A 
ATOM      4  C   UNL     1      -1.238  14.015  22.727  0.00  0.00    +0.000 A 
ATOM      5  C   UNL     1      -2.301  13.253  22.237  0.00  0.00    +0.000 A 
ATOM      6  C   UNL     1      -2.065  12.227  21.311  0.00  0.00    +0.000 A 
ATOM      7  C   UNL     1      -0.766  11.985  20.840  0.00  0.00    +0.000 A 
ATOM      8  O   UNL     1      -3.608  13.480  22.584  0.00  0.00    +0.000 OA
ATOM      9  C   UNL     1      -3.825  14.361  23.706  0.00  0.00    +0.000 C 
ATOM     10  C   UNL     1      -2.882  15.568  23.710  0.00  0.00    +0.000 C 
ATOM     11  C   UNL     1      -1.453  15.069  23.770  0.00  0.00    +0.000 C 
ENDROOT
BRANCH   7  12
ATOM     12  N   UNL     1      -0.506  10.911  19.943  0.00  0.00    +0.000 N 
ATOM     13  C   UNL     1      -0.225   9.586  20.481  0.00  0.00    +0.000 C 
ATOM     14  C   UNL     1       0.855   8.880  19.695  0.00  0.00    +0.000 A 
ATOM     15  C   UNL     1       1.536   7.822  20.158  0.00  0.00    +0.000 A 
ATOM     16  N   UNL     1       2.532   7.209  19.399  0.00  0.00    +0.000 N 
ATOM     17  C   UNL     1       2.870   7.651  18.128  0.00  0.00    +0.000 A 
ATOM     18  O   UNL     1       3.741   7.140  17.432  0.00  0.00    +0.000 OA
ATOM     19  C   UNL     1       2.095   8.800  17.606  0.00  0.00    +0.000 A 
ATOM     20  C   UNL     1       1.122   9.343  18.347  0.00  0.00    +0.000 A 
ATOM     21  N   UNL     1       0.341  10.343  17.853  0.00  0.00    +0.000 N 
ATOM     22  C   UNL     1      -0.494  11.146  18.581  0.00  0.00    +0.000 C 
ATOM     23  O   UNL     1      -1.081  12.066  18.014  0.00  0.00    +0.000 OA
ATOM     24  H   UNL     1       0.448  10.647  16.893  0.00  0.00    +0.000 HD
BRANCH  16  25
ATOM     25  C   UNL     1       3.189   5.987  19.885  0.00  0.00    +0.000 C 
BRANCH  25  26
ATOM     26  C   UNL     1       2.395   4.695  19.668  0.00  0.00    +0.000 C 
ATOM     27  F   UNL     1       2.958   3.620  20.262  0.00  0.00    +0.000 F 
ATOM     28  F   UNL     1       1.128   4.804  20.124  0.00  0.00    +0.000 F 
ATOM     29  F   UNL     1       2.316   4.417  18.341  0.00  0.00    +0.000 F 
ENDBRANCH  25  26
ENDBRANCH  16  25
ENDBRANCH   7  12
BRANCH   9  30
ATOM     30  C   UNL     1      -5.279  14.802  23.689  0.00  0.00    +0.000 A 
ATOM     31  N   UNL     1      -5.564  16.121  23.481  0.00  0.00    +0.000 NA
ATOM     32  C   UNL     1      -6.866  16.478  23.407  0.00  0.00    +0.000 A 
ATOM     33  C   UNL     1      -7.916  15.584  23.533  0.00  0.00    +0.000 A 
ATOM     34  C   UNL     1      -7.616  14.246  23.761  0.00  0.00    +0.000 A 
ATOM     35  C   UNL     1      -6.285  13.854  23.839  0.00  0.00    +0.000 A 
ATOM     36  F   UNL     1      -5.993  12.566  24.067  0.00  0.00    +0.000 F 
ENDBRANCH   9  30
TORSDOF 4
ENDMDL
MODEL 8
REMARK VINA RESULT:      -7.7      6.488     10.273
REMARK  Name = 
REMARK  5 active torsions:
REMARK  status: ('A' for Active; 'I' for Inactive)
REMARK    1  A    between atoms: C_1  and  C_2
REMARK    2  A    between atoms: C_7  and  N_8
REMARK    3  A    between atoms: N_12  and  C_13
REMARK    4  A    between atoms: C_13  and  C_14
REMARK    5  A    between atoms: C_26  and  C_27
REMARK                            x       y       z     vdW  Elec       q    Type
REMARK                         _______ _______ _______ _____ _____    ______ ____
ROOT
ATOM      1  C   UNL     1      -0.410   8.644  21.531  0.00  0.00    +0.000 C 
ATOM      2  C   UNL     1       0.680   8.234  20.577  0.00  0.00    +0.000 A 
ATOM      3  C   UNL     1       1.368   7.040  20.834  0.00  0.00    +0.000 A 
ATOM      4  C   UNL     1       2.397   6.600  19.999  0.00  0.00    +0.000 A 
ATOM      5  C   UNL     1       2.758   7.370  18.891  0.00  0.00    +0.000 A 
ATOM      6  C   UNL     1       2.115   8.592  18.643  0.00  0.00    +0.000 A 
ATOM      7  C   UNL     1       1.080   9.029  19.482  0.00  0.00    +0.000 A 
ATOM      8  O   UNL     1       3.701   6.974  17.979  0.00  0.00    +0.000 OA
ATOM      9  C   UNL     1       4.523   5.851  18.360  0.00  0.00    +0.000 C 
ATOM     10  C   UNL     1       3.735   4.748  19.073  0.00  0.00    +0.000 C 
ATOM     11  C   UNL     1       3.114   5.326  20.328  0.00  0.00    +0.000 C 
ENDROOT
BRANCH   7  12
ATOM     12  N   UNL     1       0.459  10.293  19.273  0.00  0.00    +0.000 N 
ATOM     13  C   UNL     1       0.921  11.448  20.033  0.00  0.00    +0.000 C 
ATOM     14  C   UNL     1      -0.228  12.334  20.456  0.00  0.00    +0.000 A 
ATOM     15  C   UNL     1      -0.135  13.252  21.429  0.00  0.00    +0.000 A 
ATOM     16  N   UNL     1      -1.226  14.041  21.791  0.00  0.00    +0.000 N 
ATOM     17  C   UNL     1      -2.460  13.927  21.166  0.00  0.00    +0.000 A 
ATOM     18  O   UNL     1      -3.442  14.600  21.459  0.00  0.00    +0.000 OA
ATOM     19  C   UNL     1      -2.551  12.935  20.071  0.00  0.00    +0.000 A 
ATOM     20  C   UNL     1      -1.475  12.218  19.725  0.00  0.00    +0.000 A 
ATOM     21  N   UNL     1      -1.514  11.364  18.665  0.00  0.00    +0.000 N 
ATOM     22  C   UNL     1      -0.587  10.399  18.376  0.00  0.00    +0.000 C 
ATOM     23  O   UNL     1      -0.792   9.642  17.429  0.00  0.00    +0.000 OA
ATOM     24  H   UNL     1      -2.343  11.306  18.088  0.00  0.00    +0.000 HD
BRANCH  16  25
ATOM     25  C   UNL     1      -1.070  15.111  22.786  0.00  0.00    +0.000 C 
BRANCH  25  26
ATOM     26  C   UNL     1      -1.672  14.809  24.162  0.00  0.00    +0.000 C 
ATOM     27  F   UNL     1      -2.803  15.504  24.412  0.00  0.00    +0.000 F 
ATOM     28  F   UNL     1      -1.954  13.495  24.307  0.00  0.00    +0.000 F 
ATOM     29  F   UNL     1      -0.785  15.134  25.137  0.00  0.00    +0.000 F 
ENDBRANCH  25  26
ENDBRANCH  16  25
ENDBRANCH   7  12
BRANCH   9  30
ATOM     30  C   UNL     1       5.205   5.317  17.111  0.00  0.00    +0.000 A 
ATOM     31  N   UNL     1       6.462   5.756  16.809  0.00  0.00    +0.000 NA
ATOM     32  C   UNL     1       7.071   5.219  15.728  0.00  0.00    +0.000 A 
ATOM     33  C   UNL     1       6.491   4.257  14.917  0.00  0.00    +0.000 A 
ATOM     34  C   UNL     1       5.205   3.829  15.224  0.00  0.00    +0.000 A 
ATOM     35  C   UNL     1       4.558   4.365  16.331  0.00  0.00    +0.000 A 
ATOM     36  F   UNL     1       3.315   3.960  16.624  0.00  0.00    +0.000 F 
ENDBRANCH   9  30
TORSDOF 4
ENDMDL
MODEL 9
REMARK VINA RESULT:      -7.7      5.160      9.416
REMARK  Name = 
REMARK  5 active torsions:
REMARK  status: ('A' for Active; 'I' for Inactive)
REMARK    1  A    between atoms: C_1  and  C_2
REMARK    2  A    between atoms: C_7  and  N_8
REMARK    3  A    between atoms: N_12  and  C_13
REMARK    4  A    between atoms: C_13  and  C_14
REMARK    5  A    between atoms: C_26  and  C_27
REMARK                            x       y       z     vdW  Elec       q    Type
REMARK                         _______ _______ _______ _____ _____    ______ ____
ROOT
ATOM      1  C   UNL     1       0.125   9.134  20.911  0.00  0.00    +0.000 C 
ATOM      2  C   UNL     1       1.147   8.594  19.946  0.00  0.00    +0.000 A 
ATOM      3  C   UNL     1       1.804   7.401  20.279  0.00  0.00    +0.000 A 
ATOM      4  C   UNL     1       2.769   6.845  19.437  0.00  0.00    +0.000 A 
ATOM      5  C   UNL     1       3.098   7.496  18.246  0.00  0.00    +0.000 A 
ATOM      6  C   UNL     1       2.489   8.715  17.918  0.00  0.00    +0.000 A 
ATOM      7  C   UNL     1       1.516   9.269  18.764  0.00  0.00    +0.000 A 
ATOM      8  O   UNL     1       3.977   6.980  17.329  0.00  0.00    +0.000 OA
ATOM      9  C   UNL     1       4.776   5.863  17.771  0.00  0.00    +0.000 C 
ATOM     10  C   UNL     1       3.988   4.863  18.622  0.00  0.00    +0.000 C 
ATOM     11  C   UNL     1       3.457   5.578  19.847  0.00  0.00    +0.000 C 
ENDROOT
BRANCH   7  12
ATOM     12  N   UNL     1       0.932  10.533  18.469  0.00  0.00    +0.000 N 
ATOM     13  C   UNL     1       1.723  11.744  18.651  0.00  0.00    +0.000 C 
ATOM     14  C   UNL     1       0.895  12.873  19.219  0.00  0.00    +0.000 A 
ATOM     15  C   UNL     1       1.424  13.963  19.794  0.00  0.00    +0.000 A 
ATOM     16  N   UNL     1       0.618  14.976  20.312  0.00  0.00    +0.000 N 
ATOM     17  C   UNL     1      -0.767  14.918  20.259  0.00  0.00    +0.000 A 
ATOM     18  O   UNL     1      -1.508  15.787  20.706  0.00  0.00    +0.000 OA
ATOM     19  C   UNL     1      -1.348  13.729  19.596  0.00  0.00    +0.000 A 
ATOM     20  C   UNL     1      -0.546  12.792  19.078  0.00  0.00    +0.000 A 
ATOM     21  N   UNL     1      -1.058  11.734  18.388  0.00  0.00    +0.000 N 
ATOM     22  C   UNL     1      -0.382  10.596  18.044  0.00  0.00    +0.000 C 
ATOM     23  O   UNL     1      -0.994   9.684  17.491  0.00  0.00    +0.000 OA
ATOM     24  H   UNL     1      -2.052  11.677  18.207  0.00  0.00    +0.000 HD
BRANCH  16  25
ATOM     25  C   UNL     1       1.223  16.206  20.840  0.00  0.00    +0.000 C 
BRANCH  25  26
ATOM     26  C   UNL     1       1.641  16.142  22.313  0.00  0.00    +0.000 C 
ATOM     27  F   UNL     1       2.063  17.330  22.798  0.00  0.00    +0.000 F 
ATOM     28  F   UNL     1       0.632  15.709  23.101  0.00  0.00    +0.000 F 
ATOM     29  F   UNL     1       2.667  15.267  22.466  0.00  0.00    +0.000 F 
ENDBRANCH  25  26
ENDBRANCH  16  25
ENDBRANCH   7  12
BRANCH   9  30
ATOM     30  C   UNL     1       5.371   5.190  16.545  0.00  0.00    +0.000 A 
ATOM     31  N   UNL     1       4.616   4.279  15.864  0.00  0.00    +0.000 NA
ATOM     32  C   UNL     1       5.144   3.741  14.741  0.00  0.00    +0.000 A 
ATOM     33  C   UNL     1       6.399   4.061  14.252  0.00  0.00    +0.000 A 
ATOM     34  C   UNL     1       7.166   4.978  14.962  0.00  0.00    +0.000 A 
ATOM     35  C   UNL     1       6.646   5.546  16.118  0.00  0.00    +0.000 A 
ATOM     36  F   UNL     1       7.386   6.424  16.808  0.00  0.00    +0.000 F 
ENDBRANCH   9  30
TORSDOF 4
ENDMDL
