MODEL 1
REMARK VINA RESULT:      -7.6      0.000      0.000
REMARK  Name = 
REMARK  2 active torsions:
REMARK  status: ('A' for Active; 'I' for Inactive)
REMARK    1  A    between atoms: C_2  and  C_3
REMARK    2  A    between atoms: N_7  and  C_8
REMARK                            x       y       z     vdW  Elec       q    Type
REMARK                         _______ _______ _______ _____ _____    ______ ____
ROOT
ATOM      1  C   UNL     1       4.580   5.050  17.910  0.00  0.00    +0.000 C 
ATOM      2  C   UNL     1       4.602   6.493  17.433  0.00  0.00    +0.000 C 
ATOM      3  C   UNL     1       5.049   6.437  16.001  0.00  0.00    +0.000 C 
ATOM      4  O   UNL     1       5.030   7.429  15.286  0.00  0.00    +0.000 OA
ATOM      5  N   UNL     1       5.481   5.141  15.717  0.00  0.00    +0.000 N 
ATOM      6  C   UNL     1       5.425   4.302  16.892  0.00  0.00    +0.000 C 
ENDROOT
BRANCH   1   8
ATOM      7  O   UNL     1       2.245   4.952  17.343  0.00  0.00    +0.000 OA
ATOM      8  C   UNL     1       3.159   4.493  18.027  0.00  0.00    +0.000 C 
ATOM      9  N   UNL     1       2.959   3.421  18.903  0.00  0.00    +0.000 N 
ATOM     10  C   UNL     1       1.664   2.738  18.869  0.00  0.00    +0.000 C 
ATOM     11  C   UNL     1       0.737   3.170  20.002  0.00  0.00    +0.000 C 
ATOM     12  C   UNL     1       1.137   2.663  21.387  0.00  0.00    +0.000 C 
ATOM     13  C   UNL     1       2.570   2.988  21.803  0.00  0.00    +0.000 C 
ATOM     14  C   UNL     1       3.596   2.172  21.018  0.00  0.00    +0.000 C 
ATOM     15  C   UNL     1       4.023   2.814  19.702  0.00  0.00    +0.000 C 
ENDBRANCH   1   8
BRANCH   5  16
ATOM     16  C   UNL     1       5.980   4.676  14.468  0.00  0.00    +0.000 A 
ATOM     17  C   UNL     1       5.261   3.763  13.680  0.00  0.00    +0.000 A 
ATOM     18  C   UNL     1       5.777   3.282  12.472  0.00  0.00    +0.000 A 
ATOM     19  C   UNL     1       7.023   3.706  12.042  0.00  0.00    +0.000 A 
ATOM     20  F   UNL     1       7.526   3.232  10.895  0.00  0.00    +0.000 F 
ATOM     21  C   UNL     1       7.754   4.616  12.788  0.00  0.00    +0.000 A 
ATOM     22  C   UNL     1       7.230   5.105  13.989  0.00  0.00    +0.000 A 
ENDBRANCH   5  16
TORSDOF 2
ENDMDL
MODEL 2
REMARK VINA RESULT:      -7.6      0.352      1.081
REMARK  Name = 
REMARK  2 active torsions:
REMARK  status: ('A' for Active; 'I' for Inactive)
REMARK    1  A    between atoms: C_2  and  C_3
REMARK    2  A    between atoms: N_7  and  C_8
REMARK                            x       y       z     vdW  Elec       q    Type
REMARK                         _______ _______ _______ _____ _____    ______ ____
ROOT
ATOM      1  C   UNL     1       4.725   4.651  17.876  0.00  0.00    +0.000 C 
ATOM      2  C   UNL     1       4.710   6.129  17.519  0.00  0.00    +0.000 C 
ATOM      3  C   UNL     1       5.173   6.203  16.093  0.00  0.00    +0.000 C 
ATOM      4  O   UNL     1       5.133   7.249  15.462  0.00  0.00    +0.000 OA
ATOM      5  N   UNL     1       5.647   4.948  15.710  0.00  0.00    +0.000 N 
ATOM      6  C   UNL     1       5.603   4.013  16.811  0.00  0.00    +0.000 C 
ENDROOT
BRANCH   1   8
ATOM      7  O   UNL     1       2.479   4.335  17.078  0.00  0.00    +0.000 OA
ATOM      8  C   UNL     1       3.320   4.046  17.928  0.00  0.00    +0.000 C 
ATOM      9  N   UNL     1       3.054   3.127  18.948  0.00  0.00    +0.000 N 
ATOM     10  C   UNL     1       1.796   2.378  18.888  0.00  0.00    +0.000 C 
ATOM     11  C   UNL     1       0.727   2.944  19.819  0.00  0.00    +0.000 C 
ATOM     12  C   UNL     1       0.976   2.698  21.307  0.00  0.00    +0.000 C 
ATOM     13  C   UNL     1       2.338   3.164  21.817  0.00  0.00    +0.000 C 
ATOM     14  C   UNL     1       3.477   2.285  21.304  0.00  0.00    +0.000 C 
ATOM     15  C   UNL     1       4.036   2.719  19.952  0.00  0.00    +0.000 C 
ENDBRANCH   1   8
BRANCH   5  16
ATOM     16  C   UNL     1       6.173   4.601  14.434  0.00  0.00    +0.000 A 
ATOM     17  C   UNL     1       7.343   5.194  13.933  0.00  0.00    +0.000 A 
ATOM     18  C   UNL     1       7.832   4.876  12.662  0.00  0.00    +0.000 A 
ATOM     19  C   UNL     1       7.152   3.963  11.874  0.00  0.00    +0.000 A 
ATOM     20  F   UNL     1       7.609   3.671  10.650  0.00  0.00    +0.000 F 
ATOM     21  C   UNL     1       6.001   3.349  12.342  0.00  0.00    +0.000 A 
ATOM     22  C   UNL     1       5.521   3.660  13.619  0.00  0.00    +0.000 A 
ENDBRANCH   5  16
TORSDOF 2
ENDMDL
MODEL 3
REMARK VINA RESULT:      -7.6      1.427      1.788
REMARK  Name = 
REMARK  2 active torsions:
REMARK  status: ('A' for Active; 'I' for Inactive)
REMARK    1  A    between atoms: C_2  and  C_3
REMARK    2  A    between atoms: N_7  and  C_8
REMARK                            x       y       z     vdW  Elec       q    Type
REMARK                         _______ _______ _______ _____ _____    ______ ____
ROOT
ATOM      1  C   UNL     1       5.805   4.818  18.478  0.00  0.00    +0.000 C 
ATOM      2  C   UNL     1       6.734   6.021  18.423  0.00  0.00    +0.000 C 
ATOM      3  C   UNL     1       7.123   6.163  16.980  0.00  0.00    +0.000 C 
ATOM      4  O   UNL     1       7.754   7.131  16.581  0.00  0.00    +0.000 OA
ATOM      5  N   UNL     1       6.680   5.038  16.284  0.00  0.00    +0.000 N 
ATOM      6  C   UNL     1       6.061   4.082  17.174  0.00  0.00    +0.000 C 
ENDROOT
BRANCH   1   8
ATOM      7  O   UNL     1       3.979   6.383  18.488  0.00  0.00    +0.000 OA
ATOM      8  C   UNL     1       4.338   5.219  18.656  0.00  0.00    +0.000 C 
ATOM      9  N   UNL     1       3.429   4.204  18.972  0.00  0.00    +0.000 N 
ATOM     10  C   UNL     1       2.000   4.524  18.933  0.00  0.00    +0.000 C 
ATOM     11  C   UNL     1       1.413   4.776  20.319  0.00  0.00    +0.000 C 
ATOM     12  C   UNL     1       1.263   3.529  21.189  0.00  0.00    +0.000 C 
ATOM     13  C   UNL     1       2.538   2.706  21.361  0.00  0.00    +0.000 C 
ATOM     14  C   UNL     1       2.930   1.975  20.078  0.00  0.00    +0.000 C 
ATOM     15  C   UNL     1       3.803   2.799  19.137  0.00  0.00    +0.000 C 
ENDBRANCH   1   8
BRANCH   5  16
ATOM     16  C   UNL     1       6.850   4.789  14.894  0.00  0.00    +0.000 A 
ATOM     17  C   UNL     1       7.810   5.476  14.133  0.00  0.00    +0.000 A 
ATOM     18  C   UNL     1       7.944   5.253  12.759  0.00  0.00    +0.000 A 
ATOM     19  C   UNL     1       7.114   4.343  12.128  0.00  0.00    +0.000 A 
ATOM     20  F   UNL     1       7.229   4.142  10.809  0.00  0.00    +0.000 F 
ATOM     21  C   UNL     1       6.164   3.637  12.850  0.00  0.00    +0.000 A 
ATOM     22  C   UNL     1       6.040   3.853  14.227  0.00  0.00    +0.000 A 
ENDBRANCH   5  16
TORSDOF 2
ENDMDL
MODEL 4
REMARK VINA RESULT:      -7.6      1.418      1.462
REMARK  Name = 
REMARK  2 active torsions:
REMARK  status: ('A' for Active; 'I' for Inactive)
REMARK    1  A    between atoms: C_2  and  C_3
REMARK    2  A    between atoms: N_7  and  C_8
REMARK                            x       y       z     vdW  Elec       q    Type
REMARK                         _______ _______ _______ _____ _____    ______ ____
ROOT
ATOM      1  C   UNL     1       5.796   4.792  18.470  0.00  0.00    +0.000 C 
ATOM      2  C   UNL     1       6.741   5.982  18.409  0.00  0.00    +0.000 C 
ATOM      3  C   UNL     1       7.106   6.132  16.961  0.00  0.00    +0.000 C 
ATOM      4  O   UNL     1       7.744   7.094  16.559  0.00  0.00    +0.000 OA
ATOM      5  N   UNL     1       6.637   5.018  16.263  0.00  0.00    +0.000 N 
ATOM      6  C   UNL     1       6.019   4.064  17.155  0.00  0.00    +0.000 C 
ENDROOT
BRANCH   1   8
ATOM      7  O   UNL     1       3.994   6.383  18.532  0.00  0.00    +0.000 OA
ATOM      8  C   UNL     1       4.338   5.212  18.677  0.00  0.00    +0.000 C 
ATOM      9  N   UNL     1       3.420   4.205  18.992  0.00  0.00    +0.000 N 
ATOM     10  C   UNL     1       1.995   4.547  18.981  0.00  0.00    +0.000 C 
ATOM     11  C   UNL     1       1.434   4.787  20.380  0.00  0.00    +0.000 C 
ATOM     12  C   UNL     1       1.278   3.530  21.234  0.00  0.00    +0.000 C 
ATOM     13  C   UNL     1       2.544   2.686  21.375  0.00  0.00    +0.000 C 
ATOM     14  C   UNL     1       2.905   1.969  20.075  0.00  0.00    +0.000 C 
ATOM     15  C   UNL     1       3.775   2.793  19.132  0.00  0.00    +0.000 C 
ENDBRANCH   1   8
BRANCH   5  16
ATOM     16  C   UNL     1       6.779   4.780  14.868  0.00  0.00    +0.000 A 
ATOM     17  C   UNL     1       5.975   3.848  14.193  0.00  0.00    +0.000 A 
ATOM     18  C   UNL     1       6.147   3.591  12.829  0.00  0.00    +0.000 A 
ATOM     19  C   UNL     1       7.132   4.262  12.125  0.00  0.00    +0.000 A 
ATOM     20  F   UNL     1       7.311   4.004  10.823  0.00  0.00    +0.000 F 
ATOM     21  C   UNL     1       7.936   5.198  12.756  0.00  0.00    +0.000 A 
ATOM     22  C   UNL     1       7.753   5.462  14.118  0.00  0.00    +0.000 A 
ENDBRANCH   5  16
TORSDOF 2
ENDMDL
MODEL 5
REMARK VINA RESULT:      -7.0      3.336      4.505
REMARK  Name = 
REMARK  2 active torsions:
REMARK  status: ('A' for Active; 'I' for Inactive)
REMARK    1  A    between atoms: C_2  and  C_3
REMARK    2  A    between atoms: N_7  and  C_8
REMARK                            x       y       z     vdW  Elec       q    Type
REMARK                         _______ _______ _______ _____ _____    ______ ____
ROOT
ATOM      1  C   UNL     1       4.124   4.274  16.724  0.00  0.00    +0.000 C 
ATOM      2  C   UNL     1       5.164   3.874  15.690  0.00  0.00    +0.000 C 
ATOM      3  C   UNL     1       6.386   4.685  16.013  0.00  0.00    +0.000 C 
ATOM      4  O   UNL     1       7.452   4.487  15.448  0.00  0.00    +0.000 OA
ATOM      5  N   UNL     1       6.048   5.640  16.973  0.00  0.00    +0.000 N 
ATOM      6  C   UNL     1       4.640   5.586  17.292  0.00  0.00    +0.000 C 
ENDROOT
BRANCH   1   8
ATOM      7  O   UNL     1       4.176   2.021  17.563  0.00  0.00    +0.000 OA
ATOM      8  C   UNL     1       3.923   3.201  17.798  0.00  0.00    +0.000 C 
ATOM      9  N   UNL     1       3.484   3.627  19.056  0.00  0.00    +0.000 N 
ATOM     10  C   UNL     1       3.493   2.654  20.152  0.00  0.00    +0.000 C 
ATOM     11  C   UNL     1       2.111   2.071  20.435  0.00  0.00    +0.000 C 
ATOM     12  C   UNL     1       1.131   3.036  21.100  0.00  0.00    +0.000 C 
ATOM     13  C   UNL     1       0.939   4.364  20.370  0.00  0.00    +0.000 C 
ATOM     14  C   UNL     1       2.169   5.264  20.480  0.00  0.00    +0.000 C 
ATOM     15  C   UNL     1       3.213   5.023  19.394  0.00  0.00    +0.000 C 
ENDBRANCH   1   8
BRANCH   5  16
ATOM     16  C   UNL     1       6.926   6.603  17.544  0.00  0.00    +0.000 A 
ATOM     17  C   UNL     1       7.753   6.292  18.635  0.00  0.00    +0.000 A 
ATOM     18  C   UNL     1       8.584   7.255  19.216  0.00  0.00    +0.000 A 
ATOM     19  C   UNL     1       8.593   8.545  18.713  0.00  0.00    +0.000 A 
ATOM     20  F   UNL     1       9.374   9.473  19.280  0.00  0.00    +0.000 F 
ATOM     21  C   UNL     1       7.799   8.884  17.629  0.00  0.00    +0.000 A 
ATOM     22  C   UNL     1       6.978   7.915  17.043  0.00  0.00    +0.000 A 
ENDBRANCH   5  16
TORSDOF 2
ENDMDL
MODEL 6
REMARK VINA RESULT:      -6.9      3.336      4.513
REMARK  Name = 
REMARK  2 active torsions:
REMARK  status: ('A' for Active; 'I' for Inactive)
REMARK    1  A    between atoms: C_2  and  C_3
REMARK    2  A    between atoms: N_7  and  C_8
REMARK                            x       y       z     vdW  Elec       q    Type
REMARK                         _______ _______ _______ _____ _____    ______ ____
ROOT
ATOM      1  C   UNL     1       4.173   4.189  16.689  0.00  0.00    +0.000 C 
ATOM      2  C   UNL     1       5.271   3.782  15.719  0.00  0.00    +0.000 C 
ATOM      3  C   UNL     1       6.459   4.629  16.077  0.00  0.00    +0.000 C 
ATOM      4  O   UNL     1       7.555   4.438  15.572  0.00  0.00    +0.000 OA
ATOM      5  N   UNL     1       6.055   5.603  16.990  0.00  0.00    +0.000 N 
ATOM      6  C   UNL     1       4.633   5.528  17.241  0.00  0.00    +0.000 C 
ENDROOT
BRANCH   1   8
ATOM      7  O   UNL     1       4.146   1.951  17.567  0.00  0.00    +0.000 OA
ATOM      8  C   UNL     1       3.941   3.144  17.783  0.00  0.00    +0.000 C 
ATOM      9  N   UNL     1       3.531   3.608  19.037  0.00  0.00    +0.000 N 
ATOM     10  C   UNL     1       3.513   2.655  20.150  0.00  0.00    +0.000 C 
ATOM     11  C   UNL     1       2.112   2.132  20.457  0.00  0.00    +0.000 C 
ATOM     12  C   UNL     1       1.177   3.146  21.113  0.00  0.00    +0.000 C 
ATOM     13  C   UNL     1       1.030   4.468  20.362  0.00  0.00    +0.000 C 
ATOM     14  C   UNL     1       2.295   5.320  20.444  0.00  0.00    +0.000 C 
ATOM     15  C   UNL     1       3.318   5.020  19.353  0.00  0.00    +0.000 C 
ENDBRANCH   1   8
BRANCH   5  16
ATOM     16  C   UNL     1       6.883   6.601  17.575  0.00  0.00    +0.000 A 
ATOM     17  C   UNL     1       6.923   7.913  17.076  0.00  0.00    +0.000 A 
ATOM     18  C   UNL     1       7.769   8.877  17.633  0.00  0.00    +0.000 A 
ATOM     19  C   UNL     1       8.589   8.538  18.695  0.00  0.00    +0.000 A 
ATOM     20  F   UNL     1       9.413   9.456  19.217  0.00  0.00    +0.000 F 
ATOM     21  C   UNL     1       8.567   7.257  19.221  0.00  0.00    +0.000 A 
ATOM     22  C   UNL     1       7.710   6.297  18.670  0.00  0.00    +0.000 A 
ENDBRANCH   5  16
TORSDOF 2
ENDMDL
MODEL 7
REMARK VINA RESULT:      -6.5      4.070      7.281
REMARK  Name = 
REMARK  2 active torsions:
REMARK  status: ('A' for Active; 'I' for Inactive)
REMARK    1  A    between atoms: C_2  and  C_3
REMARK    2  A    between atoms: N_7  and  C_8
REMARK                            x       y       z     vdW  Elec       q    Type
REMARK                         _______ _______ _______ _____ _____    ______ ____
ROOT
ATOM      1  C   UNL     1       4.059   3.960  19.502  0.00  0.00    +0.000 C 
ATOM      2  C   UNL     1       2.773   3.421  20.109  0.00  0.00    +0.000 C 
ATOM      3  C   UNL     1       1.841   4.596  20.184  0.00  0.00    +0.000 C 
ATOM      4  O   UNL     1       0.667   4.462  20.496  0.00  0.00    +0.000 OA
ATOM      5  N   UNL     1       2.558   5.756  19.889  0.00  0.00    +0.000 N 
ATOM      6  C   UNL     1       3.958   5.466  19.675  0.00  0.00    +0.000 C 
ENDROOT
BRANCH   1   8
ATOM      7  O   UNL     1       3.914   2.415  17.664  0.00  0.00    +0.000 OA
ATOM      8  C   UNL     1       4.237   3.540  18.040  0.00  0.00    +0.000 C 
ATOM      9  N   UNL     1       4.737   4.500  17.154  0.00  0.00    +0.000 N 
ATOM     10  C   UNL     1       4.712   4.192  15.722  0.00  0.00    +0.000 C 
ATOM     11  C   UNL     1       6.069   3.739  15.190  0.00  0.00    +0.000 C 
ATOM     12  C   UNL     1       7.120   4.843  15.087  0.00  0.00    +0.000 C 
ATOM     13  C   UNL     1       7.358   5.628  16.375  0.00  0.00    +0.000 C 
ATOM     14  C   UNL     1       6.182   6.540  16.720  0.00  0.00    +0.000 C 
ATOM     15  C   UNL     1       5.093   5.863  17.546  0.00  0.00    +0.000 C 
ENDBRANCH   1   8
BRANCH   5  16
ATOM     16  C   UNL     1       2.038   7.080  19.853  0.00  0.00    +0.000 A 
ATOM     17  C   UNL     1       1.416   7.658  20.971  0.00  0.00    +0.000 A 
ATOM     18  C   UNL     1       0.872   8.946  20.915  0.00  0.00    +0.000 A 
ATOM     19  C   UNL     1       0.941   9.669  19.737  0.00  0.00    +0.000 A 
ATOM     20  F   UNL     1       0.405  10.894  19.677  0.00  0.00    +0.000 F 
ATOM     21  C   UNL     1       1.560   9.134  18.618  0.00  0.00    +0.000 A 
ATOM     22  C   UNL     1       2.113   7.851  18.680  0.00  0.00    +0.000 A 
ENDBRANCH   5  16
TORSDOF 2
ENDMDL
MODEL 8
REMARK VINA RESULT:      -6.5      1.206      1.716
REMARK  Name = 
REMARK  2 active torsions:
REMARK  status: ('A' for Active; 'I' for Inactive)
REMARK    1  A    between atoms: C_2  and  C_3
REMARK    2  A    between atoms: N_7  and  C_8
REMARK                            x       y       z     vdW  Elec       q    Type
REMARK                         _______ _______ _______ _____ _____    ______ ____
ROOT
ATOM      1  C   UNL     1       5.258   4.188  18.021  0.00  0.00    +0.000 C 
ATOM      2  C   UNL     1       4.779   5.603  17.739  0.00  0.00    +0.000 C 
ATOM      3  C   UNL     1       5.088   5.852  16.291  0.00  0.00    +0.000 C 
ATOM      4  O   UNL     1       4.692   6.855  15.716  0.00  0.00    +0.000 OA
ATOM      5  N   UNL     1       5.881   4.807  15.816  0.00  0.00    +0.000 N 
ATOM      6  C   UNL     1       6.201   3.872  16.871  0.00  0.00    +0.000 C 
ENDROOT
BRANCH   1   8
ATOM      7  O   UNL     1       3.887   2.374  17.239  0.00  0.00    +0.000 OA
ATOM      8  C   UNL     1       4.103   3.190  18.134  0.00  0.00    +0.000 C 
ATOM      9  N   UNL     1       3.343   3.219  19.307  0.00  0.00    +0.000 N 
ATOM     10  C   UNL     1       2.378   2.138  19.528  0.00  0.00    +0.000 C 
ATOM     11  C   UNL     1       0.945   2.548  19.198  0.00  0.00    +0.000 C 
ATOM     12  C   UNL     1       0.311   3.520  20.192  0.00  0.00    +0.000 C 
ATOM     13  C   UNL     1       1.115   4.792  20.453  0.00  0.00    +0.000 C 
ATOM     14  C   UNL     1       2.381   4.517  21.264  0.00  0.00    +0.000 C 
ATOM     15  C   UNL     1       3.591   4.140  20.416  0.00  0.00    +0.000 C 
ENDBRANCH   1   8
BRANCH   5  16
ATOM     16  C   UNL     1       6.387   4.669  14.494  0.00  0.00    +0.000 A 
ATOM     17  C   UNL     1       7.467   5.438  14.033  0.00  0.00    +0.000 A 
ATOM     18  C   UNL     1       7.932   5.324  12.719  0.00  0.00    +0.000 A 
ATOM     19  C   UNL     1       7.318   4.441  11.848  0.00  0.00    +0.000 A 
ATOM     20  F   UNL     1       7.750   4.344  10.585  0.00  0.00    +0.000 F 
ATOM     21  C   UNL     1       6.257   3.657  12.273  0.00  0.00    +0.000 A 
ATOM     22  C   UNL     1       5.801   3.764  13.591  0.00  0.00    +0.000 A 
ENDBRANCH   5  16
TORSDOF 2
ENDMDL
MODEL 9
REMARK VINA RESULT:      -6.4     10.660     12.575
REMARK  Name = 
REMARK  2 active torsions:
REMARK  status: ('A' for Active; 'I' for Inactive)
REMARK    1  A    between atoms: C_2  and  C_3
REMARK    2  A    between atoms: N_7  and  C_8
REMARK                            x       y       z     vdW  Elec       q    Type
REMARK                         _______ _______ _______ _____ _____    ______ ____
ROOT
ATOM      1  C   UNL     1       7.745  14.985  18.274  0.00  0.00    +0.000 C 
ATOM      2  C   UNL     1       7.805  16.459  18.646  0.00  0.00    +0.000 C 
ATOM      3  C   UNL     1       6.383  16.867  18.903  0.00  0.00    +0.000 C 
ATOM      4  O   UNL     1       6.107  17.964  19.366  0.00  0.00    +0.000 OA
ATOM      5  N   UNL     1       5.540  15.832  18.497  0.00  0.00    +0.000 N 
ATOM      6  C   UNL     1       6.289  14.746  17.907  0.00  0.00    +0.000 C 
ENDROOT
BRANCH   1   8
ATOM      7  O   UNL     1       7.875  14.272  20.567  0.00  0.00    +0.000 OA
ATOM      8  C   UNL     1       8.229  14.076  19.406  0.00  0.00    +0.000 C 
ATOM      9  N   UNL     1       9.048  12.997  19.056  0.00  0.00    +0.000 N 
ATOM     10  C   UNL     1       9.343  11.996  20.084  0.00  0.00    +0.000 C 
ATOM     11  C   UNL     1      10.725  12.179  20.708  0.00  0.00    +0.000 C 
ATOM     12  C   UNL     1      11.895  11.808  19.798  0.00  0.00    +0.000 C 
ATOM     13  C   UNL     1      11.898  12.501  18.437  0.00  0.00    +0.000 C 
ATOM     14  C   UNL     1      10.793  11.978  17.521  0.00  0.00    +0.000 C 
ATOM     15  C   UNL     1       9.458  12.698  17.684  0.00  0.00    +0.000 C 
ENDBRANCH   1   8
BRANCH   5  16
ATOM     16  C   UNL     1       4.119  15.826  18.575  0.00  0.00    +0.000 A 
ATOM     17  C   UNL     1       3.335  16.702  17.807  0.00  0.00    +0.000 A 
ATOM     18  C   UNL     1       1.940  16.716  17.918  0.00  0.00    +0.000 A 
ATOM     19  C   UNL     1       1.314  15.856  18.804  0.00  0.00    +0.000 A 
ATOM     20  F   UNL     1      -0.019  15.881  18.924  0.00  0.00    +0.000 F 
ATOM     21  C   UNL     1       2.056  14.970  19.568  0.00  0.00    +0.000 A 
ATOM     22  C   UNL     1       3.450  14.949  19.446  0.00  0.00    +0.000 A 
ENDBRANCH   5  16
TORSDOF 2
ENDMDL
