MODEL 1
REMARK VINA RESULT:      -9.0      0.000      0.000
REMARK  Name = 
REMARK  10 active torsions:
REMARK  status: ('A' for Active; 'I' for Inactive)
REMARK    1  A    between atoms: C_1  and  O_2
REMARK    2  A    between atoms: O_2  and  C_3
REMARK    3  A    between atoms: N_5  and  C_6
REMARK    4  A    between atoms: C_13  and  C_14
REMARK    5  A    between atoms: C_14  and  O_16
REMARK    6  A    between atoms: O_16  and  C_17
REMARK    7  A    between atoms: C_17  and  C_18
REMARK    8  A    between atoms: N_20  and  C_21
REMARK    9  A    between atoms: C_24  and  C_25
REMARK   10  A    between atoms: C_26  and  C_27
REMARK                            x       y       z     vdW  Elec       q    Type
REMARK                         _______ _______ _______ _____ _____    ______ ____
ROOT
ATOM      1  C   UNL     1       7.427   5.009  17.318  0.00  0.00    +0.000 C 
ATOM      2  O   UNL     1       8.262   4.117  17.431  0.00  0.00    +0.000 OA
ENDROOT
BRANCH   1   7
ATOM      3  C   UNL     1       5.021   4.922  16.367  0.00  0.00    +0.000 A 
ATOM      4  C   UNL     1       3.832   4.522  16.918  0.00  0.00    +0.000 A 
ATOM      5  N   UNL     1       4.084   4.213  18.232  0.00  0.00    +0.000 N 
ATOM      6  N   UNL     1       5.391   4.389  18.546  0.00  0.00    +0.000 NA
ATOM      7  C   UNL     1       5.978   4.806  17.402  0.00  0.00    +0.000 A 
BRANCH   5   8
ATOM      8  C   UNL     1       3.158   3.734  19.201  0.00  0.00    +0.000 A 
ATOM      9  C   UNL     1       3.604   3.205  20.421  0.00  0.00    +0.000 A 
ATOM     10  C   UNL     1       2.683   2.745  21.363  0.00  0.00    +0.000 A 
ATOM     11  C   UNL     1       1.318   2.802  21.094  0.00  0.00    +0.000 A 
ATOM     12  C   UNL     1       0.867   3.324  19.882  0.00  0.00    +0.000 A 
ATOM     13  C   UNL     1       1.781   3.795  18.937  0.00  0.00    +0.000 A 
ENDBRANCH   5   8
BRANCH   3  15
ATOM     14  C   UNL     1       5.711   4.234  14.250  0.00  0.00    +0.000 C 
ATOM     15  O   UNL     1       5.257   5.290  15.089  0.00  0.00    +0.000 OA
ENDBRANCH   3  15
ENDBRANCH   1   7
BRANCH   1  16
ATOM     16  O   UNL     1       7.735   6.336  17.220  0.00  0.00    +0.000 OA
BRANCH  16  17
ATOM     17  C   UNL     1       7.962   6.986  18.465  0.00  0.00    +0.000 C 
BRANCH  17  18
ATOM     18  C   UNL     1       8.252   8.476  18.263  0.00  0.00    +0.000 C 
ATOM     19  O   UNL     1       7.768   9.072  17.305  0.00  0.00    +0.000 OA
ATOM     20  N   UNL     1       9.051   9.026  19.261  0.00  0.00    +0.000 N 
ATOM     21  H   UNL     1       9.452   8.375  19.936  0.00  0.00    +0.000 HD
BRANCH  20  22
ATOM     22  C   UNL     1       9.441  10.378  19.375  0.00  0.00    +0.000 A 
ATOM     23  C   UNL     1       9.271  11.116  20.542  0.00  0.00    +0.000 A 
ATOM     24  C   UNL     1       9.691  12.445  20.611  0.00  0.00    +0.000 A 
ATOM     25  C   UNL     1      10.284  13.076  19.510  0.00  0.00    +0.000 A 
ATOM     26  C   UNL     1      10.733  14.503  19.663  0.00  0.00    +0.000 C 
ATOM     27  C   UNL     1      10.444  12.351  18.314  0.00  0.00    +0.000 A 
ATOM     28  C   UNL     1      11.006  12.969  17.062  0.00  0.00    +0.000 C 
ATOM     29  C   UNL     1      10.041  10.998  18.270  0.00  0.00    +0.000 A 
ENDBRANCH  20  22
ENDBRANCH  17  18
ENDBRANCH  16  17
ENDBRANCH   1  16
TORSDOF 7
ENDMDL
MODEL 2
REMARK VINA RESULT:      -8.7      1.147      1.156
REMARK  Name = 
REMARK  10 active torsions:
REMARK  status: ('A' for Active; 'I' for Inactive)
REMARK    1  A    between atoms: C_1  and  O_2
REMARK    2  A    between atoms: O_2  and  C_3
REMARK    3  A    between atoms: N_5  and  C_6
REMARK    4  A    between atoms: C_13  and  C_14
REMARK    5  A    between atoms: C_14  and  O_16
REMARK    6  A    between atoms: O_16  and  C_17
REMARK    7  A    between atoms: C_17  and  C_18
REMARK    8  A    between atoms: N_20  and  C_21
REMARK    9  A    between atoms: C_24  and  C_25
REMARK   10  A    between atoms: C_26  and  C_27
REMARK                            x       y       z     vdW  Elec       q    Type
REMARK                         _______ _______ _______ _____ _____    ______ ____
ROOT
ATOM      1  C   UNL     1       6.779   6.243  16.821  0.00  0.00    +0.000 C 
ATOM      2  O   UNL     1       7.623   6.235  15.930  0.00  0.00    +0.000 OA
ENDROOT
BRANCH   1   7
ATOM      3  C   UNL     1       5.507   4.073  16.210  0.00  0.00    +0.000 A 
ATOM      4  C   UNL     1       4.418   3.460  16.773  0.00  0.00    +0.000 A 
ATOM      5  N   UNL     1       3.970   4.283  17.777  0.00  0.00    +0.000 N 
ATOM      6  N   UNL     1       4.734   5.397  17.889  0.00  0.00    +0.000 NA
ATOM      7  C   UNL     1       5.692   5.268  16.943  0.00  0.00    +0.000 A 
BRANCH   5   8
ATOM      8  C   UNL     1       2.872   4.058  18.654  0.00  0.00    +0.000 A 
ATOM      9  C   UNL     1       2.633   4.915  19.739  0.00  0.00    +0.000 A 
ATOM     10  C   UNL     1       1.549   4.685  20.586  0.00  0.00    +0.000 A 
ATOM     11  C   UNL     1       0.703   3.600  20.364  0.00  0.00    +0.000 A 
ATOM     12  C   UNL     1       0.936   2.743  19.290  0.00  0.00    +0.000 A 
ATOM     13  C   UNL     1       2.014   2.971  18.431  0.00  0.00    +0.000 A 
ENDBRANCH   5   8
BRANCH   3  15
ATOM     14  C   UNL     1       5.842   3.974  13.906  0.00  0.00    +0.000 C 
ATOM     15  O   UNL     1       6.288   3.613  15.209  0.00  0.00    +0.000 OA
ENDBRANCH   3  15
ENDBRANCH   1   7
BRANCH   1  16
ATOM     16  O   UNL     1       6.805   7.091  17.891  0.00  0.00    +0.000 OA
BRANCH  16  17
ATOM     17  C   UNL     1       8.109   7.414  18.360  0.00  0.00    +0.000 C 
BRANCH  17  18
ATOM     18  C   UNL     1       8.341   8.927  18.340  0.00  0.00    +0.000 C 
ATOM     19  O   UNL     1       7.688   9.639  17.581  0.00  0.00    +0.000 OA
ATOM     20  N   UNL     1       9.296   9.355  19.257  0.00  0.00    +0.000 N 
ATOM     21  H   UNL     1       9.817   8.627  19.746  0.00  0.00    +0.000 HD
BRANCH  20  22
ATOM     22  C   UNL     1       9.683  10.689  19.507  0.00  0.00    +0.000 A 
ATOM     23  C   UNL     1       9.505  11.309  20.739  0.00  0.00    +0.000 A 
ATOM     24  C   UNL     1       9.922  12.625  20.942  0.00  0.00    +0.000 A 
ATOM     25  C   UNL     1      10.521  13.362  19.912  0.00  0.00    +0.000 A 
ATOM     26  C   UNL     1      10.967  14.767  20.208  0.00  0.00    +0.000 C 
ATOM     27  C   UNL     1      10.690  12.758  18.652  0.00  0.00    +0.000 A 
ATOM     28  C   UNL     1      11.259  13.497  17.470  0.00  0.00    +0.000 C 
ATOM     29  C   UNL     1      10.289  11.415  18.471  0.00  0.00    +0.000 A 
ENDBRANCH  20  22
ENDBRANCH  17  18
ENDBRANCH  16  17
ENDBRANCH   1  16
TORSDOF 7
ENDMDL
MODEL 3
REMARK VINA RESULT:      -8.2      4.615      7.583
REMARK  Name = 
REMARK  10 active torsions:
REMARK  status: ('A' for Active; 'I' for Inactive)
REMARK    1  A    between atoms: C_1  and  O_2
REMARK    2  A    between atoms: O_2  and  C_3
REMARK    3  A    between atoms: N_5  and  C_6
REMARK    4  A    between atoms: C_13  and  C_14
REMARK    5  A    between atoms: C_14  and  O_16
REMARK    6  A    between atoms: O_16  and  C_17
REMARK    7  A    between atoms: C_17  and  C_18
REMARK    8  A    between atoms: N_20  and  C_21
REMARK    9  A    between atoms: C_24  and  C_25
REMARK   10  A    between atoms: C_26  and  C_27
REMARK                            x       y       z     vdW  Elec       q    Type
REMARK                         _______ _______ _______ _____ _____    ______ ____
ROOT
ATOM      1  C   UNL     1       3.660   3.001  18.319  0.00  0.00    +0.000 C 
ATOM      2  O   UNL     1       2.569   2.652  17.879  0.00  0.00    +0.000 OA
ENDROOT
BRANCH   1   7
ATOM      3  C   UNL     1       5.715   4.545  18.017  0.00  0.00    +0.000 A 
ATOM      4  C   UNL     1       6.471   4.859  16.918  0.00  0.00    +0.000 A 
ATOM      5  N   UNL     1       5.884   4.246  15.839  0.00  0.00    +0.000 N 
ATOM      6  N   UNL     1       4.785   3.540  16.202  0.00  0.00    +0.000 NA
ATOM      7  C   UNL     1       4.684   3.704  17.541  0.00  0.00    +0.000 A 
BRANCH   5   8
ATOM      8  C   UNL     1       6.324   4.269  14.486  0.00  0.00    +0.000 A 
ATOM      9  C   UNL     1       5.718   3.451  13.520  0.00  0.00    +0.000 A 
ATOM     10  C   UNL     1       6.156   3.491  12.196  0.00  0.00    +0.000 A 
ATOM     11  C   UNL     1       7.201   4.335  11.828  0.00  0.00    +0.000 A 
ATOM     12  C   UNL     1       7.810   5.148  12.783  0.00  0.00    +0.000 A 
ATOM     13  C   UNL     1       7.372   5.122  14.109  0.00  0.00    +0.000 A 
ENDBRANCH   5   8
BRANCH   3  15
ATOM     14  C   UNL     1       7.147   5.619  19.510  0.00  0.00    +0.000 C 
ATOM     15  O   UNL     1       5.934   4.904  19.300  0.00  0.00    +0.000 OA
ENDBRANCH   3  15
ENDBRANCH   1   7
BRANCH   1  16
ATOM     16  O   UNL     1       4.026   2.890  19.631  0.00  0.00    +0.000 OA
BRANCH  16  17
ATOM     17  C   UNL     1       2.963   3.062  20.560  0.00  0.00    +0.000 C 
BRANCH  17  18
ATOM     18  C   UNL     1       2.123   4.295  20.213  0.00  0.00    +0.000 C 
ATOM     19  O   UNL     1       0.898   4.215  20.186  0.00  0.00    +0.000 OA
ATOM     20  N   UNL     1       2.883   5.438  19.985  0.00  0.00    +0.000 N 
ATOM     21  H   UNL     1       3.895   5.314  19.950  0.00  0.00    +0.000 HD
BRANCH  20  22
ATOM     22  C   UNL     1       2.392   6.730  19.700  0.00  0.00    +0.000 A 
ATOM     23  C   UNL     1       2.552   7.342  18.461  0.00  0.00    +0.000 A 
ATOM     24  C   UNL     1       2.031   8.614  18.222  0.00  0.00    +0.000 A 
ATOM     25  C   UNL     1       1.345   9.315  19.221  0.00  0.00    +0.000 A 
ATOM     26  C   UNL     1       0.791  10.673  18.886  0.00  0.00    +0.000 C 
ATOM     27  C   UNL     1       1.192   8.722  20.488  0.00  0.00    +0.000 A 
ATOM     28  C   UNL     1       0.531   9.429  21.640  0.00  0.00    +0.000 C 
ATOM     29  C   UNL     1       1.700   7.421  20.705  0.00  0.00    +0.000 A 
ENDBRANCH  20  22
ENDBRANCH  17  18
ENDBRANCH  16  17
ENDBRANCH   1  16
TORSDOF 7
ENDMDL
MODEL 4
REMARK VINA RESULT:      -8.1      4.474      7.809
REMARK  Name = 
REMARK  10 active torsions:
REMARK  status: ('A' for Active; 'I' for Inactive)
REMARK    1  A    between atoms: C_1  and  O_2
REMARK    2  A    between atoms: O_2  and  C_3
REMARK    3  A    between atoms: N_5  and  C_6
REMARK    4  A    between atoms: C_13  and  C_14
REMARK    5  A    between atoms: C_14  and  O_16
REMARK    6  A    between atoms: O_16  and  C_17
REMARK    7  A    between atoms: C_17  and  C_18
REMARK    8  A    between atoms: N_20  and  C_21
REMARK    9  A    between atoms: C_24  and  C_25
REMARK   10  A    between atoms: C_26  and  C_27
REMARK                            x       y       z     vdW  Elec       q    Type
REMARK                         _______ _______ _______ _____ _____    ______ ____
ROOT
ATOM      1  C   UNL     1       3.984   3.828  18.359  0.00  0.00    +0.000 C 
ATOM      2  O   UNL     1       3.633   2.677  18.597  0.00  0.00    +0.000 OA
ENDROOT
BRANCH   1   7
ATOM      3  C   UNL     1       6.424   4.578  17.925  0.00  0.00    +0.000 A 
ATOM      4  C   UNL     1       7.154   4.695  16.771  0.00  0.00    +0.000 A 
ATOM      5  N   UNL     1       6.305   4.415  15.729  0.00  0.00    +0.000 N 
ATOM      6  N   UNL     1       5.059   4.111  16.168  0.00  0.00    +0.000 NA
ATOM      7  C   UNL     1       5.127   4.190  17.515  0.00  0.00    +0.000 A 
BRANCH   5   8
ATOM      8  C   UNL     1       6.618   4.392  14.341  0.00  0.00    +0.000 A 
ATOM      9  C   UNL     1       7.558   5.282  13.802  0.00  0.00    +0.000 A 
ATOM     10  C   UNL     1       7.859   5.243  12.440  0.00  0.00    +0.000 A 
ATOM     11  C   UNL     1       7.221   4.325  11.608  0.00  0.00    +0.000 A 
ATOM     12  C   UNL     1       6.284   3.440  12.136  0.00  0.00    +0.000 A 
ATOM     13  C   UNL     1       5.983   3.466  13.500  0.00  0.00    +0.000 A 
ENDBRANCH   5   8
BRANCH   3  15
ATOM     14  C   UNL     1       7.847   5.740  19.358  0.00  0.00    +0.000 C 
ATOM     15  O   UNL     1       6.855   4.733  19.195  0.00  0.00    +0.000 OA
ENDBRANCH   3  15
ENDBRANCH   1   7
BRANCH   1  16
ATOM     16  O   UNL     1       3.287   4.937  18.749  0.00  0.00    +0.000 OA
BRANCH  16  17
ATOM     17  C   UNL     1       3.085   5.047  20.153  0.00  0.00    +0.000 C 
BRANCH  17  18
ATOM     18  C   UNL     1       1.898   5.961  20.467  0.00  0.00    +0.000 C 
ATOM     19  O   UNL     1       0.798   5.475  20.720  0.00  0.00    +0.000 OA
ATOM     20  N   UNL     1       2.223   7.314  20.463  0.00  0.00    +0.000 N 
ATOM     21  H   UNL     1       3.158   7.558  20.139  0.00  0.00    +0.000 HD
BRANCH  20  22
ATOM     22  C   UNL     1       1.358   8.387  20.767  0.00  0.00    +0.000 A 
ATOM     23  C   UNL     1       1.014   8.733  22.070  0.00  0.00    +0.000 A 
ATOM     24  C   UNL     1       0.170   9.815  22.321  0.00  0.00    +0.000 A 
ATOM     25  C   UNL     1      -0.364  10.576  21.272  0.00  0.00    +0.000 A 
ATOM     26  C   UNL     1      -1.249  11.742  21.617  0.00  0.00    +0.000 C 
ATOM     27  C   UNL     1      -0.045  10.227  19.947  0.00  0.00    +0.000 A 
ATOM     28  C   UNL     1      -0.627  10.944  18.758  0.00  0.00    +0.000 C 
ATOM     29  C   UNL     1       0.835   9.147  19.711  0.00  0.00    +0.000 A 
ENDBRANCH  20  22
ENDBRANCH  17  18
ENDBRANCH  16  17
ENDBRANCH   1  16
TORSDOF 7
ENDMDL
MODEL 5
REMARK VINA RESULT:      -8.1      1.256      1.881
REMARK  Name = 
REMARK  10 active torsions:
REMARK  status: ('A' for Active; 'I' for Inactive)
REMARK    1  A    between atoms: C_1  and  O_2
REMARK    2  A    between atoms: O_2  and  C_3
REMARK    3  A    between atoms: N_5  and  C_6
REMARK    4  A    between atoms: C_13  and  C_14
REMARK    5  A    between atoms: C_14  and  O_16
REMARK    6  A    between atoms: O_16  and  C_17
REMARK    7  A    between atoms: C_17  and  C_18
REMARK    8  A    between atoms: N_20  and  C_21
REMARK    9  A    between atoms: C_24  and  C_25
REMARK   10  A    between atoms: C_26  and  C_27
REMARK                            x       y       z     vdW  Elec       q    Type
REMARK                         _______ _______ _______ _____ _____    ______ ____
ROOT
ATOM      1  C   UNL     1       7.524   5.728  18.664  0.00  0.00    +0.000 C 
ATOM      2  O   UNL     1       8.214   5.218  19.542  0.00  0.00    +0.000 OA
ENDROOT
BRANCH   1   7
ATOM      3  C   UNL     1       5.963   4.734  16.855  0.00  0.00    +0.000 A 
ATOM      4  C   UNL     1       4.709   4.187  16.927  0.00  0.00    +0.000 A 
ATOM      5  N   UNL     1       4.287   4.324  18.226  0.00  0.00    +0.000 N 
ATOM      6  N   UNL     1       5.225   4.927  18.996  0.00  0.00    +0.000 NA
ATOM      7  C   UNL     1       6.265   5.167  18.166  0.00  0.00    +0.000 A 
BRANCH   5   8
ATOM      8  C   UNL     1       3.053   3.887  18.785  0.00  0.00    +0.000 A 
ATOM      9  C   UNL     1       2.445   2.702  18.346  0.00  0.00    +0.000 A 
ATOM     10  C   UNL     1       1.238   2.285  18.908  0.00  0.00    +0.000 A 
ATOM     11  C   UNL     1       0.628   3.045  19.903  0.00  0.00    +0.000 A 
ATOM     12  C   UNL     1       1.225   4.225  20.343  0.00  0.00    +0.000 A 
ATOM     13  C   UNL     1       2.438   4.647  19.792  0.00  0.00    +0.000 A 
ENDBRANCH   5   8
BRANCH   3  15
ATOM     14  C   UNL     1       6.356   3.996  14.679  0.00  0.00    +0.000 C 
ATOM     15  O   UNL     1       6.777   4.796  15.779  0.00  0.00    +0.000 OA
ENDBRANCH   3  15
ENDBRANCH   1   7
BRANCH   1  16
ATOM     16  O   UNL     1       7.771   6.953  18.113  0.00  0.00    +0.000 OA
BRANCH  16  17
ATOM     17  C   UNL     1       8.510   7.840  18.945  0.00  0.00    +0.000 C 
BRANCH  17  18
ATOM     18  C   UNL     1       8.546   9.250  18.349  0.00  0.00    +0.000 C 
ATOM     19  O   UNL     1       7.740   9.571  17.480  0.00  0.00    +0.000 OA
ATOM     20  N   UNL     1       9.522  10.066  18.914  0.00  0.00    +0.000 N 
ATOM     21  H   UNL     1      10.174   9.619  19.557  0.00  0.00    +0.000 HD
BRANCH  20  22
ATOM     22  C   UNL     1       9.760  11.424  18.611  0.00  0.00    +0.000 A 
ATOM     23  C   UNL     1      10.619  11.831  17.595  0.00  0.00    +0.000 A 
ATOM     24  C   UNL     1      10.806  13.186  17.321  0.00  0.00    +0.000 A 
ATOM     25  C   UNL     1      10.148  14.174  18.065  0.00  0.00    +0.000 A 
ATOM     26  C   UNL     1      10.380  15.614  17.700  0.00  0.00    +0.000 C 
ATOM     27  C   UNL     1       9.293  13.781  19.112  0.00  0.00    +0.000 A 
ATOM     28  C   UNL     1       8.600  14.773  20.008  0.00  0.00    +0.000 C 
ATOM     29  C   UNL     1       9.091  12.404  19.357  0.00  0.00    +0.000 A 
ENDBRANCH  20  22
ENDBRANCH  17  18
ENDBRANCH  16  17
ENDBRANCH   1  16
TORSDOF 7
ENDMDL
MODEL 6
REMARK VINA RESULT:      -8.1      4.520      7.647
REMARK  Name = 
REMARK  10 active torsions:
REMARK  status: ('A' for Active; 'I' for Inactive)
REMARK    1  A    between atoms: C_1  and  O_2
REMARK    2  A    between atoms: O_2  and  C_3
REMARK    3  A    between atoms: N_5  and  C_6
REMARK    4  A    between atoms: C_13  and  C_14
REMARK    5  A    between atoms: C_14  and  O_16
REMARK    6  A    between atoms: O_16  and  C_17
REMARK    7  A    between atoms: C_17  and  C_18
REMARK    8  A    between atoms: N_20  and  C_21
REMARK    9  A    between atoms: C_24  and  C_25
REMARK   10  A    between atoms: C_26  and  C_27
REMARK                            x       y       z     vdW  Elec       q    Type
REMARK                         _______ _______ _______ _____ _____    ______ ____
ROOT
ATOM      1  C   UNL     1       3.960   3.514  18.339  0.00  0.00    +0.000 C 
ATOM      2  O   UNL     1       3.005   2.850  17.946  0.00  0.00    +0.000 OA
ENDROOT
BRANCH   1   7
ATOM      3  C   UNL     1       5.874   5.175  17.812  0.00  0.00    +0.000 A 
ATOM      4  C   UNL     1       6.592   5.412  16.670  0.00  0.00    +0.000 A 
ATOM      5  N   UNL     1       6.050   4.623  15.685  0.00  0.00    +0.000 N 
ATOM      6  N   UNL     1       5.018   3.879  16.152  0.00  0.00    +0.000 NA
ATOM      7  C   UNL     1       4.914   4.198  17.462  0.00  0.00    +0.000 A 
BRANCH   5   8
ATOM      8  C   UNL     1       6.476   4.515  14.331  0.00  0.00    +0.000 A 
ATOM      9  C   UNL     1       7.497   5.337  13.832  0.00  0.00    +0.000 A 
ATOM     10  C   UNL     1       7.907   5.214  12.504  0.00  0.00    +0.000 A 
ATOM     11  C   UNL     1       7.301   4.281  11.666  0.00  0.00    +0.000 A 
ATOM     12  C   UNL     1       6.284   3.463  12.154  0.00  0.00    +0.000 A 
ATOM     13  C   UNL     1       5.872   3.572  13.485  0.00  0.00    +0.000 A 
ENDBRANCH   5   8
BRANCH   3  15
ATOM     14  C   UNL     1       7.412   5.614  19.507  0.00  0.00    +0.000 C 
ATOM     15  O   UNL     1       6.071   5.707  19.037  0.00  0.00    +0.000 OA
ENDBRANCH   3  15
ENDBRANCH   1   7
BRANCH   1  16
ATOM     16  O   UNL     1       4.197   3.808  19.652  0.00  0.00    +0.000 OA
BRANCH  16  17
ATOM     17  C   UNL     1       3.061   3.695  20.500  0.00  0.00    +0.000 C 
BRANCH  17  18
ATOM     18  C   UNL     1       2.087   4.855  20.272  0.00  0.00    +0.000 C 
ATOM     19  O   UNL     1       0.876   4.648  20.266  0.00  0.00    +0.000 OA
ATOM     20  N   UNL     1       2.717   6.087  20.120  0.00  0.00    +0.000 N 
ATOM     21  H   UNL     1       3.734   6.074  20.053  0.00  0.00    +0.000 HD
BRANCH  20  22
ATOM     22  C   UNL     1       2.086   7.338  19.951  0.00  0.00    +0.000 A 
ATOM     23  C   UNL     1       2.142   8.056  18.761  0.00  0.00    +0.000 A 
ATOM     24  C   UNL     1       1.484   9.281  18.637  0.00  0.00    +0.000 A 
ATOM     25  C   UNL     1       0.761   9.827  19.705  0.00  0.00    +0.000 A 
ATOM     26  C   UNL     1       0.059  11.140  19.493  0.00  0.00    +0.000 C 
ATOM     27  C   UNL     1       0.712   9.125  20.924  0.00  0.00    +0.000 A 
ATOM     28  C   UNL     1       0.018   9.668  22.145  0.00  0.00    +0.000 C 
ATOM     29  C   UNL     1       1.358   7.872  21.024  0.00  0.00    +0.000 A 
ENDBRANCH  20  22
ENDBRANCH  17  18
ENDBRANCH  16  17
ENDBRANCH   1  16
TORSDOF 7
ENDMDL
MODEL 7
REMARK VINA RESULT:      -8.1      0.945      1.225
REMARK  Name = 
REMARK  10 active torsions:
REMARK  status: ('A' for Active; 'I' for Inactive)
REMARK    1  A    between atoms: C_1  and  O_2
REMARK    2  A    between atoms: O_2  and  C_3
REMARK    3  A    between atoms: N_5  and  C_6
REMARK    4  A    between atoms: C_13  and  C_14
REMARK    5  A    between atoms: C_14  and  O_16
REMARK    6  A    between atoms: O_16  and  C_17
REMARK    7  A    between atoms: C_17  and  C_18
REMARK    8  A    between atoms: N_20  and  C_21
REMARK    9  A    between atoms: C_24  and  C_25
REMARK   10  A    between atoms: C_26  and  C_27
REMARK                            x       y       z     vdW  Elec       q    Type
REMARK                         _______ _______ _______ _____ _____    ______ ____
ROOT
ATOM      1  C   UNL     1       5.867   6.649  16.648  0.00  0.00    +0.000 C 
ATOM      2  O   UNL     1       5.280   7.569  16.085  0.00  0.00    +0.000 OA
ENDROOT
BRANCH   1   7
ATOM      3  C   UNL     1       5.508   4.086  16.627  0.00  0.00    +0.000 A 
ATOM      4  C   UNL     1       4.741   3.263  17.409  0.00  0.00    +0.000 A 
ATOM      5  N   UNL     1       4.028   4.069  18.261  0.00  0.00    +0.000 N 
ATOM      6  N   UNL     1       4.313   5.380  18.065  0.00  0.00    +0.000 NA
ATOM      7  C   UNL     1       5.234   5.399  17.076  0.00  0.00    +0.000 A 
BRANCH   5   8
ATOM      8  C   UNL     1       3.110   3.663  19.271  0.00  0.00    +0.000 A 
ATOM      9  C   UNL     1       3.551   2.963  20.403  0.00  0.00    +0.000 A 
ATOM     10  C   UNL     1       2.640   2.578  21.387  0.00  0.00    +0.000 A 
ATOM     11  C   UNL     1       1.288   2.881  21.247  0.00  0.00    +0.000 A 
ATOM     12  C   UNL     1       0.841   3.574  20.123  0.00  0.00    +0.000 A 
ATOM     13  C   UNL     1       1.748   3.972  19.137  0.00  0.00    +0.000 A 
ENDBRANCH   5   8
BRANCH   3  15
ATOM     14  C   UNL     1       5.858   3.734  14.350  0.00  0.00    +0.000 C 
ATOM     15  O   UNL     1       6.391   3.730  15.670  0.00  0.00    +0.000 OA
ENDBRANCH   3  15
ENDBRANCH   1   7
BRANCH   1  16
ATOM     16  O   UNL     1       7.218   6.613  16.846  0.00  0.00    +0.000 OA
BRANCH  16  17
ATOM     17  C   UNL     1       7.645   7.084  18.118  0.00  0.00    +0.000 C 
BRANCH  17  18
ATOM     18  C   UNL     1       8.140   8.530  18.031  0.00  0.00    +0.000 C 
ATOM     19  O   UNL     1       7.842   9.224  17.062  0.00  0.00    +0.000 OA
ATOM     20  N   UNL     1       8.887   8.929  19.136  0.00  0.00    +0.000 N 
ATOM     21  H   UNL     1       9.126   8.203  19.811  0.00  0.00    +0.000 HD
BRANCH  20  22
ATOM     22  C   UNL     1       9.429  10.212  19.365  0.00  0.00    +0.000 A 
ATOM     23  C   UNL     1       9.428  10.818  20.617  0.00  0.00    +0.000 A 
ATOM     24  C   UNL     1       9.993  12.081  20.797  0.00  0.00    +0.000 A 
ATOM     25  C   UNL     1      10.566  12.778  19.725  0.00  0.00    +0.000 A 
ATOM     26  C   UNL     1      11.178  14.125  19.997  0.00  0.00    +0.000 C 
ATOM     27  C   UNL     1      10.557  12.189  18.447  0.00  0.00    +0.000 A 
ATOM     28  C   UNL     1      11.086  12.894  17.226  0.00  0.00    +0.000 C 
ATOM     29  C   UNL     1      10.006  10.897  18.287  0.00  0.00    +0.000 A 
ENDBRANCH  20  22
ENDBRANCH  17  18
ENDBRANCH  16  17
ENDBRANCH   1  16
TORSDOF 7
ENDMDL
MODEL 8
REMARK VINA RESULT:      -8.1      2.044      2.540
REMARK  Name = 
REMARK  10 active torsions:
REMARK  status: ('A' for Active; 'I' for Inactive)
REMARK    1  A    between atoms: C_1  and  O_2
REMARK    2  A    between atoms: O_2  and  C_3
REMARK    3  A    between atoms: N_5  and  C_6
REMARK    4  A    between atoms: C_13  and  C_14
REMARK    5  A    between atoms: C_14  and  O_16
REMARK    6  A    between atoms: O_16  and  C_17
REMARK    7  A    between atoms: C_17  and  C_18
REMARK    8  A    between atoms: N_20  and  C_21
REMARK    9  A    between atoms: C_24  and  C_25
REMARK   10  A    between atoms: C_26  and  C_27
REMARK                            x       y       z     vdW  Elec       q    Type
REMARK                         _______ _______ _______ _____ _____    ______ ____
ROOT
ATOM      1  C   UNL     1       5.112   6.888  16.272  0.00  0.00    +0.000 C 
ATOM      2  O   UNL     1       5.092   6.360  15.164  0.00  0.00    +0.000 OA
ENDROOT
BRANCH   1   7
ATOM      3  C   UNL     1       3.108   7.602  17.747  0.00  0.00    +0.000 A 
ATOM      4  C   UNL     1       2.331   6.906  18.635  0.00  0.00    +0.000 A 
ATOM      5  N   UNL     1       2.862   5.643  18.728  0.00  0.00    +0.000 N 
ATOM      6  N   UNL     1       3.944   5.495  17.926  0.00  0.00    +0.000 NA
ATOM      7  C   UNL     1       4.092   6.687  17.305  0.00  0.00    +0.000 A 
BRANCH   5   8
ATOM      8  C   UNL     1       2.382   4.559  19.516  0.00  0.00    +0.000 A 
ATOM      9  C   UNL     1       2.501   4.578  20.913  0.00  0.00    +0.000 A 
ATOM     10  C   UNL     1       2.020   3.511  21.671  0.00  0.00    +0.000 A 
ATOM     11  C   UNL     1       1.425   2.418  21.045  0.00  0.00    +0.000 A 
ATOM     12  C   UNL     1       1.305   2.390  19.657  0.00  0.00    +0.000 A 
ATOM     13  C   UNL     1       1.776   3.459  18.890  0.00  0.00    +0.000 A 
ENDBRANCH   5   8
BRANCH   3  15
ATOM     14  C   UNL     1       1.779   9.515  17.836  0.00  0.00    +0.000 C 
ATOM     15  O   UNL     1       2.942   8.873  17.323  0.00  0.00    +0.000 OA
ENDBRANCH   3  15
ENDBRANCH   1   7
BRANCH   1  16
ATOM     16  O   UNL     1       6.150   7.641  16.742  0.00  0.00    +0.000 OA
BRANCH  16  17
ATOM     17  C   UNL     1       7.248   6.890  17.246  0.00  0.00    +0.000 C 
BRANCH  17  18
ATOM     18  C   UNL     1       8.113   7.740  18.181  0.00  0.00    +0.000 C 
ATOM     19  O   UNL     1       8.717   7.210  19.110  0.00  0.00    +0.000 OA
ATOM     20  N   UNL     1       8.146   9.087  17.834  0.00  0.00    +0.000 N 
ATOM     21  H   UNL     1       7.512   9.384  17.093  0.00  0.00    +0.000 HD
BRANCH  20  22
ATOM     22  C   UNL     1       8.895  10.100  18.471  0.00  0.00    +0.000 A 
ATOM     23  C   UNL     1       8.975  10.223  19.854  0.00  0.00    +0.000 A 
ATOM     24  C   UNL     1       9.745  11.231  20.436  0.00  0.00    +0.000 A 
ATOM     25  C   UNL     1      10.447  12.153  19.649  0.00  0.00    +0.000 A 
ATOM     26  C   UNL     1      11.275  13.198  20.344  0.00  0.00    +0.000 C 
ATOM     27  C   UNL     1      10.360  12.057  18.247  0.00  0.00    +0.000 A 
ATOM     28  C   UNL     1      11.024  13.045  17.325  0.00  0.00    +0.000 C 
ATOM     29  C   UNL     1       9.600  11.013  17.674  0.00  0.00    +0.000 A 
ENDBRANCH  20  22
ENDBRANCH  17  18
ENDBRANCH  16  17
ENDBRANCH   1  16
TORSDOF 7
ENDMDL
MODEL 9
REMARK VINA RESULT:      -7.9      4.526      7.746
REMARK  Name = 
REMARK  10 active torsions:
REMARK  status: ('A' for Active; 'I' for Inactive)
REMARK    1  A    between atoms: C_1  and  O_2
REMARK    2  A    between atoms: O_2  and  C_3
REMARK    3  A    between atoms: N_5  and  C_6
REMARK    4  A    between atoms: C_13  and  C_14
REMARK    5  A    between atoms: C_14  and  O_16
REMARK    6  A    between atoms: O_16  and  C_17
REMARK    7  A    between atoms: C_17  and  C_18
REMARK    8  A    between atoms: N_20  and  C_21
REMARK    9  A    between atoms: C_24  and  C_25
REMARK   10  A    between atoms: C_26  and  C_27
REMARK                            x       y       z     vdW  Elec       q    Type
REMARK                         _______ _______ _______ _____ _____    ______ ____
ROOT
ATOM      1  C   UNL     1       3.737   4.564  18.541  0.00  0.00    +0.000 C 
ATOM      2  O   UNL     1       3.149   3.500  18.715  0.00  0.00    +0.000 OA
ENDROOT
BRANCH   1   7
ATOM      3  C   UNL     1       6.245   5.012  18.082  0.00  0.00    +0.000 A 
ATOM      4  C   UNL     1       6.990   4.954  16.934  0.00  0.00    +0.000 A 
ATOM      5  N   UNL     1       6.122   4.679  15.906  0.00  0.00    +0.000 N 
ATOM      6  N   UNL     1       4.848   4.546  16.350  0.00  0.00    +0.000 NA
ATOM      7  C   UNL     1       4.916   4.731  17.687  0.00  0.00    +0.000 A 
BRANCH   5   8
ATOM      8  C   UNL     1       6.438   4.507  14.529  0.00  0.00    +0.000 A 
ATOM      9  C   UNL     1       5.692   3.632  13.725  0.00  0.00    +0.000 A 
ATOM     10  C   UNL     1       6.011   3.480  12.375  0.00  0.00    +0.000 A 
ATOM     11  C   UNL     1       7.074   4.189  11.821  0.00  0.00    +0.000 A 
ATOM     12  C   UNL     1       7.822   5.058  12.615  0.00  0.00    +0.000 A 
ATOM     13  C   UNL     1       7.504   5.223  13.965  0.00  0.00    +0.000 A 
ENDBRANCH   5   8
BRANCH   3  15
ATOM     14  C   UNL     1       8.007   5.741  19.421  0.00  0.00    +0.000 C 
ATOM     15  O   UNL     1       6.683   5.226  19.341  0.00  0.00    +0.000 OA
ENDBRANCH   3  15
ENDBRANCH   1   7
BRANCH   1  16
ATOM     16  O   UNL     1       3.303   5.765  19.024  0.00  0.00    +0.000 OA
BRANCH  16  17
ATOM     17  C   UNL     1       3.184   6.790  18.045  0.00  0.00    +0.000 C 
BRANCH  17  18
ATOM     18  C   UNL     1       2.369   7.971  18.581  0.00  0.00    +0.000 C 
ATOM     19  O   UNL     1       2.101   8.916  17.844  0.00  0.00    +0.000 OA
ATOM     20  N   UNL     1       1.975   7.817  19.906  0.00  0.00    +0.000 N 
ATOM     21  H   UNL     1       2.361   7.018  20.408  0.00  0.00    +0.000 HD
BRANCH  20  22
ATOM     22  C   UNL     1       1.174   8.708  20.653  0.00  0.00    +0.000 A 
ATOM     23  C   UNL     1       1.162   8.727  22.044  0.00  0.00    +0.000 A 
ATOM     24  C   UNL     1       0.366   9.640  22.737  0.00  0.00    +0.000 A 
ATOM     25  C   UNL     1      -0.450  10.553  22.056  0.00  0.00    +0.000 A 
ATOM     26  C   UNL     1      -1.263  11.524  22.868  0.00  0.00    +0.000 C 
ATOM     27  C   UNL     1      -0.468  10.534  20.649  0.00  0.00    +0.000 A 
ATOM     28  C   UNL     1      -1.365  11.429  19.838  0.00  0.00    +0.000 C 
ATOM     29  C   UNL     1       0.366   9.622  19.962  0.00  0.00    +0.000 A 
ENDBRANCH  20  22
ENDBRANCH  17  18
ENDBRANCH  16  17
ENDBRANCH   1  16
TORSDOF 7
ENDMDL
