MODEL 1
REMARK VINA RESULT:      -7.9      0.000      0.000
REMARK  Name = 
REMARK  8 active torsions:
REMARK  status: ('A' for Active; 'I' for Inactive)
REMARK    1  A    between atoms: C_1  and  O_2
REMARK    2  A    between atoms: O_2  and  C_3
REMARK    3  A    between atoms: C_3  and  C_4
REMARK    4  A    between atoms: N_6  and  C_7
REMARK    5  A    between atoms: C_7  and  C_8
REMARK    6  A    between atoms: C_8  and  N_9
REMARK    7  A    between atoms: C_10  and  C_11
REMARK    8  A    between atoms: C_20  and  C_21
REMARK                            x       y       z     vdW  Elec       q    Type
REMARK                         _______ _______ _______ _____ _____    ______ ____
ROOT
ATOM      1  N   UNL     1       4.041   5.754  18.276  0.00  0.00    +0.000 N 
ATOM      2  C   UNL     1       3.979   6.744  17.309  0.00  0.00    +0.000 C 
ATOM      3  C   UNL     1       4.804   6.650  16.031  0.00  0.00    +0.000 C 
ATOM      4  N   UNL     1       3.230   7.799  17.363  0.00  0.00    +0.000 NA
ATOM      5  C   UNL     1       2.447   8.026  18.495  0.00  0.00    +0.000 A 
ATOM      6  C   UNL     1       1.634   9.162  18.521  0.00  0.00    +0.000 A 
ATOM      7  C   UNL     1       0.831   9.445  19.627  0.00  0.00    +0.000 A 
ATOM      8  C   UNL     1       0.855   8.592  20.726  0.00  0.00    +0.000 A 
ATOM      9 CL   UNL     1      -0.140   8.921  22.089  0.00  0.00    +0.000 Cl
ATOM     10  C   UNL     1       1.663   7.458  20.715  0.00  0.00    +0.000 A 
ATOM     11  C   UNL     1       2.450   7.156  19.585  0.00  0.00    +0.000 A 
ATOM     12  C   UNL     1       3.227   5.863  19.498  0.00  0.00    +0.000 C 
ENDROOT
BRANCH  12  13
ATOM     13  C   UNL     1       2.290   4.659  19.594  0.00  0.00    +0.000 A 
ATOM     14  C   UNL     1       1.598   4.206  18.454  0.00  0.00    +0.000 A 
ATOM     15  C   UNL     1       0.744   3.110  18.533  0.00  0.00    +0.000 A 
ATOM     16  C   UNL     1       0.577   2.447  19.745  0.00  0.00    +0.000 A 
ATOM     17  C   UNL     1       1.259   2.879  20.882  0.00  0.00    +0.000 A 
ATOM     18  C   UNL     1       2.110   3.983  20.811  0.00  0.00    +0.000 A 
ENDBRANCH  12  13
BRANCH   1  19
ATOM     19  C   UNL     1       4.942   4.597  18.198  0.00  0.00    +0.000 C 
BRANCH  19  20
ATOM     20  C   UNL     1       6.050   4.643  19.266  0.00  0.00    +0.000 C 
BRANCH  20  23
ATOM     21  C   UNL     1       7.641   6.255  18.290  0.00  0.00    +0.000 C 
ATOM     22  O   UNL     1       7.804   5.597  17.268  0.00  0.00    +0.000 OA
ATOM     23  N   UNL     1       6.755   5.909  19.287  0.00  0.00    +0.000 N 
ATOM     24  H   UNL     1       6.790   6.442  20.151  0.00  0.00    +0.000 HD
BRANCH  21  25
ATOM     25  C   UNL     1       8.398   7.552  18.572  0.00  0.00    +0.000 C 
BRANCH  25  27
ATOM     26  C   UNL     1       8.542   9.874  18.169  0.00  0.00    +0.000 C 
ATOM     27  O   UNL     1       7.999   8.631  17.730  0.00  0.00    +0.000 OA
ENDBRANCH  25  27
ENDBRANCH  21  25
ENDBRANCH  20  23
ENDBRANCH  19  20
ENDBRANCH   1  19
TORSDOF 6
ENDMDL
MODEL 2
REMARK VINA RESULT:      -7.8      2.836      5.267
REMARK  Name = 
REMARK  8 active torsions:
REMARK  status: ('A' for Active; 'I' for Inactive)
REMARK    1  A    between atoms: C_1  and  O_2
REMARK    2  A    between atoms: O_2  and  C_3
REMARK    3  A    between atoms: C_3  and  C_4
REMARK    4  A    between atoms: N_6  and  C_7
REMARK    5  A    between atoms: C_7  and  C_8
REMARK    6  A    between atoms: C_8  and  N_9
REMARK    7  A    between atoms: C_10  and  C_11
REMARK    8  A    between atoms: C_20  and  C_21
REMARK                            x       y       z     vdW  Elec       q    Type
REMARK                         _______ _______ _______ _____ _____    ______ ____
ROOT
ATOM      1  N   UNL     1       5.460   6.006  18.094  0.00  0.00    +0.000 N 
ATOM      2  C   UNL     1       6.226   5.194  18.915  0.00  0.00    +0.000 C 
ATOM      3  C   UNL     1       7.679   5.531  19.222  0.00  0.00    +0.000 C 
ATOM      4  N   UNL     1       5.807   4.123  19.510  0.00  0.00    +0.000 NA
ATOM      5  C   UNL     1       4.502   3.682  19.290  0.00  0.00    +0.000 A 
ATOM      6  C   UNL     1       4.070   2.533  19.958  0.00  0.00    +0.000 A 
ATOM      7  C   UNL     1       2.777   2.040  19.776  0.00  0.00    +0.000 A 
ATOM      8  C   UNL     1       1.913   2.693  18.902  0.00  0.00    +0.000 A 
ATOM      9 CL   UNL     1       0.313   2.106  18.678  0.00  0.00    +0.000 Cl
ATOM     10  C   UNL     1       2.332   3.837  18.227  0.00  0.00    +0.000 A 
ATOM     11  C   UNL     1       3.628   4.352  18.436  0.00  0.00    +0.000 A 
ATOM     12  C   UNL     1       4.055   5.664  17.820  0.00  0.00    +0.000 C 
ENDROOT
BRANCH  12  13
ATOM     13  C   UNL     1       3.153   6.804  18.292  0.00  0.00    +0.000 A 
ATOM     14  C   UNL     1       2.771   7.824  17.400  0.00  0.00    +0.000 A 
ATOM     15  C   UNL     1       1.948   8.864  17.822  0.00  0.00    +0.000 A 
ATOM     16  C   UNL     1       1.490   8.896  19.136  0.00  0.00    +0.000 A 
ATOM     17  C   UNL     1       1.855   7.891  20.032  0.00  0.00    +0.000 A 
ATOM     18  C   UNL     1       2.687   6.850  19.616  0.00  0.00    +0.000 A 
ENDBRANCH  12  13
BRANCH   1  19
ATOM     19  C   UNL     1       5.988   7.186  17.398  0.00  0.00    +0.000 C 
BRANCH  19  20
ATOM     20  C   UNL     1       6.792   6.814  16.138  0.00  0.00    +0.000 C 
BRANCH  20  23
ATOM     21  C   UNL     1       6.947   5.058  14.413  0.00  0.00    +0.000 C 
ATOM     22  O   UNL     1       8.047   5.430  14.018  0.00  0.00    +0.000 OA
ATOM     23  N   UNL     1       6.288   5.622  15.485  0.00  0.00    +0.000 N 
ATOM     24  H   UNL     1       5.328   5.337  15.648  0.00  0.00    +0.000 HD
BRANCH  21  25
ATOM     25  C   UNL     1       6.178   3.907  13.765  0.00  0.00    +0.000 C 
BRANCH  25  27
ATOM     26  C   UNL     1       5.729   2.674  11.803  0.00  0.00    +0.000 C 
ATOM     27  O   UNL     1       6.507   3.713  12.393  0.00  0.00    +0.000 OA
ENDBRANCH  25  27
ENDBRANCH  21  25
ENDBRANCH  20  23
ENDBRANCH  19  20
ENDBRANCH   1  19
TORSDOF 6
ENDMDL
MODEL 3
REMARK VINA RESULT:      -7.8      2.702      5.220
REMARK  Name = 
REMARK  8 active torsions:
REMARK  status: ('A' for Active; 'I' for Inactive)
REMARK    1  A    between atoms: C_1  and  O_2
REMARK    2  A    between atoms: O_2  and  C_3
REMARK    3  A    between atoms: C_3  and  C_4
REMARK    4  A    between atoms: N_6  and  C_7
REMARK    5  A    between atoms: C_7  and  C_8
REMARK    6  A    between atoms: C_8  and  N_9
REMARK    7  A    between atoms: C_10  and  C_11
REMARK    8  A    between atoms: C_20  and  C_21
REMARK                            x       y       z     vdW  Elec       q    Type
REMARK                         _______ _______ _______ _____ _____    ______ ____
ROOT
ATOM      1  N   UNL     1       5.412   6.134  18.181  0.00  0.00    +0.000 N 
ATOM      2  C   UNL     1       6.185   5.314  18.989  0.00  0.00    +0.000 C 
ATOM      3  C   UNL     1       7.629   5.669  19.318  0.00  0.00    +0.000 C 
ATOM      4  N   UNL     1       5.780   4.221  19.552  0.00  0.00    +0.000 NA
ATOM      5  C   UNL     1       4.485   3.762  19.308  0.00  0.00    +0.000 A 
ATOM      6  C   UNL     1       4.068   2.588  19.941  0.00  0.00    +0.000 A 
ATOM      7  C   UNL     1       2.786   2.078  19.734  0.00  0.00    +0.000 A 
ATOM      8  C   UNL     1       1.918   2.738  18.869  0.00  0.00    +0.000 A 
ATOM      9 CL   UNL     1       0.331   2.128  18.614  0.00  0.00    +0.000 Cl
ATOM     10  C   UNL     1       2.323   3.906  18.228  0.00  0.00    +0.000 A 
ATOM     11  C   UNL     1       3.607   4.439  18.463  0.00  0.00    +0.000 A 
ATOM     12  C   UNL     1       4.016   5.774  17.885  0.00  0.00    +0.000 C 
ENDROOT
BRANCH  12  13
ATOM     13  C   UNL     1       3.089   6.885  18.379  0.00  0.00    +0.000 A 
ATOM     14  C   UNL     1       2.613   6.876  19.704  0.00  0.00    +0.000 A 
ATOM     15  C   UNL     1       1.771   7.884  20.162  0.00  0.00    +0.000 A 
ATOM     16  C   UNL     1       1.400   8.919  19.308  0.00  0.00    +0.000 A 
ATOM     17  C   UNL     1       1.867   8.946  17.994  0.00  0.00    +0.000 A 
ATOM     18  C   UNL     1       2.705   7.933  17.527  0.00  0.00    +0.000 A 
ENDBRANCH  12  13
BRANCH   1  19
ATOM     19  C   UNL     1       5.925   7.341  17.522  0.00  0.00    +0.000 C 
BRANCH  19  20
ATOM     20  C   UNL     1       6.795   7.014  16.293  0.00  0.00    +0.000 C 
BRANCH  20  23
ATOM     21  C   UNL     1       6.734   4.830  15.151  0.00  0.00    +0.000 C 
ATOM     22  O   UNL     1       7.719   4.402  15.743  0.00  0.00    +0.000 OA
ATOM     23  N   UNL     1       6.166   6.061  15.401  0.00  0.00    +0.000 N 
ATOM     24  H   UNL     1       5.440   6.380  14.767  0.00  0.00    +0.000 HD
BRANCH  21  25
ATOM     25  C   UNL     1       6.008   4.035  14.066  0.00  0.00    +0.000 C 
BRANCH  25  27
ATOM     26  C   UNL     1       6.328   2.908  12.016  0.00  0.00    +0.000 C 
ATOM     27  O   UNL     1       6.696   4.028  12.818  0.00  0.00    +0.000 OA
ENDBRANCH  25  27
ENDBRANCH  21  25
ENDBRANCH  20  23
ENDBRANCH  19  20
ENDBRANCH   1  19
TORSDOF 6
ENDMDL
MODEL 4
REMARK VINA RESULT:      -7.7      0.620      1.132
REMARK  Name = 
REMARK  8 active torsions:
REMARK  status: ('A' for Active; 'I' for Inactive)
REMARK    1  A    between atoms: C_1  and  O_2
REMARK    2  A    between atoms: O_2  and  C_3
REMARK    3  A    between atoms: C_3  and  C_4
REMARK    4  A    between atoms: N_6  and  C_7
REMARK    5  A    between atoms: C_7  and  C_8
REMARK    6  A    between atoms: C_8  and  N_9
REMARK    7  A    between atoms: C_10  and  C_11
REMARK    8  A    between atoms: C_20  and  C_21
REMARK                            x       y       z     vdW  Elec       q    Type
REMARK                         _______ _______ _______ _____ _____    ______ ____
ROOT
ATOM      1  N   UNL     1       4.102   5.928  18.064  0.00  0.00    +0.000 N 
ATOM      2  C   UNL     1       3.941   6.876  17.065  0.00  0.00    +0.000 C 
ATOM      3  C   UNL     1       4.697   6.768  15.747  0.00  0.00    +0.000 C 
ATOM      4  N   UNL     1       3.148   7.897  17.123  0.00  0.00    +0.000 NA
ATOM      5  C   UNL     1       2.418   8.134  18.288  0.00  0.00    +0.000 A 
ATOM      6  C   UNL     1       1.556   9.233  18.318  0.00  0.00    +0.000 A 
ATOM      7  C   UNL     1       0.803   9.524  19.456  0.00  0.00    +0.000 A 
ATOM      8  C   UNL     1       0.927   8.717  20.583  0.00  0.00    +0.000 A 
ATOM      9 CL   UNL     1      -0.005   9.055  21.988  0.00  0.00    +0.000 Cl
ATOM     10  C   UNL     1       1.785   7.621  20.568  0.00  0.00    +0.000 A 
ATOM     11  C   UNL     1       2.522   7.309  19.407  0.00  0.00    +0.000 A 
ATOM     12  C   UNL     1       3.353   6.050  19.325  0.00  0.00    +0.000 C 
ENDROOT
BRANCH  12  13
ATOM     13  C   UNL     1       2.480   4.811  19.519  0.00  0.00    +0.000 A 
ATOM     14  C   UNL     1       2.420   4.174  20.773  0.00  0.00    +0.000 A 
ATOM     15  C   UNL     1       1.626   3.046  20.958  0.00  0.00    +0.000 A 
ATOM     16  C   UNL     1       0.875   2.545  19.898  0.00  0.00    +0.000 A 
ATOM     17  C   UNL     1       0.920   3.166  18.651  0.00  0.00    +0.000 A 
ATOM     18  C   UNL     1       1.721   4.292  18.458  0.00  0.00    +0.000 A 
ENDBRANCH  12  13
BRANCH   1  19
ATOM     19  C   UNL     1       5.051   4.811  17.977  0.00  0.00    +0.000 C 
BRANCH  19  20
ATOM     20  C   UNL     1       6.399   5.132  18.650  0.00  0.00    +0.000 C 
BRANCH  20  23
ATOM     21  C   UNL     1       7.513   7.027  17.532  0.00  0.00    +0.000 C 
ATOM     22  O   UNL     1       7.848   6.360  16.559  0.00  0.00    +0.000 OA
ATOM     23  N   UNL     1       6.745   6.537  18.567  0.00  0.00    +0.000 N 
ATOM     24  H   UNL     1       6.636   7.123  19.388  0.00  0.00    +0.000 HD
BRANCH  21  25
ATOM     25  C   UNL     1       7.901   8.495  17.706  0.00  0.00    +0.000 C 
BRANCH  25  27
ATOM     26  C   UNL     1       9.099  10.100  18.956  0.00  0.00    +0.000 C 
ATOM     27  O   UNL     1       8.777   8.719  18.807  0.00  0.00    +0.000 OA
ENDBRANCH  25  27
ENDBRANCH  21  25
ENDBRANCH  20  23
ENDBRANCH  19  20
ENDBRANCH   1  19
TORSDOF 6
ENDMDL
MODEL 5
REMARK VINA RESULT:      -7.6      3.120      5.541
REMARK  Name = 
REMARK  8 active torsions:
REMARK  status: ('A' for Active; 'I' for Inactive)
REMARK    1  A    between atoms: C_1  and  O_2
REMARK    2  A    between atoms: O_2  and  C_3
REMARK    3  A    between atoms: C_3  and  C_4
REMARK    4  A    between atoms: N_6  and  C_7
REMARK    5  A    between atoms: C_7  and  C_8
REMARK    6  A    between atoms: C_8  and  N_9
REMARK    7  A    between atoms: C_10  and  C_11
REMARK    8  A    between atoms: C_20  and  C_21
REMARK                            x       y       z     vdW  Elec       q    Type
REMARK                         _______ _______ _______ _____ _____    ______ ____
ROOT
ATOM      1  N   UNL     1       4.412   3.820  17.496  0.00  0.00    +0.000 N 
ATOM      2  C   UNL     1       3.691   2.971  18.320  0.00  0.00    +0.000 C 
ATOM      3  C   UNL     1       3.839   1.458  18.214  0.00  0.00    +0.000 C 
ATOM      4  N   UNL     1       2.870   3.346  19.247  0.00  0.00    +0.000 NA
ATOM      5  C   UNL     1       2.616   4.705  19.431  0.00  0.00    +0.000 A 
ATOM      6  C   UNL     1       1.739   5.085  20.450  0.00  0.00    +0.000 A 
ATOM      7  C   UNL     1       1.443   6.429  20.679  0.00  0.00    +0.000 A 
ATOM      8  C   UNL     1       2.016   7.404  19.868  0.00  0.00    +0.000 A 
ATOM      9 CL   UNL     1       1.671   9.064  20.148  0.00  0.00    +0.000 Cl
ATOM     10  C   UNL     1       2.889   7.040  18.846  0.00  0.00    +0.000 A 
ATOM     11  C   UNL     1       3.212   5.684  18.636  0.00  0.00    +0.000 A 
ATOM     12  C   UNL     1       4.259   5.279  17.623  0.00  0.00    +0.000 C 
ENDROOT
BRANCH  12  13
ATOM     13  C   UNL     1       5.611   5.904  17.962  0.00  0.00    +0.000 A 
ATOM     14  C   UNL     1       6.392   5.382  19.011  0.00  0.00    +0.000 A 
ATOM     15  C   UNL     1       7.625   5.945  19.325  0.00  0.00    +0.000 A 
ATOM     16  C   UNL     1       8.100   7.028  18.592  0.00  0.00    +0.000 A 
ATOM     17  C   UNL     1       7.342   7.554  17.546  0.00  0.00    +0.000 A 
ATOM     18  C   UNL     1       6.101   6.999  17.233  0.00  0.00    +0.000 A 
ENDBRANCH  12  13
BRANCH   1  19
ATOM     19  C   UNL     1       5.297   3.352  16.421  0.00  0.00    +0.000 C 
BRANCH  19  20
ATOM     20  C   UNL     1       5.255   4.270  15.185  0.00  0.00    +0.000 C 
BRANCH  20  23
ATOM     21  C   UNL     1       6.735   4.184  13.214  0.00  0.00    +0.000 C 
ATOM     22  O   UNL     1       7.356   5.192  13.536  0.00  0.00    +0.000 OA
ATOM     23  N   UNL     1       5.745   3.617  13.987  0.00  0.00    +0.000 N 
ATOM     24  H   UNL     1       5.199   2.867  13.574  0.00  0.00    +0.000 HD
BRANCH  21  25
ATOM     25  C   UNL     1       7.001   3.426  11.914  0.00  0.00    +0.000 C 
BRANCH  25  27
ATOM     26  C   UNL     1       6.517   1.245  11.149  0.00  0.00    +0.000 C 
ATOM     27  O   UNL     1       5.977   2.489  11.590  0.00  0.00    +0.000 OA
ENDBRANCH  25  27
ENDBRANCH  21  25
ENDBRANCH  20  23
ENDBRANCH  19  20
ENDBRANCH   1  19
TORSDOF 6
ENDMDL
MODEL 6
REMARK VINA RESULT:      -7.4      1.811      2.880
REMARK  Name = 
REMARK  8 active torsions:
REMARK  status: ('A' for Active; 'I' for Inactive)
REMARK    1  A    between atoms: C_1  and  O_2
REMARK    2  A    between atoms: O_2  and  C_3
REMARK    3  A    between atoms: C_3  and  C_4
REMARK    4  A    between atoms: N_6  and  C_7
REMARK    5  A    between atoms: C_7  and  C_8
REMARK    6  A    between atoms: C_8  and  N_9
REMARK    7  A    between atoms: C_10  and  C_11
REMARK    8  A    between atoms: C_20  and  C_21
REMARK                            x       y       z     vdW  Elec       q    Type
REMARK                         _______ _______ _______ _____ _____    ______ ____
ROOT
ATOM      1  N   UNL     1       4.099   6.155  18.457  0.00  0.00    +0.000 N 
ATOM      2  C   UNL     1       3.941   7.118  17.473  0.00  0.00    +0.000 C 
ATOM      3  C   UNL     1       4.795   7.105  16.212  0.00  0.00    +0.000 C 
ATOM      4  N   UNL     1       3.074   8.079  17.499  0.00  0.00    +0.000 NA
ATOM      5  C   UNL     1       2.248   8.228  18.613  0.00  0.00    +0.000 A 
ATOM      6  C   UNL     1       1.308   9.263  18.608  0.00  0.00    +0.000 A 
ATOM      7  C   UNL     1       0.457   9.465  19.696  0.00  0.00    +0.000 A 
ATOM      8  C   UNL     1       0.559   8.634  20.807  0.00  0.00    +0.000 A 
ATOM      9 CL   UNL     1      -0.493   8.863  22.148  0.00  0.00    +0.000 Cl
ATOM     10  C   UNL     1       1.493   7.602  20.828  0.00  0.00    +0.000 A 
ATOM     11  C   UNL     1       2.331   7.379  19.716  0.00  0.00    +0.000 A 
ATOM     12  C   UNL     1       3.255   6.184  19.662  0.00  0.00    +0.000 C 
ENDROOT
BRANCH  12  13
ATOM     13  C   UNL     1       2.463   4.881  19.760  0.00  0.00    +0.000 A 
ATOM     14  C   UNL     1       2.520   4.101  20.931  0.00  0.00    +0.000 A 
ATOM     15  C   UNL     1       1.800   2.915  21.028  0.00  0.00    +0.000 A 
ATOM     16  C   UNL     1       1.006   2.495  19.964  0.00  0.00    +0.000 A 
ATOM     17  C   UNL     1       0.934   3.259  18.799  0.00  0.00    +0.000 A 
ATOM     18  C   UNL     1       1.661   4.445  18.693  0.00  0.00    +0.000 A 
ENDBRANCH  12  13
BRANCH   1  19
ATOM     19  C   UNL     1       5.130   5.109  18.411  0.00  0.00    +0.000 C 
BRANCH  19  20
ATOM     20  C   UNL     1       4.707   3.905  17.549  0.00  0.00    +0.000 C 
BRANCH  20  23
ATOM     21  C   UNL     1       6.497   4.241  15.886  0.00  0.00    +0.000 C 
ATOM     22  O   UNL     1       7.389   4.252  16.729  0.00  0.00    +0.000 OA
ATOM     23  N   UNL     1       5.171   4.008  16.180  0.00  0.00    +0.000 N 
ATOM     24  H   UNL     1       4.494   4.155  15.437  0.00  0.00    +0.000 HD
BRANCH  21  25
ATOM     25  C   UNL     1       6.759   4.475  14.399  0.00  0.00    +0.000 C 
BRANCH  25  27
ATOM     26  C   UNL     1       6.327   3.429  12.327  0.00  0.00    +0.000 C 
ATOM     27  O   UNL     1       5.770   3.892  13.555  0.00  0.00    +0.000 OA
ENDBRANCH  25  27
ENDBRANCH  21  25
ENDBRANCH  20  23
ENDBRANCH  19  20
ENDBRANCH   1  19
TORSDOF 6
ENDMDL
MODEL 7
REMARK VINA RESULT:      -7.4      3.033      5.461
REMARK  Name = 
REMARK  8 active torsions:
REMARK  status: ('A' for Active; 'I' for Inactive)
REMARK    1  A    between atoms: C_1  and  O_2
REMARK    2  A    between atoms: O_2  and  C_3
REMARK    3  A    between atoms: C_3  and  C_4
REMARK    4  A    between atoms: N_6  and  C_7
REMARK    5  A    between atoms: C_7  and  C_8
REMARK    6  A    between atoms: C_8  and  N_9
REMARK    7  A    between atoms: C_10  and  C_11
REMARK    8  A    between atoms: C_20  and  C_21
REMARK                            x       y       z     vdW  Elec       q    Type
REMARK                         _______ _______ _______ _____ _____    ______ ____
ROOT
ATOM      1  N   UNL     1       4.394   3.776  17.570  0.00  0.00    +0.000 N 
ATOM      2  C   UNL     1       3.661   2.947  18.404  0.00  0.00    +0.000 C 
ATOM      3  C   UNL     1       3.792   1.432  18.322  0.00  0.00    +0.000 C 
ATOM      4  N   UNL     1       2.842   3.346  19.324  0.00  0.00    +0.000 NA
ATOM      5  C   UNL     1       2.603   4.710  19.486  0.00  0.00    +0.000 A 
ATOM      6  C   UNL     1       1.727   5.115  20.497  0.00  0.00    +0.000 A 
ATOM      7  C   UNL     1       1.445   6.466  20.705  0.00  0.00    +0.000 A 
ATOM      8  C   UNL     1       2.032   7.421  19.881  0.00  0.00    +0.000 A 
ATOM      9 CL   UNL     1       1.705   9.090  20.135  0.00  0.00    +0.000 Cl
ATOM     10  C   UNL     1       2.904   7.032  18.867  0.00  0.00    +0.000 A 
ATOM     11  C   UNL     1       3.212   5.670  18.678  0.00  0.00    +0.000 A 
ATOM     12  C   UNL     1       4.257   5.238  17.675  0.00  0.00    +0.000 C 
ENDROOT
BRANCH  12  13
ATOM     13  C   UNL     1       5.615   5.853  18.008  0.00  0.00    +0.000 A 
ATOM     14  C   UNL     1       6.116   6.925  17.245  0.00  0.00    +0.000 A 
ATOM     15  C   UNL     1       7.351   7.492  17.544  0.00  0.00    +0.000 A 
ATOM     16  C   UNL     1       8.099   7.003  18.612  0.00  0.00    +0.000 A 
ATOM     17  C   UNL     1       7.615   5.946  19.381  0.00  0.00    +0.000 A 
ATOM     18  C   UNL     1       6.381   5.368  19.081  0.00  0.00    +0.000 A 
ENDBRANCH  12  13
BRANCH   1  19
ATOM     19  C   UNL     1       5.276   3.282  16.505  0.00  0.00    +0.000 C 
BRANCH  19  20
ATOM     20  C   UNL     1       5.293   4.213  15.278  0.00  0.00    +0.000 C 
BRANCH  20  23
ATOM     21  C   UNL     1       6.515   3.973  13.149  0.00  0.00    +0.000 C 
ATOM     22  O   UNL     1       7.258   4.922  13.375  0.00  0.00    +0.000 OA
ATOM     23  N   UNL     1       5.576   3.507  14.044  0.00  0.00    +0.000 N 
ATOM     24  H   UNL     1       4.920   2.806  13.713  0.00  0.00    +0.000 HD
BRANCH  21  25
ATOM     25  C   UNL     1       6.555   3.181  11.842  0.00  0.00    +0.000 C 
BRANCH  25  27
ATOM     26  C   UNL     1       4.293   3.082  11.174  0.00  0.00    +0.000 C 
ATOM     27  O   UNL     1       5.416   2.347  11.655  0.00  0.00    +0.000 OA
ENDBRANCH  25  27
ENDBRANCH  21  25
ENDBRANCH  20  23
ENDBRANCH  19  20
ENDBRANCH   1  19
TORSDOF 6
ENDMDL
MODEL 8
REMARK VINA RESULT:      -7.3      2.613      3.674
REMARK  Name = 
REMARK  8 active torsions:
REMARK  status: ('A' for Active; 'I' for Inactive)
REMARK    1  A    between atoms: C_1  and  O_2
REMARK    2  A    between atoms: O_2  and  C_3
REMARK    3  A    between atoms: C_3  and  C_4
REMARK    4  A    between atoms: N_6  and  C_7
REMARK    5  A    between atoms: C_7  and  C_8
REMARK    6  A    between atoms: C_8  and  N_9
REMARK    7  A    between atoms: C_10  and  C_11
REMARK    8  A    between atoms: C_20  and  C_21
REMARK                            x       y       z     vdW  Elec       q    Type
REMARK                         _______ _______ _______ _____ _____    ______ ____
ROOT
ATOM      1  N   UNL     1       4.237   6.179  18.585  0.00  0.00    +0.000 N 
ATOM      2  C   UNL     1       4.142   6.927  17.423  0.00  0.00    +0.000 C 
ATOM      3  C   UNL     1       5.072   6.673  16.244  0.00  0.00    +0.000 C 
ATOM      4  N   UNL     1       3.277   7.866  17.205  0.00  0.00    +0.000 NA
ATOM      5  C   UNL     1       2.385   8.224  18.215  0.00  0.00    +0.000 A 
ATOM      6  C   UNL     1       1.450   9.228  17.949  0.00  0.00    +0.000 A 
ATOM      7  C   UNL     1       0.534   9.633  18.921  0.00  0.00    +0.000 A 
ATOM      8  C   UNL     1       0.565   9.039  20.179  0.00  0.00    +0.000 A 
ATOM      9 CL   UNL     1      -0.566   9.518  21.382  0.00  0.00    +0.000 Cl
ATOM     10  C   UNL     1       1.494   8.041  20.460  0.00  0.00    +0.000 A 
ATOM     11  C   UNL     1       2.398   7.611  19.468  0.00  0.00    +0.000 A 
ATOM     12  C   UNL     1       3.321   6.438  19.708  0.00  0.00    +0.000 C 
ENDROOT
BRANCH  12  13
ATOM     13  C   UNL     1       2.521   5.172  20.013  0.00  0.00    +0.000 A 
ATOM     14  C   UNL     1       1.696   4.598  19.026  0.00  0.00    +0.000 A 
ATOM     15  C   UNL     1       0.966   3.445  19.296  0.00  0.00    +0.000 A 
ATOM     16  C   UNL     1       1.055   2.844  20.549  0.00  0.00    +0.000 A 
ATOM     17  C   UNL     1       1.871   3.397  21.536  0.00  0.00    +0.000 A 
ATOM     18  C   UNL     1       2.599   4.558  21.273  0.00  0.00    +0.000 A 
ENDBRANCH  12  13
BRANCH   1  19
ATOM     19  C   UNL     1       5.266   5.156  18.810  0.00  0.00    +0.000 C 
BRANCH  19  20
ATOM     20  C   UNL     1       4.823   3.761  18.330  0.00  0.00    +0.000 C 
BRANCH  20  23
ATOM     21  C   UNL     1       4.399   1.538  19.310  0.00  0.00    +0.000 C 
ATOM     22  O   UNL     1       3.578   1.228  18.454  0.00  0.00    +0.000 OA
ATOM     23  N   UNL     1       5.111   2.719  19.295  0.00  0.00    +0.000 N 
ATOM     24  H   UNL     1       5.664   2.943  20.116  0.00  0.00    +0.000 HD
BRANCH  21  25
ATOM     25  C   UNL     1       4.742   0.637  20.496  0.00  0.00    +0.000 C 
BRANCH  25  27
ATOM     26  C   UNL     1       6.252   0.266  22.272  0.00  0.00    +0.000 C 
ATOM     27  O   UNL     1       5.658   1.234  21.409  0.00  0.00    +0.000 OA
ENDBRANCH  25  27
ENDBRANCH  21  25
ENDBRANCH  20  23
ENDBRANCH  19  20
ENDBRANCH   1  19
TORSDOF 6
ENDMDL
MODEL 9
REMARK VINA RESULT:      -7.1      0.962      1.353
REMARK  Name = 
REMARK  8 active torsions:
REMARK  status: ('A' for Active; 'I' for Inactive)
REMARK    1  A    between atoms: C_1  and  O_2
REMARK    2  A    between atoms: O_2  and  C_3
REMARK    3  A    between atoms: C_3  and  C_4
REMARK    4  A    between atoms: N_6  and  C_7
REMARK    5  A    between atoms: C_7  and  C_8
REMARK    6  A    between atoms: C_8  and  N_9
REMARK    7  A    between atoms: C_10  and  C_11
REMARK    8  A    between atoms: C_20  and  C_21
REMARK                            x       y       z     vdW  Elec       q    Type
REMARK                         _______ _______ _______ _____ _____    ______ ____
ROOT
ATOM      1  N   UNL     1       4.303   5.314  17.742  0.00  0.00    +0.000 N 
ATOM      2  C   UNL     1       4.316   6.295  16.764  0.00  0.00    +0.000 C 
ATOM      3  C   UNL     1       5.110   6.115  15.477  0.00  0.00    +0.000 C 
ATOM      4  N   UNL     1       3.664   7.412  16.816  0.00  0.00    +0.000 NA
ATOM      5  C   UNL     1       2.919   7.720  17.955  0.00  0.00    +0.000 A 
ATOM      6  C   UNL     1       2.211   8.925  17.979  0.00  0.00    +0.000 A 
ATOM      7  C   UNL     1       1.452   9.289  19.092  0.00  0.00    +0.000 A 
ATOM      8  C   UNL     1       1.416   8.449  20.200  0.00  0.00    +0.000 A 
ATOM      9 CL   UNL     1       0.474   8.879  21.572  0.00  0.00    +0.000 Cl
ATOM     10  C   UNL     1       2.120   7.247  20.192  0.00  0.00    +0.000 A 
ATOM     11  C   UNL     1       2.861   6.865  19.055  0.00  0.00    +0.000 A 
ATOM     12  C   UNL     1       3.520   5.507  18.973  0.00  0.00    +0.000 C 
ENDROOT
BRANCH  12  13
ATOM     13  C   UNL     1       2.482   4.393  19.095  0.00  0.00    +0.000 A 
ATOM     14  C   UNL     1       2.378   3.646  20.285  0.00  0.00    +0.000 A 
ATOM     15  C   UNL     1       1.434   2.631  20.404  0.00  0.00    +0.000 A 
ATOM     16  C   UNL     1       0.575   2.353  19.345  0.00  0.00    +0.000 A 
ATOM     17  C   UNL     1       0.661   3.087  18.162  0.00  0.00    +0.000 A 
ATOM     18  C   UNL     1       1.611   4.101  18.033  0.00  0.00    +0.000 A 
ENDBRANCH  12  13
BRANCH   1  19
ATOM     19  C   UNL     1       5.097   4.081  17.665  0.00  0.00    +0.000 C 
BRANCH  19  20
ATOM     20  C   UNL     1       6.372   4.149  18.527  0.00  0.00    +0.000 C 
BRANCH  20  23
ATOM     21  C   UNL     1       7.815   5.992  19.305  0.00  0.00    +0.000 C 
ATOM     22  O   UNL     1       7.910   5.544  20.443  0.00  0.00    +0.000 OA
ATOM     23  N   UNL     1       7.148   5.349  18.284  0.00  0.00    +0.000 N 
ATOM     24  H   UNL     1       7.009   5.862  17.419  0.00  0.00    +0.000 HD
BRANCH  21  25
ATOM     25  C   UNL     1       8.441   7.320  18.880  0.00  0.00    +0.000 C 
BRANCH  25  27
ATOM     26  C   UNL     1       8.110   9.349  17.720  0.00  0.00    +0.000 C 
ATOM     27  O   UNL     1       7.703   7.990  17.863  0.00  0.00    +0.000 OA
ENDBRANCH  25  27
ENDBRANCH  21  25
ENDBRANCH  20  23
ENDBRANCH  19  20
ENDBRANCH   1  19
TORSDOF 6
ENDMDL
