MODEL 1
REMARK VINA RESULT:      -6.7      0.000      0.000
REMARK  Name = 
REMARK  4 active torsions:
REMARK  status: ('A' for Active; 'I' for Inactive)
REMARK    1  A    between atoms: C_4  and  C_5
REMARK    2  A    between atoms: C_5  and  N_6
REMARK    3  A    between atoms: C_13  and  O_14
REMARK    4  A    between atoms: O_14  and  C_15
REMARK                            x       y       z     vdW  Elec       q    Type
REMARK                         _______ _______ _______ _____ _____    ______ ____
ROOT
ATOM      1  N   UNL     1       1.936   6.420  19.348  0.00  0.00    +0.000 NA
ATOM      2  C   UNL     1       2.616   6.826  18.114  0.00  0.00    +0.000 C 
ATOM      3  C   UNL     1       4.078   6.390  18.019  0.00  0.00    +0.000 C 
ATOM      4  C   UNL     1       4.217   4.878  18.240  0.00  0.00    +0.000 C 
ATOM      5  C   UNL     1       3.548   4.467  19.556  0.00  0.00    +0.000 C 
ATOM      6  C   UNL     1       2.112   4.995  19.636  0.00  0.00    +0.000 C 
ATOM      7  C   UNL     1       5.694   4.396  18.114  0.00  0.00    +0.000 C 
ATOM      8  C   UNL     1       5.419   4.024  16.637  0.00  0.00    +0.000 C 
ATOM      9  C   UNL     1       3.916   3.956  17.014  0.00  0.00    +0.000 C 
ENDROOT
BRANCH   1  10
ATOM     10  C   UNL     1       2.220   7.311  20.489  0.00  0.00    +0.000 C 
BRANCH  10  14
ATOM     11  C   UNL     1      -0.503  10.612  20.699  0.00  0.00    +0.000 A 
ATOM     12  C   UNL     1      -0.378   9.772  21.796  0.00  0.00    +0.000 A 
ATOM     13  C   UNL     1       0.512   8.704  21.741  0.00  0.00    +0.000 A 
ATOM     14  C   UNL     1       1.257   8.495  20.578  0.00  0.00    +0.000 A 
ATOM     15  N   UNL     1       1.151   9.313  19.497  0.00  0.00    +0.000 NA
ATOM     16  C   UNL     1       0.279  10.344  19.583  0.00  0.00    +0.000 A 
ENDBRANCH  10  14
ENDBRANCH   1  10
BRANCH   8  17
ATOM     17  O   UNL     1       5.810   5.026  15.667  0.00  0.00    +0.000 OA
BRANCH  17  18
ATOM     18  C   UNL     1       6.148   4.626  14.402  0.00  0.00    +0.000 A 
ATOM     19  C   UNL     1       5.444   3.710  13.627  0.00  0.00    +0.000 A 
ATOM     20  C   UNL     1       5.913   3.381  12.353  0.00  0.00    +0.000 A 
ATOM     21  C   UNL     1       7.075   3.985  11.902  0.00  0.00    +0.000 A 
ATOM     22  N   UNL     1       7.783   4.882  12.621  0.00  0.00    +0.000 NA
ATOM     23  C   UNL     1       7.303   5.178  13.854  0.00  0.00    +0.000 A 
ENDBRANCH  17  18
ENDBRANCH   8  17
TORSDOF 4
ENDMDL
MODEL 2
REMARK VINA RESULT:      -6.6      1.352      1.596
REMARK  Name = 
REMARK  4 active torsions:
REMARK  status: ('A' for Active; 'I' for Inactive)
REMARK    1  A    between atoms: C_4  and  C_5
REMARK    2  A    between atoms: C_5  and  N_6
REMARK    3  A    between atoms: C_13  and  O_14
REMARK    4  A    between atoms: O_14  and  C_15
REMARK                            x       y       z     vdW  Elec       q    Type
REMARK                         _______ _______ _______ _____ _____    ______ ____
ROOT
ATOM      1  N   UNL     1       1.299   7.385  20.416  0.00  0.00    +0.000 NA
ATOM      2  C   UNL     1       1.946   7.730  19.145  0.00  0.00    +0.000 C 
ATOM      3  C   UNL     1       3.329   7.110  18.946  0.00  0.00    +0.000 C 
ATOM      4  C   UNL     1       3.283   5.588  19.133  0.00  0.00    +0.000 C 
ATOM      5  C   UNL     1       2.652   5.235  20.484  0.00  0.00    +0.000 C 
ATOM      6  C   UNL     1       1.305   5.943  20.668  0.00  0.00    +0.000 C 
ATOM      7  C   UNL     1       4.673   4.922  18.900  0.00  0.00    +0.000 C 
ATOM      8  C   UNL     1       4.257   4.625  17.439  0.00  0.00    +0.000 C 
ATOM      9  C   UNL     1       2.785   4.743  17.916  0.00  0.00    +0.000 C 
ENDROOT
BRANCH   1  10
ATOM     10  C   UNL     1       1.770   8.204  21.549  0.00  0.00    +0.000 C 
BRANCH  10  14
ATOM     11  C   UNL     1      -0.849  11.487  22.395  0.00  0.00    +0.000 A 
ATOM     12  C   UNL     1      -0.897  10.362  23.205  0.00  0.00    +0.000 A 
ATOM     13  C   UNL     1      -0.041   9.296  22.946  0.00  0.00    +0.000 A 
ATOM     14  C   UNL     1       0.843   9.377  21.867  0.00  0.00    +0.000 A 
ATOM     15  N   UNL     1       0.907  10.474  21.067  0.00  0.00    +0.000 NA
ATOM     16  C   UNL     1       0.064  11.495  21.347  0.00  0.00    +0.000 A 
ENDBRANCH  10  14
ENDBRANCH   1  10
BRANCH   8  17
ATOM     17  O   UNL     1       4.712   5.591  16.461  0.00  0.00    +0.000 OA
BRANCH  17  18
ATOM     18  C   UNL     1       5.527   5.171  15.445  0.00  0.00    +0.000 A 
ATOM     19  C   UNL     1       5.184   4.248  14.462  0.00  0.00    +0.000 A 
ATOM     20  C   UNL     1       6.124   3.897  13.489  0.00  0.00    +0.000 A 
ATOM     21  C   UNL     1       7.376   4.486  13.540  0.00  0.00    +0.000 A 
ATOM     22  N   UNL     1       7.745   5.389  14.473  0.00  0.00    +0.000 NA
ATOM     23  C   UNL     1       6.811   5.707  15.404  0.00  0.00    +0.000 A 
ENDBRANCH  17  18
ENDBRANCH   8  17
TORSDOF 4
ENDMDL
MODEL 3
REMARK VINA RESULT:      -6.5      1.862      8.570
REMARK  Name = 
REMARK  4 active torsions:
REMARK  status: ('A' for Active; 'I' for Inactive)
REMARK    1  A    between atoms: C_4  and  C_5
REMARK    2  A    between atoms: C_5  and  N_6
REMARK    3  A    between atoms: C_13  and  O_14
REMARK    4  A    between atoms: O_14  and  C_15
REMARK                            x       y       z     vdW  Elec       q    Type
REMARK                         _______ _______ _______ _____ _____    ______ ____
ROOT
ATOM      1  N   UNL     1       6.031   4.640  16.698  0.00  0.00    +0.000 NA
ATOM      2  C   UNL     1       5.192   5.842  16.651  0.00  0.00    +0.000 C 
ATOM      3  C   UNL     1       3.766   5.644  17.168  0.00  0.00    +0.000 C 
ATOM      4  C   UNL     1       3.772   5.045  18.581  0.00  0.00    +0.000 C 
ATOM      5  C   UNL     1       4.609   3.762  18.613  0.00  0.00    +0.000 C 
ATOM      6  C   UNL     1       5.999   3.992  18.011  0.00  0.00    +0.000 C 
ATOM      7  C   UNL     1       2.332   4.866  19.151  0.00  0.00    +0.000 C 
ATOM      8  C   UNL     1       2.475   6.229  19.869  0.00  0.00    +0.000 C 
ATOM      9  C   UNL     1       4.012   6.036  19.766  0.00  0.00    +0.000 C 
ENDROOT
BRANCH   1  10
ATOM     10  C   UNL     1       5.802   3.725  15.563  0.00  0.00    +0.000 C 
BRANCH  10  14
ATOM     11  C   UNL     1       7.746   5.012  11.969  0.00  0.00    +0.000 A 
ATOM     12  C   UNL     1       6.772   4.027  11.891  0.00  0.00    +0.000 A 
ATOM     13  C   UNL     1       6.127   3.611  13.052  0.00  0.00    +0.000 A 
ATOM     14  C   UNL     1       6.480   4.189  14.274  0.00  0.00    +0.000 A 
ATOM     15  N   UNL     1       7.427   5.160  14.366  0.00  0.00    +0.000 NA
ATOM     16  C   UNL     1       8.034   5.544  13.219  0.00  0.00    +0.000 A 
ENDBRANCH  10  14
ENDBRANCH   1  10
BRANCH   8  17
ATOM     17  O   UNL     1       1.905   7.359  19.165  0.00  0.00    +0.000 OA
BRANCH  17  18
ATOM     18  C   UNL     1       1.442   8.425  19.889  0.00  0.00    +0.000 A 
ATOM     19  C   UNL     1       1.219   8.436  21.262  0.00  0.00    +0.000 A 
ATOM     20  C   UNL     1       0.728   9.593  21.871  0.00  0.00    +0.000 A 
ATOM     21  C   UNL     1       0.475  10.699  21.077  0.00  0.00    +0.000 A 
ATOM     22  N   UNL     1       0.683  10.730  19.743  0.00  0.00    +0.000 NA
ATOM     23  C   UNL     1       1.159   9.591  19.182  0.00  0.00    +0.000 A 
ENDBRANCH  17  18
ENDBRANCH   8  17
TORSDOF 4
ENDMDL
MODEL 4
REMARK VINA RESULT:      -6.3      0.679      1.062
REMARK  Name = 
REMARK  4 active torsions:
REMARK  status: ('A' for Active; 'I' for Inactive)
REMARK    1  A    between atoms: C_4  and  C_5
REMARK    2  A    between atoms: C_5  and  N_6
REMARK    3  A    between atoms: C_13  and  O_14
REMARK    4  A    between atoms: O_14  and  C_15
REMARK                            x       y       z     vdW  Elec       q    Type
REMARK                         _______ _______ _______ _____ _____    ______ ____
ROOT
ATOM      1  N   UNL     1       2.142   6.340  19.008  0.00  0.00    +0.000 NA
ATOM      2  C   UNL     1       2.913   6.795  17.846  0.00  0.00    +0.000 C 
ATOM      3  C   UNL     1       4.377   6.354  17.842  0.00  0.00    +0.000 C 
ATOM      4  C   UNL     1       4.494   4.833  18.006  0.00  0.00    +0.000 C 
ATOM      5  C   UNL     1       3.727   4.369  19.249  0.00  0.00    +0.000 C 
ATOM      6  C   UNL     1       2.291   4.903  19.245  0.00  0.00    +0.000 C 
ATOM      7  C   UNL     1       5.975   4.347  17.968  0.00  0.00    +0.000 C 
ATOM      8  C   UNL     1       5.809   4.042  16.460  0.00  0.00    +0.000 C 
ATOM      9  C   UNL     1       4.281   3.967  16.722  0.00  0.00    +0.000 C 
ENDROOT
BRANCH   1  10
ATOM     10  C   UNL     1       2.343   7.179  20.205  0.00  0.00    +0.000 C 
BRANCH  10  14
ATOM     11  C   UNL     1      -0.452  10.419  20.417  0.00  0.00    +0.000 A 
ATOM     12  C   UNL     1      -0.333   9.561  21.501  0.00  0.00    +0.000 A 
ATOM     13  C   UNL     1       0.580   8.513  21.445  0.00  0.00    +0.000 A 
ATOM     14  C   UNL     1       1.354   8.341  20.295  0.00  0.00    +0.000 A 
ATOM     15  N   UNL     1       1.255   9.177  19.227  0.00  0.00    +0.000 NA
ATOM     16  C   UNL     1       0.359  10.188  19.313  0.00  0.00    +0.000 A 
ENDBRANCH  10  14
ENDBRANCH   1  10
BRANCH   8  17
ATOM     17  O   UNL     1       6.274   5.082  15.567  0.00  0.00    +0.000 OA
BRANCH  17  18
ATOM     18  C   UNL     1       6.600   4.752  14.279  0.00  0.00    +0.000 A 
ATOM     19  C   UNL     1       7.625   5.323  13.532  0.00  0.00    +0.000 A 
ATOM     20  C   UNL     1       7.839   4.900  12.218  0.00  0.00    +0.000 A 
ATOM     21  C   UNL     1       7.011   3.918  11.699  0.00  0.00    +0.000 A 
ATOM     22  N   UNL     1       6.010   3.336  12.393  0.00  0.00    +0.000 NA
ATOM     23  C   UNL     1       5.828   3.770  13.665  0.00  0.00    +0.000 A 
ENDBRANCH  17  18
ENDBRANCH   8  17
TORSDOF 4
ENDMDL
MODEL 5
REMARK VINA RESULT:      -6.3      0.668      1.077
REMARK  Name = 
REMARK  4 active torsions:
REMARK  status: ('A' for Active; 'I' for Inactive)
REMARK    1  A    between atoms: C_4  and  C_5
REMARK    2  A    between atoms: C_5  and  N_6
REMARK    3  A    between atoms: C_13  and  O_14
REMARK    4  A    between atoms: O_14  and  C_15
REMARK                            x       y       z     vdW  Elec       q    Type
REMARK                         _______ _______ _______ _____ _____    ______ ____
ROOT
ATOM      1  N   UNL     1       2.040   6.673  18.959  0.00  0.00    +0.000 NA
ATOM      2  C   UNL     1       2.901   7.036  17.828  0.00  0.00    +0.000 C 
ATOM      3  C   UNL     1       4.337   6.520  17.930  0.00  0.00    +0.000 C 
ATOM      4  C   UNL     1       4.361   5.003  18.163  0.00  0.00    +0.000 C 
ATOM      5  C   UNL     1       3.500   4.636  19.376  0.00  0.00    +0.000 C 
ATOM      6  C   UNL     1       2.098   5.242  19.263  0.00  0.00    +0.000 C 
ATOM      7  C   UNL     1       5.813   4.441  18.234  0.00  0.00    +0.000 C 
ATOM      8  C   UNL     1       5.719   4.078  16.733  0.00  0.00    +0.000 C 
ATOM      9  C   UNL     1       4.177   4.094  16.905  0.00  0.00    +0.000 C 
ENDROOT
BRANCH   1  10
ATOM     10  C   UNL     1       2.217   7.552  20.130  0.00  0.00    +0.000 C 
BRANCH  10  14
ATOM     11  C   UNL     1      -0.429  10.922  20.167  0.00  0.00    +0.000 A 
ATOM     12  C   UNL     1       0.050  10.455  18.951  0.00  0.00    +0.000 A 
ATOM     13  C   UNL     1       0.900   9.354  18.929  0.00  0.00    +0.000 A 
ATOM     14  C   UNL     1       1.262   8.746  20.134  0.00  0.00    +0.000 A 
ATOM     15  N   UNL     1       0.796   9.186  21.332  0.00  0.00    +0.000 NA
ATOM     16  C   UNL     1      -0.031  10.257  21.321  0.00  0.00    +0.000 A 
ENDBRANCH  10  14
ENDBRANCH   1  10
BRANCH   8  17
ATOM     17  O   UNL     1       6.291   5.052  15.827  0.00  0.00    +0.000 OA
BRANCH  17  18
ATOM     18  C   UNL     1       6.513   4.695  14.524  0.00  0.00    +0.000 A 
ATOM     19  C   UNL     1       5.838   3.695  13.833  0.00  0.00    +0.000 A 
ATOM     20  C   UNL     1       6.178   3.424  12.505  0.00  0.00    +0.000 A 
ATOM     21  C   UNL     1       7.189   4.169  11.919  0.00  0.00    +0.000 A 
ATOM     22  N   UNL     1       7.863   5.150  12.555  0.00  0.00    +0.000 NA
ATOM     23  C   UNL     1       7.510   5.387  13.842  0.00  0.00    +0.000 A 
ENDBRANCH  17  18
ENDBRANCH   8  17
TORSDOF 4
ENDMDL
MODEL 6
REMARK VINA RESULT:      -6.3      1.934      8.695
REMARK  Name = 
REMARK  4 active torsions:
REMARK  status: ('A' for Active; 'I' for Inactive)
REMARK    1  A    between atoms: C_4  and  C_5
REMARK    2  A    between atoms: C_5  and  N_6
REMARK    3  A    between atoms: C_13  and  O_14
REMARK    4  A    between atoms: O_14  and  C_15
REMARK                            x       y       z     vdW  Elec       q    Type
REMARK                         _______ _______ _______ _____ _____    ______ ____
ROOT
ATOM      1  N   UNL     1       5.639   4.487  16.639  0.00  0.00    +0.000 NA
ATOM      2  C   UNL     1       5.095   5.844  16.753  0.00  0.00    +0.000 C 
ATOM      3  C   UNL     1       3.631   5.910  17.188  0.00  0.00    +0.000 C 
ATOM      4  C   UNL     1       3.408   5.128  18.489  0.00  0.00    +0.000 C 
ATOM      5  C   UNL     1       3.933   3.695  18.348  0.00  0.00    +0.000 C 
ATOM      6  C   UNL     1       5.376   3.682  17.834  0.00  0.00    +0.000 C 
ATOM      7  C   UNL     1       1.930   5.206  18.979  0.00  0.00    +0.000 C 
ATOM      8  C   UNL     1       2.326   6.381  19.905  0.00  0.00    +0.000 C 
ATOM      9  C   UNL     1       3.783   5.855  19.821  0.00  0.00    +0.000 C 
ENDROOT
BRANCH   1  10
ATOM     10  C   UNL     1       5.287   3.824  15.369  0.00  0.00    +0.000 C 
BRANCH  10  14
ATOM     11  C   UNL     1       7.871   4.955  12.144  0.00  0.00    +0.000 A 
ATOM     12  C   UNL     1       6.904   3.984  11.923  0.00  0.00    +0.000 A 
ATOM     13  C   UNL     1       6.053   3.620  12.962  0.00  0.00    +0.000 A 
ATOM     14  C   UNL     1       6.195   4.233  14.209  0.00  0.00    +0.000 A 
ATOM     15  N   UNL     1       7.132   5.190  14.440  0.00  0.00    +0.000 NA
ATOM     16  C   UNL     1       7.943   5.525  13.409  0.00  0.00    +0.000 A 
ENDBRANCH  10  14
ENDBRANCH   1  10
BRANCH   8  17
ATOM     17  O   UNL     1       2.071   7.701  19.367  0.00  0.00    +0.000 OA
BRANCH  17  18
ATOM     18  C   UNL     1       1.370   8.600  20.125  0.00  0.00    +0.000 A 
ATOM     19  C   UNL     1       0.704   9.721  19.640  0.00  0.00    +0.000 A 
ATOM     20  C   UNL     1       0.038  10.566  20.531  0.00  0.00    +0.000 A 
ATOM     21  C   UNL     1       0.066  10.255  21.881  0.00  0.00    +0.000 A 
ATOM     22  N   UNL     1       0.696   9.175  22.389  0.00  0.00    +0.000 NA
ATOM     23  C   UNL     1       1.334   8.376  21.498  0.00  0.00    +0.000 A 
ENDBRANCH  17  18
ENDBRANCH   8  17
TORSDOF 4
ENDMDL
MODEL 7
REMARK VINA RESULT:      -6.2      1.977      8.371
REMARK  Name = 
REMARK  4 active torsions:
REMARK  status: ('A' for Active; 'I' for Inactive)
REMARK    1  A    between atoms: C_4  and  C_5
REMARK    2  A    between atoms: C_5  and  N_6
REMARK    3  A    between atoms: C_13  and  O_14
REMARK    4  A    between atoms: O_14  and  C_15
REMARK                            x       y       z     vdW  Elec       q    Type
REMARK                         _______ _______ _______ _____ _____    ______ ____
ROOT
ATOM      1  N   UNL     1       6.332   5.016  16.785  0.00  0.00    +0.000 NA
ATOM      2  C   UNL     1       5.388   6.082  16.434  0.00  0.00    +0.000 C 
ATOM      3  C   UNL     1       3.951   5.839  16.898  0.00  0.00    +0.000 C 
ATOM      4  C   UNL     1       3.901   5.547  18.404  0.00  0.00    +0.000 C 
ATOM      5  C   UNL     1       4.852   4.398  18.757  0.00  0.00    +0.000 C 
ATOM      6  C   UNL     1       6.258   4.654  18.202  0.00  0.00    +0.000 C 
ATOM      7  C   UNL     1       2.444   5.330  18.914  0.00  0.00    +0.000 C 
ATOM      8  C   UNL     1       2.397   6.819  19.333  0.00  0.00    +0.000 C 
ATOM      9  C   UNL     1       3.948   6.780  19.363  0.00  0.00    +0.000 C 
ENDROOT
BRANCH   1  10
ATOM     10  C   UNL     1       6.284   3.869  15.859  0.00  0.00    +0.000 C 
BRANCH  10  14
ATOM     11  C   UNL     1       7.485   4.876  11.872  0.00  0.00    +0.000 A 
ATOM     12  C   UNL     1       6.528   3.888  12.058  0.00  0.00    +0.000 A 
ATOM     13  C   UNL     1       6.123   3.563  13.348  0.00  0.00    +0.000 A 
ATOM     14  C   UNL     1       6.696   4.232  14.433  0.00  0.00    +0.000 A 
ATOM     15  N   UNL     1       7.630   5.206  14.268  0.00  0.00    +0.000 NA
ATOM     16  C   UNL     1       8.001   5.502  13.001  0.00  0.00    +0.000 A 
ENDBRANCH  10  14
ENDBRANCH   1  10
BRANCH   8  17
ATOM     17  O   UNL     1       1.779   7.709  18.373  0.00  0.00    +0.000 OA
BRANCH  17  18
ATOM     18  C   UNL     1       1.584   9.020  18.715  0.00  0.00    +0.000 A 
ATOM     19  C   UNL     1       2.020  10.121  17.985  0.00  0.00    +0.000 A 
ATOM     20  C   UNL     1       1.764  11.409  18.461  0.00  0.00    +0.000 A 
ATOM     21  C   UNL     1       1.080  11.546  19.658  0.00  0.00    +0.000 A 
ATOM     22  N   UNL     1       0.637  10.504  20.392  0.00  0.00    +0.000 NA
ATOM     23  C   UNL     1       0.902   9.267  19.904  0.00  0.00    +0.000 A 
ENDBRANCH  17  18
ENDBRANCH   8  17
TORSDOF 4
ENDMDL
MODEL 8
REMARK VINA RESULT:      -6.2      0.837      1.446
REMARK  Name = 
REMARK  4 active torsions:
REMARK  status: ('A' for Active; 'I' for Inactive)
REMARK    1  A    between atoms: C_4  and  C_5
REMARK    2  A    between atoms: C_5  and  N_6
REMARK    3  A    between atoms: C_13  and  O_14
REMARK    4  A    between atoms: O_14  and  C_15
REMARK                            x       y       z     vdW  Elec       q    Type
REMARK                         _______ _______ _______ _____ _____    ______ ____
ROOT
ATOM      1  N   UNL     1       2.113   6.623  18.964  0.00  0.00    +0.000 NA
ATOM      2  C   UNL     1       2.981   7.037  17.857  0.00  0.00    +0.000 C 
ATOM      3  C   UNL     1       4.405   6.483  17.922  0.00  0.00    +0.000 C 
ATOM      4  C   UNL     1       4.395   4.954  18.058  0.00  0.00    +0.000 C 
ATOM      5  C   UNL     1       3.526   4.530  19.247  0.00  0.00    +0.000 C 
ATOM      6  C   UNL     1       2.138   5.175  19.177  0.00  0.00    +0.000 C 
ATOM      7  C   UNL     1       5.833   4.355  18.091  0.00  0.00    +0.000 C 
ATOM      8  C   UNL     1       5.729   4.090  16.570  0.00  0.00    +0.000 C 
ATOM      9  C   UNL     1       4.188   4.131  16.746  0.00  0.00    +0.000 C 
ENDROOT
BRANCH   1  10
ATOM     10  C   UNL     1       2.311   7.422  20.188  0.00  0.00    +0.000 C 
BRANCH  10  14
ATOM     11  C   UNL     1      -0.546  10.579  20.668  0.00  0.00    +0.000 A 
ATOM     12  C   UNL     1       0.216  10.531  19.509  0.00  0.00    +0.000 A 
ATOM     13  C   UNL     1       1.138   9.502  19.340  0.00  0.00    +0.000 A 
ATOM     14  C   UNL     1       1.283   8.543  20.345  0.00  0.00    +0.000 A 
ATOM     15  N   UNL     1       0.540   8.572  21.482  0.00  0.00    +0.000 NA
ATOM     16  C   UNL     1      -0.349   9.583  21.617  0.00  0.00    +0.000 A 
ENDBRANCH  10  14
ENDBRANCH   1  10
BRANCH   8  17
ATOM     17  O   UNL     1       6.323   5.107  15.726  0.00  0.00    +0.000 OA
BRANCH  17  18
ATOM     18  C   UNL     1       6.639   4.792  14.432  0.00  0.00    +0.000 A 
ATOM     19  C   UNL     1       7.622   5.410  13.666  0.00  0.00    +0.000 A 
ATOM     20  C   UNL     1       7.829   4.997  12.347  0.00  0.00    +0.000 A 
ATOM     21  C   UNL     1       7.037   3.978  11.844  0.00  0.00    +0.000 A 
ATOM     22  N   UNL     1       6.077   3.351  12.557  0.00  0.00    +0.000 NA
ATOM     23  C   UNL     1       5.900   3.776  13.832  0.00  0.00    +0.000 A 
ENDBRANCH  17  18
ENDBRANCH   8  17
TORSDOF 4
ENDMDL
MODEL 9
REMARK VINA RESULT:      -6.2      3.619      7.014
REMARK  Name = 
REMARK  4 active torsions:
REMARK  status: ('A' for Active; 'I' for Inactive)
REMARK    1  A    between atoms: C_4  and  C_5
REMARK    2  A    between atoms: C_5  and  N_6
REMARK    3  A    between atoms: C_13  and  O_14
REMARK    4  A    between atoms: O_14  and  C_15
REMARK                            x       y       z     vdW  Elec       q    Type
REMARK                         _______ _______ _______ _____ _____    ______ ____
ROOT
ATOM      1  N   UNL     1      -1.206  12.737  20.797  0.00  0.00    +0.000 NA
ATOM      2  C   UNL     1      -0.426  11.575  21.237  0.00  0.00    +0.000 C 
ATOM      3  C   UNL     1      -0.470  10.381  20.282  0.00  0.00    +0.000 C 
ATOM      4  C   UNL     1      -0.065  10.798  18.862  0.00  0.00    +0.000 C 
ATOM      5  C   UNL     1      -0.916  11.980  18.389  0.00  0.00    +0.000 C 
ATOM      6  C   UNL     1      -0.904  13.117  19.416  0.00  0.00    +0.000 C 
ATOM      7  C   UNL     1      -0.064   9.593  17.872  0.00  0.00    +0.000 C 
ATOM      8  C   UNL     1       1.455   9.427  18.117  0.00  0.00    +0.000 C 
ATOM      9  C   UNL     1       1.467  10.911  18.570  0.00  0.00    +0.000 C 
ENDROOT
BRANCH   1  10
ATOM     10  C   UNL     1      -2.646  12.619  21.095  0.00  0.00    +0.000 C 
BRANCH  10  14
ATOM     11  C   UNL     1      -3.625  13.812  25.092  0.00  0.00    +0.000 A 
ATOM     12  C   UNL     1      -2.751  14.595  24.351  0.00  0.00    +0.000 A 
ATOM     13  C   UNL     1      -2.437  14.221  23.048  0.00  0.00    +0.000 A 
ATOM     14  C   UNL     1      -3.002  13.060  22.515  0.00  0.00    +0.000 A 
ATOM     15  N   UNL     1      -3.864  12.286  23.225  0.00  0.00    +0.000 NA
ATOM     16  C   UNL     1      -4.152  12.677  24.488  0.00  0.00    +0.000 A 
ENDBRANCH  10  14
ENDBRANCH   1  10
BRANCH   8  17
ATOM     17  O   UNL     1       1.814   8.433  19.107  0.00  0.00    +0.000 OA
BRANCH  17  18
ATOM     18  C   UNL     1       2.630   7.397  18.740  0.00  0.00    +0.000 A 
ATOM     19  C   UNL     1       3.495   7.395  17.651  0.00  0.00    +0.000 A 
ATOM     20  C   UNL     1       4.263   6.259  17.382  0.00  0.00    +0.000 A 
ATOM     21  C   UNL     1       4.132   5.163  18.219  0.00  0.00    +0.000 A 
ATOM     22  N   UNL     1       3.309   5.128  19.288  0.00  0.00    +0.000 NA
ATOM     23  C   UNL     1       2.576   6.245  19.520  0.00  0.00    +0.000 A 
ENDBRANCH  17  18
ENDBRANCH   8  17
TORSDOF 4
ENDMDL
