MODEL 1
REMARK VINA RESULT:      -6.7      0.000      0.000
REMARK  Name = 
REMARK  3 active torsions:
REMARK  status: ('A' for Active; 'I' for Inactive)
REMARK    1  A    between atoms: C_1  and  N_2
REMARK    2  A    between atoms: C_4  and  C_5
REMARK    3  A    between atoms: C_12  and  N_13
REMARK                            x       y       z     vdW  Elec       q    Type
REMARK                         _______ _______ _______ _____ _____    ______ ____
ROOT
ATOM      1  C   UNL     1       5.657   4.057  14.583  0.00  0.00    +0.000 C 
ATOM      2  N   UNL     1       5.586   4.191  16.027  0.00  0.00    +0.000 N 
ATOM      3  C   UNL     1       4.385   3.988  16.688  0.00  0.00    +0.000 A 
ATOM      4  C   UNL     1       4.293   4.101  18.026  0.00  0.00    +0.000 A 
ATOM      5  C   UNL     1       5.476   4.458  18.784  0.00  0.00    +0.000 A 
ATOM      6  C   UNL     1       6.662   4.696  18.203  0.00  0.00    +0.000 A 
ATOM      7  C   UNL     1       6.767   4.519  16.696  0.00  0.00    +0.000 A 
ATOM      8  O   UNL     1       7.860   4.653  16.144  0.00  0.00    +0.000 OA
ENDROOT
BRANCH   4   9
ATOM      9  C   UNL     1       2.997   3.906  18.691  0.00  0.00    +0.000 A 
ATOM     10  C   UNL     1       2.061   3.006  18.179  0.00  0.00    +0.000 A 
ATOM     11  C   UNL     1       0.908   2.776  18.912  0.00  0.00    +0.000 A 
ATOM     12  N   UNL     1       0.634   3.376  20.089  0.00  0.00    +0.000 NA
ATOM     13  C   UNL     1       1.553   4.248  20.559  0.00  0.00    +0.000 A 
ATOM     14  C   UNL     1       2.735   4.544  19.904  0.00  0.00    +0.000 A 
ENDBRANCH   4   9
BRANCH   6  15
ATOM     15  N   UNL     1       7.805   5.075  18.889  0.00  0.00    +0.000 N 
ATOM     16  H   UNL     1       8.352   5.788  18.420  0.00  0.00    +0.000 HD
ATOM     17  H   UNL     1       7.584   5.299  19.861  0.00  0.00    +0.000 HD
ENDBRANCH   6  15
TORSDOF 2
ENDMDL
MODEL 2
REMARK VINA RESULT:      -6.7      1.415      2.290
REMARK  Name = 
REMARK  3 active torsions:
REMARK  status: ('A' for Active; 'I' for Inactive)
REMARK    1  A    between atoms: C_1  and  N_2
REMARK    2  A    between atoms: C_4  and  C_5
REMARK    3  A    between atoms: C_12  and  N_13
REMARK                            x       y       z     vdW  Elec       q    Type
REMARK                         _______ _______ _______ _____ _____    ______ ____
ROOT
ATOM      1  C   UNL     1       7.200   7.356  17.457  0.00  0.00    +0.000 C 
ATOM      2  N   UNL     1       6.324   6.245  17.127  0.00  0.00    +0.000 N 
ATOM      3  C   UNL     1       5.187   6.005  17.882  0.00  0.00    +0.000 A 
ATOM      4  C   UNL     1       4.357   4.986  17.595  0.00  0.00    +0.000 A 
ATOM      5  C   UNL     1       4.672   4.115  16.479  0.00  0.00    +0.000 A 
ATOM      6  C   UNL     1       5.770   4.275  15.726  0.00  0.00    +0.000 A 
ATOM      7  C   UNL     1       6.677   5.458  16.029  0.00  0.00    +0.000 A 
ATOM      8  O   UNL     1       7.650   5.677  15.306  0.00  0.00    +0.000 OA
ENDROOT
BRANCH   4   9
ATOM      9  C   UNL     1       3.174   4.745  18.434  0.00  0.00    +0.000 A 
ATOM     10  C   UNL     1       2.195   3.831  18.041  0.00  0.00    +0.000 A 
ATOM     11  C   UNL     1       1.165   3.557  18.926  0.00  0.00    +0.000 A 
ATOM     12  N   UNL     1       1.049   4.128  20.144  0.00  0.00    +0.000 NA
ATOM     13  C   UNL     1       2.005   5.014  20.496  0.00  0.00    +0.000 A 
ATOM     14  C   UNL     1       3.074   5.353  19.686  0.00  0.00    +0.000 A 
ENDBRANCH   4   9
BRANCH   6  15
ATOM     15  N   UNL     1       6.125   3.443  14.677  0.00  0.00    +0.000 N 
ATOM     16  H   UNL     1       6.889   3.792  14.110  0.00  0.00    +0.000 HD
ATOM     17  H   UNL     1       6.261   2.485  15.007  0.00  0.00    +0.000 HD
ENDBRANCH   6  15
TORSDOF 2
ENDMDL
MODEL 3
REMARK VINA RESULT:      -6.7      1.357      2.599
REMARK  Name = 
REMARK  3 active torsions:
REMARK  status: ('A' for Active; 'I' for Inactive)
REMARK    1  A    between atoms: C_1  and  N_2
REMARK    2  A    between atoms: C_4  and  C_5
REMARK    3  A    between atoms: C_12  and  N_13
REMARK                            x       y       z     vdW  Elec       q    Type
REMARK                         _______ _______ _______ _____ _____    ______ ____
ROOT
ATOM      1  C   UNL     1       7.405   7.161  17.559  0.00  0.00    +0.000 C 
ATOM      2  N   UNL     1       6.491   6.097  17.182  0.00  0.00    +0.000 N 
ATOM      3  C   UNL     1       5.390   5.811  17.973  0.00  0.00    +0.000 A 
ATOM      4  C   UNL     1       4.525   4.834  17.643  0.00  0.00    +0.000 A 
ATOM      5  C   UNL     1       4.765   4.058  16.443  0.00  0.00    +0.000 A 
ATOM      6  C   UNL     1       5.827   4.264  15.650  0.00  0.00    +0.000 A 
ATOM      7  C   UNL     1       6.772   5.402  16.004  0.00  0.00    +0.000 A 
ATOM      8  O   UNL     1       7.712   5.667  15.253  0.00  0.00    +0.000 OA
ENDROOT
BRANCH   4   9
ATOM      9  C   UNL     1       3.382   4.540  18.520  0.00  0.00    +0.000 A 
ATOM     10  C   UNL     1       3.249   5.175  19.756  0.00  0.00    +0.000 A 
ATOM     11  C   UNL     1       2.093   4.948  20.485  0.00  0.00    +0.000 A 
ATOM     12  N   UNL     1       1.091   4.142  20.073  0.00  0.00    +0.000 NA
ATOM     13  C   UNL     1       1.248   3.534  18.878  0.00  0.00    +0.000 A 
ATOM     14  C   UNL     1       2.362   3.698  18.074  0.00  0.00    +0.000 A 
ENDBRANCH   4   9
BRANCH   6  15
ATOM     15  N   UNL     1       6.111   3.520  14.516  0.00  0.00    +0.000 N 
ATOM     16  H   UNL     1       5.663   2.611  14.493  0.00  0.00    +0.000 HD
ATOM     17  H   UNL     1       5.956   4.076  13.672  0.00  0.00    +0.000 HD
ENDBRANCH   6  15
TORSDOF 2
ENDMDL
MODEL 4
REMARK VINA RESULT:      -6.7      1.531      2.790
REMARK  Name = 
REMARK  3 active torsions:
REMARK  status: ('A' for Active; 'I' for Inactive)
REMARK    1  A    between atoms: C_1  and  N_2
REMARK    2  A    between atoms: C_4  and  C_5
REMARK    3  A    between atoms: C_12  and  N_13
REMARK                            x       y       z     vdW  Elec       q    Type
REMARK                         _______ _______ _______ _____ _____    ______ ____
ROOT
ATOM      1  C   UNL     1       7.864   5.752  19.296  0.00  0.00    +0.000 C 
ATOM      2  N   UNL     1       6.623   5.729  18.543  0.00  0.00    +0.000 N 
ATOM      3  C   UNL     1       5.482   5.171  19.096  0.00  0.00    +0.000 A 
ATOM      4  C   UNL     1       4.318   5.142  18.421  0.00  0.00    +0.000 A 
ATOM      5  C   UNL     1       4.267   5.694  17.082  0.00  0.00    +0.000 A 
ATOM      6  C   UNL     1       5.342   6.223  16.477  0.00  0.00    +0.000 A 
ATOM      7  C   UNL     1       6.641   6.295  17.266  0.00  0.00    +0.000 A 
ATOM      8  O   UNL     1       7.623   6.846  16.767  0.00  0.00    +0.000 OA
ENDROOT
BRANCH   4   9
ATOM      9  C   UNL     1       3.134   4.518  19.028  0.00  0.00    +0.000 A 
ATOM     10  C   UNL     1       2.698   4.899  20.298  0.00  0.00    +0.000 A 
ATOM     11  C   UNL     1       1.511   4.363  20.770  0.00  0.00    +0.000 A 
ATOM     12  N   UNL     1       0.754   3.487  20.075  0.00  0.00    +0.000 NA
ATOM     13  C   UNL     1       1.201   3.129  18.852  0.00  0.00    +0.000 A 
ATOM     14  C   UNL     1       2.372   3.610  18.292  0.00  0.00    +0.000 A 
ENDBRANCH   4   9
BRANCH   6  15
ATOM     15  N   UNL     1       5.343   6.726  15.187  0.00  0.00    +0.000 N 
ATOM     16  H   UNL     1       4.559   7.334  14.977  0.00  0.00    +0.000 HD
ATOM     17  H   UNL     1       6.252   7.134  14.960  0.00  0.00    +0.000 HD
ENDBRANCH   6  15
TORSDOF 2
ENDMDL
MODEL 5
REMARK VINA RESULT:      -6.6      1.401      2.412
REMARK  Name = 
REMARK  3 active torsions:
REMARK  status: ('A' for Active; 'I' for Inactive)
REMARK    1  A    between atoms: C_1  and  N_2
REMARK    2  A    between atoms: C_4  and  C_5
REMARK    3  A    between atoms: C_12  and  N_13
REMARK                            x       y       z     vdW  Elec       q    Type
REMARK                         _______ _______ _______ _____ _____    ______ ____
ROOT
ATOM      1  C   UNL     1       7.357   6.789  17.635  0.00  0.00    +0.000 C 
ATOM      2  N   UNL     1       6.517   5.729  17.107  0.00  0.00    +0.000 N 
ATOM      3  C   UNL     1       5.452   5.246  17.851  0.00  0.00    +0.000 A 
ATOM      4  C   UNL     1       4.656   4.268  17.383  0.00  0.00    +0.000 A 
ATOM      5  C   UNL     1       4.933   3.700  16.078  0.00  0.00    +0.000 A 
ATOM      6  C   UNL     1       5.963   4.101  15.320  0.00  0.00    +0.000 A 
ATOM      7  C   UNL     1       6.829   5.240  15.836  0.00  0.00    +0.000 A 
ATOM      8  O   UNL     1       7.734   5.683  15.128  0.00  0.00    +0.000 OA
ENDROOT
BRANCH   4   9
ATOM      9  C   UNL     1       3.552   3.762  18.211  0.00  0.00    +0.000 A 
ATOM     10  C   UNL     1       2.260   3.659  17.692  0.00  0.00    +0.000 A 
ATOM     11  C   UNL     1       1.285   3.066  18.478  0.00  0.00    +0.000 A 
ATOM     12  N   UNL     1       1.511   2.587  19.720  0.00  0.00    +0.000 NA
ATOM     13  C   UNL     1       2.767   2.706  20.201  0.00  0.00    +0.000 A 
ATOM     14  C   UNL     1       3.810   3.279  19.495  0.00  0.00    +0.000 A 
ENDBRANCH   4   9
BRANCH   6  15
ATOM     15  N   UNL     1       6.282   3.558  14.085  0.00  0.00    +0.000 N 
ATOM     16  H   UNL     1       7.025   4.046  13.597  0.00  0.00    +0.000 HD
ATOM     17  H   UNL     1       6.434   2.551  14.163  0.00  0.00    +0.000 HD
ENDBRANCH   6  15
TORSDOF 2
ENDMDL
MODEL 6
REMARK VINA RESULT:      -6.6      1.605      2.566
REMARK  Name = 
REMARK  3 active torsions:
REMARK  status: ('A' for Active; 'I' for Inactive)
REMARK    1  A    between atoms: C_1  and  N_2
REMARK    2  A    between atoms: C_4  and  C_5
REMARK    3  A    between atoms: C_12  and  N_13
REMARK                            x       y       z     vdW  Elec       q    Type
REMARK                         _______ _______ _______ _____ _____    ______ ____
ROOT
ATOM      1  C   UNL     1       7.912   5.740  19.296  0.00  0.00    +0.000 C 
ATOM      2  N   UNL     1       6.652   5.700  18.576  0.00  0.00    +0.000 N 
ATOM      3  C   UNL     1       5.533   5.127  19.159  0.00  0.00    +0.000 A 
ATOM      4  C   UNL     1       4.352   5.082  18.515  0.00  0.00    +0.000 A 
ATOM      5  C   UNL     1       4.260   5.632  17.176  0.00  0.00    +0.000 A 
ATOM      6  C   UNL     1       5.311   6.174  16.544  0.00  0.00    +0.000 A 
ATOM      7  C   UNL     1       6.629   6.264  17.298  0.00  0.00    +0.000 A 
ATOM      8  O   UNL     1       7.591   6.827  16.774  0.00  0.00    +0.000 OA
ENDROOT
BRANCH   4   9
ATOM      9  C   UNL     1       3.193   4.443  19.153  0.00  0.00    +0.000 A 
ATOM     10  C   UNL     1       3.033   3.057  19.118  0.00  0.00    +0.000 A 
ATOM     11  C   UNL     1       1.986   2.502  19.836  0.00  0.00    +0.000 A 
ATOM     12  N   UNL     1       1.107   3.225  20.562  0.00  0.00    +0.000 NA
ATOM     13  C   UNL     1       1.279   4.564  20.574  0.00  0.00    +0.000 A 
ATOM     14  C   UNL     1       2.294   5.214  19.892  0.00  0.00    +0.000 A 
ENDBRANCH   4   9
BRANCH   6  15
ATOM     15  N   UNL     1       5.272   6.675  15.253  0.00  0.00    +0.000 N 
ATOM     16  H   UNL     1       4.394   7.115  15.005  0.00  0.00    +0.000 HD
ATOM     17  H   UNL     1       6.091   7.259  15.069  0.00  0.00    +0.000 HD
ENDBRANCH   6  15
TORSDOF 2
ENDMDL
MODEL 7
REMARK VINA RESULT:      -6.6      1.624      1.983
REMARK  Name = 
REMARK  3 active torsions:
REMARK  status: ('A' for Active; 'I' for Inactive)
REMARK    1  A    between atoms: C_1  and  N_2
REMARK    2  A    between atoms: C_4  and  C_5
REMARK    3  A    between atoms: C_12  and  N_13
REMARK                            x       y       z     vdW  Elec       q    Type
REMARK                         _______ _______ _______ _____ _____    ______ ____
ROOT
ATOM      1  C   UNL     1       6.250   3.705  13.289  0.00  0.00    +0.000 C 
ATOM      2  N   UNL     1       6.057   4.231  14.629  0.00  0.00    +0.000 N 
ATOM      3  C   UNL     1       5.008   3.777  15.412  0.00  0.00    +0.000 A 
ATOM      4  C   UNL     1       4.810   4.243  16.658  0.00  0.00    +0.000 A 
ATOM      5  C   UNL     1       5.707   5.255  17.181  0.00  0.00    +0.000 A 
ATOM      6  C   UNL     1       6.724   5.758  16.466  0.00  0.00    +0.000 A 
ATOM      7  C   UNL     1       6.969   5.189  15.076  0.00  0.00    +0.000 A 
ATOM      8  O   UNL     1       7.942   5.574  14.426  0.00  0.00    +0.000 OA
ENDROOT
BRANCH   4   9
ATOM      9  C   UNL     1       3.670   3.759  17.451  0.00  0.00    +0.000 A 
ATOM     10  C   UNL     1       2.559   4.573  17.674  0.00  0.00    +0.000 A 
ATOM     11  C   UNL     1       1.467   4.023  18.326  0.00  0.00    +0.000 A 
ATOM     12  N   UNL     1       1.418   2.747  18.764  0.00  0.00    +0.000 NA
ATOM     13  C   UNL     1       2.509   1.983  18.542  0.00  0.00    +0.000 A 
ATOM     14  C   UNL     1       3.647   2.437  17.898  0.00  0.00    +0.000 A 
ENDBRANCH   4   9
BRANCH   6  15
ATOM     15  N   UNL     1       7.579   6.750  16.916  0.00  0.00    +0.000 N 
ATOM     16  H   UNL     1       7.197   7.687  16.856  0.00  0.00    +0.000 HD
ATOM     17  H   UNL     1       7.949   6.515  17.839  0.00  0.00    +0.000 HD
ENDBRANCH   6  15
TORSDOF 2
ENDMDL
MODEL 8
REMARK VINA RESULT:      -6.5      1.386      1.419
REMARK  Name = 
REMARK  3 active torsions:
REMARK  status: ('A' for Active; 'I' for Inactive)
REMARK    1  A    between atoms: C_1  and  N_2
REMARK    2  A    between atoms: C_4  and  C_5
REMARK    3  A    between atoms: C_12  and  N_13
REMARK                            x       y       z     vdW  Elec       q    Type
REMARK                         _______ _______ _______ _____ _____    ______ ____
ROOT
ATOM      1  C   UNL     1       5.981   3.703  14.337  0.00  0.00    +0.000 C 
ATOM      2  N   UNL     1       5.800   4.533  15.515  0.00  0.00    +0.000 N 
ATOM      3  C   UNL     1       4.716   4.327  16.354  0.00  0.00    +0.000 A 
ATOM      4  C   UNL     1       4.529   5.078  17.454  0.00  0.00    +0.000 A 
ATOM      5  C   UNL     1       5.476   6.134  17.755  0.00  0.00    +0.000 A 
ATOM      6  C   UNL     1       6.529   6.404  16.970  0.00  0.00    +0.000 A 
ATOM      7  C   UNL     1       6.760   5.519  15.754  0.00  0.00    +0.000 A 
ATOM      8  O   UNL     1       7.761   5.692  15.059  0.00  0.00    +0.000 OA
ENDROOT
BRANCH   4   9
ATOM      9  C   UNL     1       3.353   4.850  18.307  0.00  0.00    +0.000 A 
ATOM     10  C   UNL     1       2.342   3.976  17.907  0.00  0.00    +0.000 A 
ATOM     11  C   UNL     1       1.318   3.709  18.802  0.00  0.00    +0.000 A 
ATOM     12  N   UNL     1       1.238   4.252  20.035  0.00  0.00    +0.000 NA
ATOM     13  C   UNL     1       2.226   5.100  20.394  0.00  0.00    +0.000 A 
ATOM     14  C   UNL     1       3.292   5.428  19.575  0.00  0.00    +0.000 A 
ENDBRANCH   4   9
BRANCH   6  15
ATOM     15  N   UNL     1       7.435   7.427  17.203  0.00  0.00    +0.000 N 
ATOM     16  H   UNL     1       7.878   7.390  18.113  0.00  0.00    +0.000 HD
ATOM     17  H   UNL     1       8.095   7.507  16.427  0.00  0.00    +0.000 HD
ENDBRANCH   6  15
TORSDOF 2
ENDMDL
MODEL 9
REMARK VINA RESULT:      -6.5      2.719      5.585
REMARK  Name = 
REMARK  3 active torsions:
REMARK  status: ('A' for Active; 'I' for Inactive)
REMARK    1  A    between atoms: C_1  and  N_2
REMARK    2  A    between atoms: C_4  and  C_5
REMARK    3  A    between atoms: C_12  and  N_13
REMARK                            x       y       z     vdW  Elec       q    Type
REMARK                         _______ _______ _______ _____ _____    ______ ____
ROOT
ATOM      1  C   UNL     1       1.568   2.152  18.750  0.00  0.00    +0.000 C 
ATOM      2  N   UNL     1       2.206   3.454  18.826  0.00  0.00    +0.000 N 
ATOM      3  C   UNL     1       3.289   3.749  18.013  0.00  0.00    +0.000 A 
ATOM      4  C   UNL     1       3.894   4.949  18.060  0.00  0.00    +0.000 A 
ATOM      5  C   UNL     1       3.409   5.946  18.995  0.00  0.00    +0.000 A 
ATOM      6  C   UNL     1       2.385   5.715  19.829  0.00  0.00    +0.000 A 
ATOM      7  C   UNL     1       1.676   4.372  19.735  0.00  0.00    +0.000 A 
ATOM      8  O   UNL     1       0.683   4.160  20.432  0.00  0.00    +0.000 OA
ENDROOT
BRANCH   4   9
ATOM      9  C   UNL     1       5.058   5.218  17.202  0.00  0.00    +0.000 A 
ATOM     10  C   UNL     1       6.042   6.124  17.599  0.00  0.00    +0.000 A 
ATOM     11  C   UNL     1       7.172   6.249  16.807  0.00  0.00    +0.000 A 
ATOM     12  N   UNL     1       7.373   5.550  15.670  0.00  0.00    +0.000 NA
ATOM     13  C   UNL     1       6.402   4.685  15.304  0.00  0.00    +0.000 A 
ATOM     14  C   UNL     1       5.239   4.487  16.027  0.00  0.00    +0.000 A 
ENDBRANCH   4   9
BRANCH   6  15
ATOM     15  N   UNL     1       1.916   6.627  20.761  0.00  0.00    +0.000 N 
ATOM     16  H   UNL     1       1.135   6.292  21.313  0.00  0.00    +0.000 HD
ATOM     17  H   UNL     1       2.687   6.999  21.320  0.00  0.00    +0.000 HD
ENDBRANCH   6  15
TORSDOF 2
ENDMDL
