MODEL 1
REMARK VINA RESULT:      -6.8      0.000      0.000
REMARK  Name = 
REMARK  5 active torsions:
REMARK  status: ('A' for Active; 'I' for Inactive)
REMARK    1  A    between atoms: C_1  and  C_2
REMARK    2  A    between atoms: C_2  and  C_3
REMARK    3  A    between atoms: C_4  and  O_5
REMARK    4  A    between atoms: N_9  and  C_10
REMARK    5  A    between atoms: C_13  and  C_14
REMARK                            x       y       z     vdW  Elec       q    Type
REMARK                         _______ _______ _______ _____ _____    ______ ____
ROOT
ATOM      1  C   UNL     1       2.319   3.021  18.138  0.00  0.00    +0.000 C 
ATOM      2  C   UNL     1       1.272   2.402  19.080  0.00  0.00    +0.000 C 
ATOM      3  C   UNL     1       0.826   3.556  19.968  0.00  0.00    +0.000 C 
ATOM      4  C   UNL     1       2.023   4.472  19.983  0.00  0.00    +0.000 C 
ATOM      5  O   UNL     1       2.175   5.386  20.778  0.00  0.00    +0.000 OA
ATOM      6  N   UNL     1       2.827   4.152  18.889  0.00  0.00    +0.000 N 
ENDROOT
BRANCH   6   7
ATOM      7  C   UNL     1       3.940   4.916  18.493  0.00  0.00    +0.000 A 
ATOM      8  C   UNL     1       3.817   5.800  17.417  0.00  0.00    +0.000 A 
ATOM      9  C   UNL     1       4.866   6.662  17.092  0.00  0.00    +0.000 A 
ATOM     10  C   UNL     1       6.074   6.605  17.799  0.00  0.00    +0.000 A 
ATOM     11  C   UNL     1       6.217   5.677  18.834  0.00  0.00    +0.000 A 
ATOM     12 CL   UNL     1       7.700   5.498  19.706  0.00  0.00    +0.000 Cl
ATOM     13  C   UNL     1       5.146   4.851  19.196  0.00  0.00    +0.000 A 
BRANCH  10  14
ATOM     14  C   UNL     1       7.119   7.520  17.451  0.00  0.00    +0.000 C 
ATOM     15  N   UNL     1       7.965   8.274  17.200  0.00  0.00    +0.000 NA
ENDBRANCH  10  14
ENDBRANCH   6   7
BRANCH   1  17
ATOM     16  C   UNL     1       3.976   1.147  18.839  0.00  0.00    +0.000 C 
ATOM     17  C   UNL     1       3.400   2.003  17.711  0.00  0.00    +0.000 C 
ENDBRANCH   1  17
BRANCH   2  18
ATOM     18  O   UNL     1       0.184   1.830  18.366  0.00  0.00    +0.000 OA
ATOM     19  H   UNL     1       0.527   1.308  17.620  0.00  0.00    +0.000 HD
ENDBRANCH   2  18
TORSDOF 4
ENDMDL
MODEL 2
REMARK VINA RESULT:      -6.8      3.664      5.571
REMARK  Name = 
REMARK  5 active torsions:
REMARK  status: ('A' for Active; 'I' for Inactive)
REMARK    1  A    between atoms: C_1  and  C_2
REMARK    2  A    between atoms: C_2  and  C_3
REMARK    3  A    between atoms: C_4  and  O_5
REMARK    4  A    between atoms: N_9  and  C_10
REMARK    5  A    between atoms: C_13  and  C_14
REMARK                            x       y       z     vdW  Elec       q    Type
REMARK                         _______ _______ _______ _____ _____    ______ ____
ROOT
ATOM      1  C   UNL     1       6.187   6.060  16.584  0.00  0.00    +0.000 C 
ATOM      2  C   UNL     1       6.976   4.912  15.932  0.00  0.00    +0.000 C 
ATOM      3  C   UNL     1       5.915   3.901  15.522  0.00  0.00    +0.000 C 
ATOM      4  C   UNL     1       4.796   4.148  16.501  0.00  0.00    +0.000 C 
ATOM      5  O   UNL     1       3.862   3.383  16.680  0.00  0.00    +0.000 OA
ATOM      6  N   UNL     1       4.975   5.417  17.051  0.00  0.00    +0.000 N 
ENDROOT
BRANCH   6   7
ATOM      7  C   UNL     1       4.024   6.048  17.876  0.00  0.00    +0.000 A 
ATOM      8  C   UNL     1       3.720   5.491  19.121  0.00  0.00    +0.000 A 
ATOM      9  C   UNL     1       2.883   6.168  20.009  0.00  0.00    +0.000 A 
ATOM     10  C   UNL     1       2.288   7.381  19.636  0.00  0.00    +0.000 A 
ATOM     11  C   UNL     1       2.544   7.906  18.366  0.00  0.00    +0.000 A 
ATOM     12 CL   UNL     1       1.794   9.360  17.807  0.00  0.00    +0.000 Cl
ATOM     13  C   UNL     1       3.428   7.254  17.497  0.00  0.00    +0.000 A 
BRANCH  10  14
ATOM     14  C   UNL     1       1.453   8.058  20.582  0.00  0.00    +0.000 C 
ATOM     15  N   UNL     1       0.766   8.576  21.359  0.00  0.00    +0.000 NA
ENDBRANCH  10  14
ENDBRANCH   6   7
BRANCH   1  17
ATOM     16  C   UNL     1       7.647   5.860  18.722  0.00  0.00    +0.000 C 
ATOM     17  C   UNL     1       6.994   6.777  17.689  0.00  0.00    +0.000 C 
ENDBRANCH   1  17
BRANCH   2  18
ATOM     18  O   UNL     1       7.744   5.357  14.821  0.00  0.00    +0.000 OA
ATOM     19  H   UNL     1       8.681   5.414  15.078  0.00  0.00    +0.000 HD
ENDBRANCH   2  18
TORSDOF 4
ENDMDL
MODEL 3
REMARK VINA RESULT:      -6.6      1.985      2.209
REMARK  Name = 
REMARK  5 active torsions:
REMARK  status: ('A' for Active; 'I' for Inactive)
REMARK    1  A    between atoms: C_1  and  C_2
REMARK    2  A    between atoms: C_2  and  C_3
REMARK    3  A    between atoms: C_4  and  O_5
REMARK    4  A    between atoms: N_9  and  C_10
REMARK    5  A    between atoms: C_13  and  C_14
REMARK                            x       y       z     vdW  Elec       q    Type
REMARK                         _______ _______ _______ _____ _____    ______ ____
ROOT
ATOM      1  C   UNL     1       2.800   3.348  19.894  0.00  0.00    +0.000 C 
ATOM      2  C   UNL     1       1.898   3.785  21.061  0.00  0.00    +0.000 C 
ATOM      3  C   UNL     1       1.386   5.161  20.656  0.00  0.00    +0.000 C 
ATOM      4  C   UNL     1       2.470   5.686  19.750  0.00  0.00    +0.000 C 
ATOM      5  O   UNL     1       2.573   6.855  19.413  0.00  0.00    +0.000 OA
ATOM      6  N   UNL     1       3.227   4.603  19.306  0.00  0.00    +0.000 N 
ENDROOT
BRANCH   6   7
ATOM      7  C   UNL     1       4.217   4.701  18.310  0.00  0.00    +0.000 A 
ATOM      8  C   UNL     1       4.023   4.059  17.085  0.00  0.00    +0.000 A 
ATOM      9  C   UNL     1       4.927   4.251  16.039  0.00  0.00    +0.000 A 
ATOM     10  C   UNL     1       6.070   5.040  16.227  0.00  0.00    +0.000 A 
ATOM     11  C   UNL     1       6.294   5.632  17.473  0.00  0.00    +0.000 A 
ATOM     12 CL   UNL     1       7.715   6.560  17.804  0.00  0.00    +0.000 Cl
ATOM     13  C   UNL     1       5.359   5.483  18.505  0.00  0.00    +0.000 A 
BRANCH  10  14
ATOM     14  C   UNL     1       6.962   5.233  15.124  0.00  0.00    +0.000 C 
ATOM     15  N   UNL     1       7.681   5.422  14.233  0.00  0.00    +0.000 NA
ENDBRANCH  10  14
ENDBRANCH   6   7
BRANCH   1  17
ATOM     16  C   UNL     1       4.316   1.299  19.398  0.00  0.00    +0.000 C 
ATOM     17  C   UNL     1       3.958   2.435  20.355  0.00  0.00    +0.000 C 
ENDBRANCH   1  17
BRANCH   2  18
ATOM     18  O   UNL     1       0.835   2.868  21.284  0.00  0.00    +0.000 OA
ATOM     19  H   UNL     1       1.053   2.014  20.871  0.00  0.00    +0.000 HD
ENDBRANCH   2  18
TORSDOF 4
ENDMDL
MODEL 4
REMARK VINA RESULT:      -6.4      1.332      2.442
REMARK  Name = 
REMARK  5 active torsions:
REMARK  status: ('A' for Active; 'I' for Inactive)
REMARK    1  A    between atoms: C_1  and  C_2
REMARK    2  A    between atoms: C_2  and  C_3
REMARK    3  A    between atoms: C_4  and  O_5
REMARK    4  A    between atoms: N_9  and  C_10
REMARK    5  A    between atoms: C_13  and  C_14
REMARK                            x       y       z     vdW  Elec       q    Type
REMARK                         _______ _______ _______ _____ _____    ______ ____
ROOT
ATOM      1  C   UNL     1       2.449   4.074  20.379  0.00  0.00    +0.000 C 
ATOM      2  C   UNL     1       1.098   3.341  20.316  0.00  0.00    +0.000 C 
ATOM      3  C   UNL     1       1.156   2.537  19.024  0.00  0.00    +0.000 C 
ATOM      4  C   UNL     1       2.103   3.330  18.160  0.00  0.00    +0.000 C 
ATOM      5  O   UNL     1       2.228   3.169  16.956  0.00  0.00    +0.000 OA
ATOM      6  N   UNL     1       2.851   4.166  18.989  0.00  0.00    +0.000 N 
ENDROOT
BRANCH   6   7
ATOM      7  C   UNL     1       3.949   4.924  18.543  0.00  0.00    +0.000 A 
ATOM      8  C   UNL     1       3.757   5.894  17.556  0.00  0.00    +0.000 A 
ATOM      9  C   UNL     1       4.801   6.746  17.194  0.00  0.00    +0.000 A 
ATOM     10  C   UNL     1       6.070   6.596  17.770  0.00  0.00    +0.000 A 
ATOM     11  C   UNL     1       6.277   5.584  18.712  0.00  0.00    +0.000 A 
ATOM     12 CL   UNL     1       7.829   5.291  19.415  0.00  0.00    +0.000 Cl
ATOM     13  C   UNL     1       5.215   4.766  19.115  0.00  0.00    +0.000 A 
BRANCH  10  14
ATOM     14  C   UNL     1       7.110   7.503  17.390  0.00  0.00    +0.000 C 
ATOM     15  N   UNL     1       7.975   8.217  17.094  0.00  0.00    +0.000 NA
ENDBRANCH  10  14
ENDBRANCH   6   7
BRANCH   1  17
ATOM     16  C   UNL     1       1.389   6.443  20.471  0.00  0.00    +0.000 C 
ATOM     17  C   UNL     1       2.347   5.434  21.104  0.00  0.00    +0.000 C 
ENDBRANCH   1  17
BRANCH   2  18
ATOM     18  O   UNL     1       0.890   2.508  21.450  0.00  0.00    +0.000 OA
ATOM     19  H   UNL     1       0.638   1.616  21.153  0.00  0.00    +0.000 HD
ENDBRANCH   2  18
TORSDOF 4
ENDMDL
MODEL 5
REMARK VINA RESULT:      -6.4      3.445      5.535
REMARK  Name = 
REMARK  5 active torsions:
REMARK  status: ('A' for Active; 'I' for Inactive)
REMARK    1  A    between atoms: C_1  and  C_2
REMARK    2  A    between atoms: C_2  and  C_3
REMARK    3  A    between atoms: C_4  and  O_5
REMARK    4  A    between atoms: N_9  and  C_10
REMARK    5  A    between atoms: C_13  and  C_14
REMARK                            x       y       z     vdW  Elec       q    Type
REMARK                         _______ _______ _______ _____ _____    ______ ____
ROOT
ATOM      1  C   UNL     1       6.281   5.985  16.544  0.00  0.00    +0.000 C 
ATOM      2  C   UNL     1       6.954   4.878  15.714  0.00  0.00    +0.000 C 
ATOM      3  C   UNL     1       5.802   4.009  15.227  0.00  0.00    +0.000 C 
ATOM      4  C   UNL     1       4.743   4.206  16.281  0.00  0.00    +0.000 C 
ATOM      5  O   UNL     1       3.760   3.493  16.405  0.00  0.00    +0.000 OA
ATOM      6  N   UNL     1       5.040   5.375  16.981  0.00  0.00    +0.000 N 
ENDROOT
BRANCH   6   7
ATOM      7  C   UNL     1       4.173   5.958  17.924  0.00  0.00    +0.000 A 
ATOM      8  C   UNL     1       3.691   7.251  17.704  0.00  0.00    +0.000 A 
ATOM      9  C   UNL     1       2.729   7.798  18.555  0.00  0.00    +0.000 A 
ATOM     10  C   UNL     1       2.284   7.081  19.674  0.00  0.00    +0.000 A 
ATOM     11  C   UNL     1       2.814   5.812  19.928  0.00  0.00    +0.000 A 
ATOM     12 CL   UNL     1       2.369   4.896  21.325  0.00  0.00    +0.000 Cl
ATOM     13  C   UNL     1       3.738   5.242  19.043  0.00  0.00    +0.000 A 
BRANCH  10  14
ATOM     14  C   UNL     1       1.280   7.665  20.511  0.00  0.00    +0.000 C 
ATOM     15  N   UNL     1       0.488   8.135  21.215  0.00  0.00    +0.000 NA
ENDBRANCH  10  14
ENDBRANCH   6   7
BRANCH   1  17
ATOM     16  C   UNL     1       7.707   7.916  17.534  0.00  0.00    +0.000 C 
ATOM     17  C   UNL     1       7.182   6.489  17.693  0.00  0.00    +0.000 C 
ENDBRANCH   1  17
BRANCH   2  18
ATOM     18  O   UNL     1       7.712   5.409  14.634  0.00  0.00    +0.000 OA
ATOM     19  H   UNL     1       8.383   4.759  14.361  0.00  0.00    +0.000 HD
ENDBRANCH   2  18
TORSDOF 4
ENDMDL
MODEL 6
REMARK VINA RESULT:      -6.4      2.379      2.846
REMARK  Name = 
REMARK  5 active torsions:
REMARK  status: ('A' for Active; 'I' for Inactive)
REMARK    1  A    between atoms: C_1  and  C_2
REMARK    2  A    between atoms: C_2  and  C_3
REMARK    3  A    between atoms: C_4  and  O_5
REMARK    4  A    between atoms: N_9  and  C_10
REMARK    5  A    between atoms: C_13  and  C_14
REMARK                            x       y       z     vdW  Elec       q    Type
REMARK                         _______ _______ _______ _____ _____    ______ ____
ROOT
ATOM      1  C   UNL     1       2.366   3.670  19.468  0.00  0.00    +0.000 C 
ATOM      2  C   UNL     1       1.737   2.748  20.527  0.00  0.00    +0.000 C 
ATOM      3  C   UNL     1       2.912   2.275  21.371  0.00  0.00    +0.000 C 
ATOM      4  C   UNL     1       4.079   2.344  20.419  0.00  0.00    +0.000 C 
ATOM      5  O   UNL     1       5.160   1.813  20.621  0.00  0.00    +0.000 OA
ATOM      6  N   UNL     1       3.731   3.191  19.367  0.00  0.00    +0.000 N 
ENDROOT
BRANCH   6   7
ATOM      7  C   UNL     1       4.639   3.622  18.382  0.00  0.00    +0.000 A 
ATOM      8  C   UNL     1       4.570   3.075  17.099  0.00  0.00    +0.000 A 
ATOM      9  C   UNL     1       5.371   3.581  16.074  0.00  0.00    +0.000 A 
ATOM     10  C   UNL     1       6.296   4.600  16.336  0.00  0.00    +0.000 A 
ATOM     11  C   UNL     1       6.407   5.104  17.635  0.00  0.00    +0.000 A 
ATOM     12 CL   UNL     1       7.573   6.311  18.053  0.00  0.00    +0.000 Cl
ATOM     13  C   UNL     1       5.565   4.634  18.650  0.00  0.00    +0.000 A 
BRANCH  10  14
ATOM     14  C   UNL     1       7.084   5.109  15.255  0.00  0.00    +0.000 C 
ATOM     15  N   UNL     1       7.704   5.504  14.358  0.00  0.00    +0.000 NA
ENDBRANCH  10  14
ENDBRANCH   6   7
BRANCH   1  17
ATOM     16  C   UNL     1       1.419   5.015  17.459  0.00  0.00    +0.000 C 
ATOM     17  C   UNL     1       1.585   3.655  18.135  0.00  0.00    +0.000 C 
ENDBRANCH   1  17
BRANCH   2  18
ATOM     18  O   UNL     1       0.760   3.424  21.309  0.00  0.00    +0.000 OA
ATOM     19  H   UNL     1       0.841   3.144  22.237  0.00  0.00    +0.000 HD
ENDBRANCH   2  18
TORSDOF 4
ENDMDL
MODEL 7
REMARK VINA RESULT:      -6.2      2.258      3.052
REMARK  Name = 
REMARK  5 active torsions:
REMARK  status: ('A' for Active; 'I' for Inactive)
REMARK    1  A    between atoms: C_1  and  C_2
REMARK    2  A    between atoms: C_2  and  C_3
REMARK    3  A    between atoms: C_4  and  O_5
REMARK    4  A    between atoms: N_9  and  C_10
REMARK    5  A    between atoms: C_13  and  C_14
REMARK                            x       y       z     vdW  Elec       q    Type
REMARK                         _______ _______ _______ _____ _____    ______ ____
ROOT
ATOM      1  C   UNL     1       2.342   4.359  19.020  0.00  0.00    +0.000 C 
ATOM      2  C   UNL     1       1.250   3.464  19.631  0.00  0.00    +0.000 C 
ATOM      3  C   UNL     1       1.936   2.125  19.864  0.00  0.00    +0.000 C 
ATOM      4  C   UNL     1       3.025   2.102  18.823  0.00  0.00    +0.000 C 
ATOM      5  O   UNL     1       3.644   1.100  18.502  0.00  0.00    +0.000 OA
ATOM      6  N   UNL     1       3.249   3.413  18.401  0.00  0.00    +0.000 N 
ENDROOT
BRANCH   6   7
ATOM      7  C   UNL     1       4.314   3.788  17.560  0.00  0.00    +0.000 A 
ATOM      8  C   UNL     1       4.258   3.469  16.201  0.00  0.00    +0.000 A 
ATOM      9  C   UNL     1       5.235   3.945  15.325  0.00  0.00    +0.000 A 
ATOM     10  C   UNL     1       6.316   4.693  15.811  0.00  0.00    +0.000 A 
ATOM     11  C   UNL     1       6.403   4.959  17.180  0.00  0.00    +0.000 A 
ATOM     12 CL   UNL     1       7.741   5.815  17.864  0.00  0.00    +0.000 Cl
ATOM     13  C   UNL     1       5.393   4.529  18.049  0.00  0.00    +0.000 A 
BRANCH  10  14
ATOM     14  C   UNL     1       7.287   5.184  14.880  0.00  0.00    +0.000 C 
ATOM     15  N   UNL     1       8.084   5.550  14.121  0.00  0.00    +0.000 NA
ENDBRANCH  10  14
ENDBRANCH   6   7
BRANCH   1  17
ATOM     16  C   UNL     1       2.363   6.814  18.176  0.00  0.00    +0.000 C 
ATOM     17  C   UNL     1       1.764   5.414  18.051  0.00  0.00    +0.000 C 
ENDBRANCH   1  17
BRANCH   2  18
ATOM     18  O   UNL     1       0.727   4.009  20.836  0.00  0.00    +0.000 OA
ATOM     19  H   UNL     1       1.437   4.468  21.317  0.00  0.00    +0.000 HD
ENDBRANCH   2  18
TORSDOF 4
ENDMDL
MODEL 8
REMARK VINA RESULT:      -6.2      3.980      4.930
REMARK  Name = 
REMARK  5 active torsions:
REMARK  status: ('A' for Active; 'I' for Inactive)
REMARK    1  A    between atoms: C_1  and  C_2
REMARK    2  A    between atoms: C_2  and  C_3
REMARK    3  A    between atoms: C_4  and  O_5
REMARK    4  A    between atoms: N_9  and  C_10
REMARK    5  A    between atoms: C_13  and  C_14
REMARK                            x       y       z     vdW  Elec       q    Type
REMARK                         _______ _______ _______ _____ _____    ______ ____
ROOT
ATOM      1  C   UNL     1       3.104   4.590  18.239  0.00  0.00    +0.000 C 
ATOM      2  C   UNL     1       4.105   3.758  17.419  0.00  0.00    +0.000 C 
ATOM      3  C   UNL     1       5.356   4.623  17.347  0.00  0.00    +0.000 C 
ATOM      4  C   UNL     1       4.820   6.027  17.472  0.00  0.00    +0.000 C 
ATOM      5  O   UNL     1       5.463   7.030  17.209  0.00  0.00    +0.000 OA
ATOM      6  N   UNL     1       3.543   5.955  18.028  0.00  0.00    +0.000 N 
ENDROOT
BRANCH   6   7
ATOM      7  C   UNL     1       2.812   7.084  18.444  0.00  0.00    +0.000 A 
ATOM      8  C   UNL     1       2.465   8.060  17.507  0.00  0.00    +0.000 A 
ATOM      9  C   UNL     1       1.630   9.118  17.869  0.00  0.00    +0.000 A 
ATOM     10  C   UNL     1       1.183   9.246  19.191  0.00  0.00    +0.000 A 
ATOM     11  C   UNL     1       1.581   8.303  20.142  0.00  0.00    +0.000 A 
ATOM     12 CL   UNL     1       1.129   8.431  21.806  0.00  0.00    +0.000 Cl
ATOM     13  C   UNL     1       2.374   7.211  19.765  0.00  0.00    +0.000 A 
BRANCH  10  14
ATOM     14  C   UNL     1       0.309  10.332  19.520  0.00  0.00    +0.000 C 
ATOM     15  N   UNL     1      -0.373  11.227  19.801  0.00  0.00    +0.000 NA
ENDBRANCH  10  14
ENDBRANCH   6   7
BRANCH   1  17
ATOM     16  C   UNL     1       0.971   3.136  18.526  0.00  0.00    +0.000 C 
ATOM     17  C   UNL     1       1.639   4.321  17.829  0.00  0.00    +0.000 C 
ENDBRANCH   1  17
BRANCH   2  18
ATOM     18  O   UNL     1       4.366   2.496  18.019  0.00  0.00    +0.000 OA
ATOM     19  H   UNL     1       3.538   1.988  18.076  0.00  0.00    +0.000 HD
ENDBRANCH   2  18
TORSDOF 4
ENDMDL
MODEL 9
REMARK VINA RESULT:      -6.2      2.318      3.542
REMARK  Name = 
REMARK  5 active torsions:
REMARK  status: ('A' for Active; 'I' for Inactive)
REMARK    1  A    between atoms: C_1  and  C_2
REMARK    2  A    between atoms: C_2  and  C_3
REMARK    3  A    between atoms: C_4  and  O_5
REMARK    4  A    between atoms: N_9  and  C_10
REMARK    5  A    between atoms: C_13  and  C_14
REMARK                            x       y       z     vdW  Elec       q    Type
REMARK                         _______ _______ _______ _____ _____    ______ ____
ROOT
ATOM      1  C   UNL     1       2.708   6.296  19.410  0.00  0.00    +0.000 C 
ATOM      2  C   UNL     1       1.667   5.756  20.405  0.00  0.00    +0.000 C 
ATOM      3  C   UNL     1       2.318   4.520  21.009  0.00  0.00    +0.000 C 
ATOM      4  C   UNL     1       3.260   4.055  19.928  0.00  0.00    +0.000 C 
ATOM      5  O   UNL     1       3.788   2.954  19.907  0.00  0.00    +0.000 OA
ATOM      6  N   UNL     1       3.484   5.123  19.060  0.00  0.00    +0.000 N 
ENDROOT
BRANCH   6   7
ATOM      7  C   UNL     1       4.445   5.101  18.032  0.00  0.00    +0.000 A 
ATOM      8  C   UNL     1       4.289   4.209  16.968  0.00  0.00    +0.000 A 
ATOM      9  C   UNL     1       5.154   4.260  15.874  0.00  0.00    +0.000 A 
ATOM     10  C   UNL     1       6.225   5.164  15.860  0.00  0.00    +0.000 A 
ATOM     11  C   UNL     1       6.417   6.013  16.954  0.00  0.00    +0.000 A 
ATOM     12 CL   UNL     1       7.754   7.105  17.043  0.00  0.00    +0.000 Cl
ATOM     13  C   UNL     1       5.516   5.999  18.025  0.00  0.00    +0.000 A 
BRANCH  10  14
ATOM     14  C   UNL     1       7.078   5.203  14.711  0.00  0.00    +0.000 C 
ATOM     15  N   UNL     1       7.795   5.228  13.799  0.00  0.00    +0.000 NA
ENDBRANCH  10  14
ENDBRANCH   6   7
BRANCH   1  17
ATOM     16  C   UNL     1       2.601   8.403  17.895  0.00  0.00    +0.000 C 
ATOM     17  C   UNL     1       2.055   7.010  18.205  0.00  0.00    +0.000 C 
ENDBRANCH   1  17
BRANCH   2  18
ATOM     18  O   UNL     1       1.330   6.717  21.398  0.00  0.00    +0.000 OA
ATOM     19  H   UNL     1       0.464   7.108  21.187  0.00  0.00    +0.000 HD
ENDBRANCH   2  18
TORSDOF 4
ENDMDL
