MODEL 1
REMARK VINA RESULT:      -6.2      0.000      0.000
REMARK  Name = 
REMARK  11 active torsions:
REMARK  status: ('A' for Active; 'I' for Inactive)
REMARK    1  A    between atoms: C_1  and  C_2
REMARK    2  A    between atoms: C_2  and  O_3
REMARK    3  A    between atoms: C_2  and  C_4
REMARK    4  A    between atoms: C_4  and  N_5
REMARK    5  A    between atoms: N_5  and  C_17
REMARK    6  A    between atoms: N_8  and  C_9
REMARK    7  A    between atoms: C_9  and  C_10
REMARK    8  A    between atoms: C_10  and  C_11
REMARK    9  A    between atoms: C_11  and  N_12
REMARK   10  A    between atoms: C_17  and  C_18
REMARK   11  A    between atoms: C_17  and  C_19
REMARK                            x       y       z     vdW  Elec       q    Type
REMARK                         _______ _______ _______ _____ _____    ______ ____
ROOT
ATOM      1  N   UNL     1       5.724   5.879  17.602  0.00  0.00    +0.000 N 
ATOM      2  C   UNL     1       4.555   5.614  18.317  0.00  0.00    +0.000 C 
ATOM      3  O   UNL     1       4.512   5.570  19.542  0.00  0.00    +0.000 OA
ATOM      4  N   UNL     1       3.424   5.427  17.562  0.00  0.00    +0.000 N 
ATOM      5  H   UNL     1       3.556   5.055  16.628  0.00  0.00    +0.000 HD
ENDROOT
BRANCH   1   6
ATOM      6  C   UNL     1       6.973   6.185  18.342  0.00  0.00    +0.000 C 
ATOM      7  C   UNL     1       7.897   4.968  18.468  0.00  0.00    +0.000 C 
ATOM      8  C   UNL     1       7.736   7.387  17.784  0.00  0.00    +0.000 C 
ENDBRANCH   1   6
BRANCH   1   9
ATOM      9  C   UNL     1       5.764   6.084  16.138  0.00  0.00    +0.000 C 
BRANCH   9  11
ATOM     10  C   UNL     1       5.538   4.287  14.297  0.00  0.00    +0.000 C 
ATOM     11  C   UNL     1       6.426   4.935  15.352  0.00  0.00    +0.000 C 
BRANCH  11  12
ATOM     12  O   UNL     1       7.632   5.400  14.739  0.00  0.00    +0.000 OA
ATOM     13  H   UNL     1       8.344   5.259  15.391  0.00  0.00    +0.000 HD
ENDBRANCH  11  12
ENDBRANCH   9  11
ENDBRANCH   1   9
BRANCH   4  14
ATOM     14  C   UNL     1       2.131   5.198  18.186  0.00  0.00    +0.000 C 
BRANCH  14  15
ATOM     15  C   UNL     1       1.456   3.925  17.672  0.00  0.00    +0.000 C 
BRANCH  15  16
ATOM     16  C   UNL     1       1.212   2.931  18.809  0.00  0.00    +0.000 C 
BRANCH  16  17
ATOM     17  N   UNL     1       2.427   2.572  19.516  0.00  0.00    +0.000 N 
ATOM     18  C   UNL     1       3.563   2.049  18.961  0.00  0.00    +0.000 A 
ATOM     19  C   UNL     1       4.450   1.938  20.006  0.00  0.00    +0.000 A 
ATOM     20  N   UNL     1       3.885   2.386  21.173  0.00  0.00    +0.000 NA
ATOM     21  C   UNL     1       2.669   2.765  20.845  0.00  0.00    +0.000 A 
ENDBRANCH  16  17
ENDBRANCH  15  16
ENDBRANCH  14  15
ENDBRANCH   4  14
TORSDOF 8
ENDMDL
MODEL 2
REMARK VINA RESULT:      -5.8      1.866      2.993
REMARK  Name = 
REMARK  11 active torsions:
REMARK  status: ('A' for Active; 'I' for Inactive)
REMARK    1  A    between atoms: C_1  and  C_2
REMARK    2  A    between atoms: C_2  and  O_3
REMARK    3  A    between atoms: C_2  and  C_4
REMARK    4  A    between atoms: C_4  and  N_5
REMARK    5  A    between atoms: N_5  and  C_17
REMARK    6  A    between atoms: N_8  and  C_9
REMARK    7  A    between atoms: C_9  and  C_10
REMARK    8  A    between atoms: C_10  and  C_11
REMARK    9  A    between atoms: C_11  and  N_12
REMARK   10  A    between atoms: C_17  and  C_18
REMARK   11  A    between atoms: C_17  and  C_19
REMARK                            x       y       z     vdW  Elec       q    Type
REMARK                         _______ _______ _______ _____ _____    ______ ____
ROOT
ATOM      1  N   UNL     1       5.269   5.533  18.186  0.00  0.00    +0.000 N 
ATOM      2  C   UNL     1       3.913   5.753  18.430  0.00  0.00    +0.000 C 
ATOM      3  O   UNL     1       3.070   5.804  17.541  0.00  0.00    +0.000 OA
ATOM      4  N   UNL     1       3.559   5.887  19.749  0.00  0.00    +0.000 N 
ATOM      5  H   UNL     1       4.264   6.257  20.376  0.00  0.00    +0.000 HD
ENDROOT
BRANCH   1   6
ATOM      6  C   UNL     1       5.726   5.286  16.796  0.00  0.00    +0.000 C 
ATOM      7  C   UNL     1       5.313   3.904  16.276  0.00  0.00    +0.000 C 
ATOM      8  C   UNL     1       5.311   6.380  15.812  0.00  0.00    +0.000 C 
ENDBRANCH   1   6
BRANCH   1   9
ATOM      9  C   UNL     1       6.272   5.319  19.252  0.00  0.00    +0.000 C 
BRANCH   9  11
ATOM     10  C   UNL     1       7.948   7.097  18.413  0.00  0.00    +0.000 C 
ATOM     11  C   UNL     1       7.720   5.652  18.840  0.00  0.00    +0.000 C 
BRANCH  11  12
ATOM     12  O   UNL     1       8.614   5.325  19.908  0.00  0.00    +0.000 OA
ATOM     13  H   UNL     1       9.001   4.456  19.686  0.00  0.00    +0.000 HD
ENDBRANCH  11  12
ENDBRANCH   9  11
ENDBRANCH   1   9
BRANCH   4  14
ATOM     14  C   UNL     1       2.170   6.066  20.142  0.00  0.00    +0.000 C 
BRANCH  14  15
ATOM     15  C   UNL     1       1.668   4.927  21.032  0.00  0.00    +0.000 C 
BRANCH  15  16
ATOM     16  C   UNL     1       0.951   3.857  20.207  0.00  0.00    +0.000 C 
BRANCH  16  17
ATOM     17  N   UNL     1       1.860   3.051  19.413  0.00  0.00    +0.000 N 
ATOM     18  C   UNL     1       2.980   2.410  19.866  0.00  0.00    +0.000 A 
ATOM     19  C   UNL     1       3.468   1.733  18.773  0.00  0.00    +0.000 A 
ATOM     20  N   UNL     1       2.671   1.942  17.677  0.00  0.00    +0.000 NA
ATOM     21  C   UNL     1       1.709   2.735  18.094  0.00  0.00    +0.000 A 
ENDBRANCH  16  17
ENDBRANCH  15  16
ENDBRANCH  14  15
ENDBRANCH   4  14
TORSDOF 8
ENDMDL
MODEL 3
REMARK VINA RESULT:      -5.8      1.594      1.937
REMARK  Name = 
REMARK  11 active torsions:
REMARK  status: ('A' for Active; 'I' for Inactive)
REMARK    1  A    between atoms: C_1  and  C_2
REMARK    2  A    between atoms: C_2  and  O_3
REMARK    3  A    between atoms: C_2  and  C_4
REMARK    4  A    between atoms: C_4  and  N_5
REMARK    5  A    between atoms: N_5  and  C_17
REMARK    6  A    between atoms: N_8  and  C_9
REMARK    7  A    between atoms: C_9  and  C_10
REMARK    8  A    between atoms: C_10  and  C_11
REMARK    9  A    between atoms: C_11  and  N_12
REMARK   10  A    between atoms: C_17  and  C_18
REMARK   11  A    between atoms: C_17  and  C_19
REMARK                            x       y       z     vdW  Elec       q    Type
REMARK                         _______ _______ _______ _____ _____    ______ ____
ROOT
ATOM      1  N   UNL     1       6.497   4.897  17.655  0.00  0.00    +0.000 N 
ATOM      2  C   UNL     1       5.376   4.228  18.147  0.00  0.00    +0.000 C 
ATOM      3  O   UNL     1       4.809   4.541  19.188  0.00  0.00    +0.000 OA
ATOM      4  N   UNL     1       4.913   3.192  17.373  0.00  0.00    +0.000 N 
ATOM      5  H   UNL     1       5.597   2.708  16.803  0.00  0.00    +0.000 HD
ENDROOT
BRANCH   1   6
ATOM      6  C   UNL     1       7.008   6.086  18.381  0.00  0.00    +0.000 C 
ATOM      7  C   UNL     1       8.028   5.721  19.466  0.00  0.00    +0.000 C 
ATOM      8  C   UNL     1       7.564   7.173  17.460  0.00  0.00    +0.000 C 
ENDBRANCH   1   6
BRANCH   1   9
ATOM      9  C   UNL     1       7.100   4.630  16.332  0.00  0.00    +0.000 C 
BRANCH   9  11
ATOM     10  C   UNL     1       5.941   4.109  14.082  0.00  0.00    +0.000 C 
ATOM     11  C   UNL     1       6.277   5.155  15.138  0.00  0.00    +0.000 C 
BRANCH  11  12
ATOM     12  O   UNL     1       5.069   5.758  15.612  0.00  0.00    +0.000 OA
ATOM     13  H   UNL     1       5.309   6.656  15.910  0.00  0.00    +0.000 HD
ENDBRANCH  11  12
ENDBRANCH   9  11
ENDBRANCH   1   9
BRANCH   4  14
ATOM     14  C   UNL     1       3.719   2.449  17.744  0.00  0.00    +0.000 C 
BRANCH  14  15
ATOM     15  C   UNL     1       2.435   3.166  17.321  0.00  0.00    +0.000 C 
BRANCH  15  16
ATOM     16  C   UNL     1       1.297   2.885  18.303  0.00  0.00    +0.000 C 
BRANCH  16  17
ATOM     17  N   UNL     1       1.582   3.353  19.647  0.00  0.00    +0.000 N 
ATOM     18  C   UNL     1       1.815   2.570  20.744  0.00  0.00    +0.000 A 
ATOM     19  C   UNL     1       2.096   3.456  21.758  0.00  0.00    +0.000 A 
ATOM     20  N   UNL     1       2.045   4.748  21.302  0.00  0.00    +0.000 NA
ATOM     21  C   UNL     1       1.737   4.654  20.028  0.00  0.00    +0.000 A 
ENDBRANCH  16  17
ENDBRANCH  15  16
ENDBRANCH  14  15
ENDBRANCH   4  14
TORSDOF 8
ENDMDL
MODEL 4
REMARK VINA RESULT:      -5.7      1.859      2.878
REMARK  Name = 
REMARK  11 active torsions:
REMARK  status: ('A' for Active; 'I' for Inactive)
REMARK    1  A    between atoms: C_1  and  C_2
REMARK    2  A    between atoms: C_2  and  O_3
REMARK    3  A    between atoms: C_2  and  C_4
REMARK    4  A    between atoms: C_4  and  N_5
REMARK    5  A    between atoms: N_5  and  C_17
REMARK    6  A    between atoms: N_8  and  C_9
REMARK    7  A    between atoms: C_9  and  C_10
REMARK    8  A    between atoms: C_10  and  C_11
REMARK    9  A    between atoms: C_11  and  N_12
REMARK   10  A    between atoms: C_17  and  C_18
REMARK   11  A    between atoms: C_17  and  C_19
REMARK                            x       y       z     vdW  Elec       q    Type
REMARK                         _______ _______ _______ _____ _____    ______ ____
ROOT
ATOM      1  N   UNL     1       5.040   5.514  18.287  0.00  0.00    +0.000 N 
ATOM      2  C   UNL     1       3.691   5.720  18.575  0.00  0.00    +0.000 C 
ATOM      3  O   UNL     1       2.821   5.782  17.713  0.00  0.00    +0.000 OA
ATOM      4  N   UNL     1       3.376   5.825  19.907  0.00  0.00    +0.000 N 
ATOM      5  H   UNL     1       4.097   6.189  20.519  0.00  0.00    +0.000 HD
ENDROOT
BRANCH   1   6
ATOM      6  C   UNL     1       5.456   5.298  16.879  0.00  0.00    +0.000 C 
ATOM      7  C   UNL     1       4.949   3.968  16.311  0.00  0.00    +0.000 C 
ATOM      8  C   UNL     1       5.094   6.457  15.948  0.00  0.00    +0.000 C 
ENDBRANCH   1   6
BRANCH   1   9
ATOM      9  C   UNL     1       6.076   5.287  19.317  0.00  0.00    +0.000 C 
BRANCH   9  11
ATOM     10  C   UNL     1       7.770   6.966  18.323  0.00  0.00    +0.000 C 
ATOM     11  C   UNL     1       7.518   5.555  18.841  0.00  0.00    +0.000 C 
BRANCH  11  12
ATOM     12  O   UNL     1       8.439   5.264  19.897  0.00  0.00    +0.000 OA
ATOM     13  H   UNL     1       8.108   4.457  20.335  0.00  0.00    +0.000 HD
ENDBRANCH  11  12
ENDBRANCH   9  11
ENDBRANCH   1   9
BRANCH   4  14
ATOM     14  C   UNL     1       1.998   5.986  20.345  0.00  0.00    +0.000 C 
BRANCH  14  15
ATOM     15  C   UNL     1       1.292   4.643  20.541  0.00  0.00    +0.000 C 
BRANCH  15  16
ATOM     16  C   UNL     1       2.179   3.661  21.310  0.00  0.00    +0.000 C 
BRANCH  16  17
ATOM     17  N   UNL     1       2.962   2.804  20.438  0.00  0.00    +0.000 N 
ATOM     18  C   UNL     1       2.562   2.292  19.235  0.00  0.00    +0.000 A 
ATOM     19  C   UNL     1       3.656   1.604  18.762  0.00  0.00    +0.000 A 
ATOM     20  N   UNL     1       4.704   1.694  19.641  0.00  0.00    +0.000 NA
ATOM     21  C   UNL     1       4.257   2.426  20.639  0.00  0.00    +0.000 A 
ENDBRANCH  16  17
ENDBRANCH  15  16
ENDBRANCH  14  15
ENDBRANCH   4  14
TORSDOF 8
ENDMDL
MODEL 5
REMARK VINA RESULT:      -5.7      1.690      2.973
REMARK  Name = 
REMARK  11 active torsions:
REMARK  status: ('A' for Active; 'I' for Inactive)
REMARK    1  A    between atoms: C_1  and  C_2
REMARK    2  A    between atoms: C_2  and  O_3
REMARK    3  A    between atoms: C_2  and  C_4
REMARK    4  A    between atoms: C_4  and  N_5
REMARK    5  A    between atoms: N_5  and  C_17
REMARK    6  A    between atoms: N_8  and  C_9
REMARK    7  A    between atoms: C_9  and  C_10
REMARK    8  A    between atoms: C_10  and  C_11
REMARK    9  A    between atoms: C_11  and  N_12
REMARK   10  A    between atoms: C_17  and  C_18
REMARK   11  A    between atoms: C_17  and  C_19
REMARK                            x       y       z     vdW  Elec       q    Type
REMARK                         _______ _______ _______ _____ _____    ______ ____
ROOT
ATOM      1  N   UNL     1       4.871   5.107  17.534  0.00  0.00    +0.000 N 
ATOM      2  C   UNL     1       3.743   5.588  18.198  0.00  0.00    +0.000 C 
ATOM      3  O   UNL     1       2.780   6.081  17.619  0.00  0.00    +0.000 OA
ATOM      4  N   UNL     1       3.754   5.456  19.565  0.00  0.00    +0.000 N 
ATOM      5  H   UNL     1       4.662   5.460  20.016  0.00  0.00    +0.000 HD
ENDROOT
BRANCH   1   6
ATOM      6  C   UNL     1       4.903   5.127  16.051  0.00  0.00    +0.000 C 
ATOM      7  C   UNL     1       5.372   6.474  15.488  0.00  0.00    +0.000 C 
ATOM      8  C   UNL     1       5.705   3.977  15.440  0.00  0.00    +0.000 C 
ENDBRANCH   1   6
BRANCH   1   9
ATOM      9  C   UNL     1       5.970   4.376  18.202  0.00  0.00    +0.000 C 
BRANCH   9  11
ATOM     10  C   UNL     1       7.806   5.824  19.300  0.00  0.00    +0.000 C 
ATOM     11  C   UNL     1       7.352   5.046  18.071  0.00  0.00    +0.000 C 
BRANCH  11  12
ATOM     12  O   UNL     1       8.337   4.062  17.740  0.00  0.00    +0.000 OA
ATOM     13  H   UNL     1       9.192   4.532  17.701  0.00  0.00    +0.000 HD
ENDBRANCH  11  12
ENDBRANCH   9  11
ENDBRANCH   1   9
BRANCH   4  14
ATOM     14  C   UNL     1       2.616   5.868  20.371  0.00  0.00    +0.000 C 
BRANCH  14  15
ATOM     15  C   UNL     1       2.078   4.728  21.239  0.00  0.00    +0.000 C 
BRANCH  15  16
ATOM     16  C   UNL     1       1.145   3.818  20.438  0.00  0.00    +0.000 C 
BRANCH  16  17
ATOM     17  N   UNL     1       1.851   2.977  19.490  0.00  0.00    +0.000 N 
ATOM     18  C   UNL     1       1.572   2.847  18.157  0.00  0.00    +0.000 A 
ATOM     19  C   UNL     1       2.541   2.000  17.673  0.00  0.00    +0.000 A 
ATOM     20  N   UNL     1       3.400   1.621  18.673  0.00  0.00    +0.000 NA
ATOM     21  C   UNL     1       2.961   2.228  19.754  0.00  0.00    +0.000 A 
ENDBRANCH  16  17
ENDBRANCH  15  16
ENDBRANCH  14  15
ENDBRANCH   4  14
TORSDOF 8
ENDMDL
MODEL 6
REMARK VINA RESULT:      -5.7      2.073      5.626
REMARK  Name = 
REMARK  11 active torsions:
REMARK  status: ('A' for Active; 'I' for Inactive)
REMARK    1  A    between atoms: C_1  and  C_2
REMARK    2  A    between atoms: C_2  and  O_3
REMARK    3  A    between atoms: C_2  and  C_4
REMARK    4  A    between atoms: C_4  and  N_5
REMARK    5  A    between atoms: N_5  and  C_17
REMARK    6  A    between atoms: N_8  and  C_9
REMARK    7  A    between atoms: C_9  and  C_10
REMARK    8  A    between atoms: C_10  and  C_11
REMARK    9  A    between atoms: C_11  and  N_12
REMARK   10  A    between atoms: C_17  and  C_18
REMARK   11  A    between atoms: C_17  and  C_19
REMARK                            x       y       z     vdW  Elec       q    Type
REMARK                         _______ _______ _______ _____ _____    ______ ____
ROOT
ATOM      1  N   UNL     1       3.058   3.760  19.270  0.00  0.00    +0.000 N 
ATOM      2  C   UNL     1       3.393   3.362  17.976  0.00  0.00    +0.000 C 
ATOM      3  O   UNL     1       3.021   2.304  17.480  0.00  0.00    +0.000 OA
ATOM      4  N   UNL     1       4.156   4.249  17.258  0.00  0.00    +0.000 N 
ATOM      5  H   UNL     1       4.771   4.855  17.789  0.00  0.00    +0.000 HD
ENDROOT
BRANCH   1   6
ATOM      6  C   UNL     1       2.160   2.903  20.083  0.00  0.00    +0.000 C 
ATOM      7  C   UNL     1       2.495   2.947  21.578  0.00  0.00    +0.000 C 
ATOM      8  C   UNL     1       0.674   3.182  19.854  0.00  0.00    +0.000 C 
ENDBRANCH   1   6
BRANCH   1   9
ATOM      9  C   UNL     1       3.370   5.093  19.828  0.00  0.00    +0.000 C 
BRANCH   9  11
ATOM     10  C   UNL     1       1.984   7.207  20.362  0.00  0.00    +0.000 C 
ATOM     11  C   UNL     1       2.474   6.231  19.300  0.00  0.00    +0.000 C 
BRANCH  11  12
ATOM     12  O   UNL     1       3.161   6.952  18.272  0.00  0.00    +0.000 OA
ATOM     13  H   UNL     1       3.307   6.319  17.543  0.00  0.00    +0.000 HD
ENDBRANCH  11  12
ENDBRANCH   9  11
ENDBRANCH   1   9
BRANCH   4  14
ATOM     14  C   UNL     1       4.527   3.980  15.878  0.00  0.00    +0.000 C 
BRANCH  14  15
ATOM     15  C   UNL     1       6.037   3.804  15.707  0.00  0.00    +0.000 C 
BRANCH  15  16
ATOM     16  C   UNL     1       6.753   5.157  15.699  0.00  0.00    +0.000 C 
BRANCH  16  17
ATOM     17  N   UNL     1       7.284   5.523  16.998  0.00  0.00    +0.000 N 
ATOM     18  C   UNL     1       7.410   6.792  17.494  0.00  0.00    +0.000 A 
ATOM     19  C   UNL     1       7.897   6.628  18.769  0.00  0.00    +0.000 A 
ATOM     20  N   UNL     1       8.061   5.298  19.060  0.00  0.00    +0.000 NA
ATOM     21  C   UNL     1       7.680   4.658  17.976  0.00  0.00    +0.000 A 
ENDBRANCH  16  17
ENDBRANCH  15  16
ENDBRANCH  14  15
ENDBRANCH   4  14
TORSDOF 8
ENDMDL
MODEL 7
REMARK VINA RESULT:      -5.6      1.459      1.886
REMARK  Name = 
REMARK  11 active torsions:
REMARK  status: ('A' for Active; 'I' for Inactive)
REMARK    1  A    between atoms: C_1  and  C_2
REMARK    2  A    between atoms: C_2  and  O_3
REMARK    3  A    between atoms: C_2  and  C_4
REMARK    4  A    between atoms: C_4  and  N_5
REMARK    5  A    between atoms: N_5  and  C_17
REMARK    6  A    between atoms: N_8  and  C_9
REMARK    7  A    between atoms: C_9  and  C_10
REMARK    8  A    between atoms: C_10  and  C_11
REMARK    9  A    between atoms: C_11  and  N_12
REMARK   10  A    between atoms: C_17  and  C_18
REMARK   11  A    between atoms: C_17  and  C_19
REMARK                            x       y       z     vdW  Elec       q    Type
REMARK                         _______ _______ _______ _____ _____    ______ ____
ROOT
ATOM      1  N   UNL     1       6.341   5.060  17.523  0.00  0.00    +0.000 N 
ATOM      2  C   UNL     1       5.022   4.684  17.777  0.00  0.00    +0.000 C 
ATOM      3  O   UNL     1       4.333   5.198  18.652  0.00  0.00    +0.000 OA
ATOM      4  N   UNL     1       4.514   3.704  16.962  0.00  0.00    +0.000 N 
ATOM      5  H   UNL     1       5.177   3.039  16.579  0.00  0.00    +0.000 HD
ENDROOT
BRANCH   1   6
ATOM      6  C   UNL     1       6.940   6.175  18.296  0.00  0.00    +0.000 C 
ATOM      7  C   UNL     1       7.917   5.690  19.373  0.00  0.00    +0.000 C 
ATOM      8  C   UNL     1       7.588   7.249  17.421  0.00  0.00    +0.000 C 
ENDBRANCH   1   6
BRANCH   1   9
ATOM      9  C   UNL     1       7.133   4.558  16.380  0.00  0.00    +0.000 C 
BRANCH   9  11
ATOM     10  C   UNL     1       6.274   3.965  14.017  0.00  0.00    +0.000 C 
ATOM     11  C   UNL     1       6.656   5.062  15.003  0.00  0.00    +0.000 C 
BRANCH  11  12
ATOM     12  O   UNL     1       5.552   5.957  15.171  0.00  0.00    +0.000 OA
ATOM     13  H   UNL     1       4.846   5.443  15.606  0.00  0.00    +0.000 HD
ENDBRANCH  11  12
ENDBRANCH   9  11
ENDBRANCH   1   9
BRANCH   4  14
ATOM     14  C   UNL     1       3.134   3.260  17.086  0.00  0.00    +0.000 C 
BRANCH  14  15
ATOM     15  C   UNL     1       3.017   1.935  17.841  0.00  0.00    +0.000 C 
BRANCH  15  16
ATOM     16  C   UNL     1       1.813   1.941  18.784  0.00  0.00    +0.000 C 
BRANCH  16  17
ATOM     17  N   UNL     1       1.876   2.999  19.775  0.00  0.00    +0.000 N 
ATOM     18  C   UNL     1       1.161   4.165  19.763  0.00  0.00    +0.000 A 
ATOM     19  C   UNL     1       1.510   4.807  20.928  0.00  0.00    +0.000 A 
ATOM     20  N   UNL     1       2.408   4.059  21.645  0.00  0.00    +0.000 NA
ATOM     21  C   UNL     1       2.606   2.974  20.928  0.00  0.00    +0.000 A 
ENDBRANCH  16  17
ENDBRANCH  15  16
ENDBRANCH  14  15
ENDBRANCH   4  14
TORSDOF 8
ENDMDL
MODEL 8
REMARK VINA RESULT:      -5.6      1.972      3.883
REMARK  Name = 
REMARK  11 active torsions:
REMARK  status: ('A' for Active; 'I' for Inactive)
REMARK    1  A    between atoms: C_1  and  C_2
REMARK    2  A    between atoms: C_2  and  O_3
REMARK    3  A    between atoms: C_2  and  C_4
REMARK    4  A    between atoms: C_4  and  N_5
REMARK    5  A    between atoms: N_5  and  C_17
REMARK    6  A    between atoms: N_8  and  C_9
REMARK    7  A    between atoms: C_9  and  C_10
REMARK    8  A    between atoms: C_10  and  C_11
REMARK    9  A    between atoms: C_11  and  N_12
REMARK   10  A    between atoms: C_17  and  C_18
REMARK   11  A    between atoms: C_17  and  C_19
REMARK                            x       y       z     vdW  Elec       q    Type
REMARK                         _______ _______ _______ _____ _____    ______ ____
ROOT
ATOM      1  N   UNL     1       6.044   4.434  16.945  0.00  0.00    +0.000 N 
ATOM      2  C   UNL     1       4.954   3.801  17.542  0.00  0.00    +0.000 C 
ATOM      3  O   UNL     1       3.863   3.681  16.994  0.00  0.00    +0.000 OA
ATOM      4  N   UNL     1       5.177   3.284  18.794  0.00  0.00    +0.000 N 
ATOM      5  H   UNL     1       5.882   3.744  19.358  0.00  0.00    +0.000 HD
ENDROOT
BRANCH   1   6
ATOM      6  C   UNL     1       5.917   4.941  15.556  0.00  0.00    +0.000 C 
ATOM      7  C   UNL     1       5.257   6.323  15.490  0.00  0.00    +0.000 C 
ATOM      8  C   UNL     1       7.234   4.932  14.778  0.00  0.00    +0.000 C 
ENDBRANCH   1   6
BRANCH   1   9
ATOM      9  C   UNL     1       7.403   4.454  17.526  0.00  0.00    +0.000 C 
BRANCH   9  11
ATOM     10  C   UNL     1       7.465   7.007  17.919  0.00  0.00    +0.000 C 
ATOM     11  C   UNL     1       7.659   5.615  18.508  0.00  0.00    +0.000 C 
BRANCH  11  12
ATOM     12  O   UNL     1       6.825   5.466  19.662  0.00  0.00    +0.000 OA
ATOM     13  H   UNL     1       6.959   4.553  19.981  0.00  0.00    +0.000 HD
ENDBRANCH  11  12
ENDBRANCH   9  11
ENDBRANCH   1   9
BRANCH   4  14
ATOM     14  C   UNL     1       4.140   2.552  19.503  0.00  0.00    +0.000 C 
BRANCH  14  15
ATOM     15  C   UNL     1       3.343   3.449  20.452  0.00  0.00    +0.000 C 
BRANCH  15  16
ATOM     16  C   UNL     1       2.091   4.002  19.768  0.00  0.00    +0.000 C 
BRANCH  16  17
ATOM     17  N   UNL     1       2.065   5.452  19.724  0.00  0.00    +0.000 N 
ATOM     18  C   UNL     1       1.697   6.286  20.743  0.00  0.00    +0.000 A 
ATOM     19  C   UNL     1       1.895   7.555  20.251  0.00  0.00    +0.000 A 
ATOM     20  N   UNL     1       2.378   7.509  18.968  0.00  0.00    +0.000 NA
ATOM     21  C   UNL     1       2.473   6.230  18.680  0.00  0.00    +0.000 A 
ENDBRANCH  16  17
ENDBRANCH  15  16
ENDBRANCH  14  15
ENDBRANCH   4  14
TORSDOF 8
ENDMDL
MODEL 9
REMARK VINA RESULT:      -5.5      1.744      2.641
REMARK  Name = 
REMARK  11 active torsions:
REMARK  status: ('A' for Active; 'I' for Inactive)
REMARK    1  A    between atoms: C_1  and  C_2
REMARK    2  A    between atoms: C_2  and  O_3
REMARK    3  A    between atoms: C_2  and  C_4
REMARK    4  A    between atoms: C_4  and  N_5
REMARK    5  A    between atoms: N_5  and  C_17
REMARK    6  A    between atoms: N_8  and  C_9
REMARK    7  A    between atoms: C_9  and  C_10
REMARK    8  A    between atoms: C_10  and  C_11
REMARK    9  A    between atoms: C_11  and  N_12
REMARK   10  A    between atoms: C_17  and  C_18
REMARK   11  A    between atoms: C_17  and  C_19
REMARK                            x       y       z     vdW  Elec       q    Type
REMARK                         _______ _______ _______ _____ _____    ______ ____
ROOT
ATOM      1  N   UNL     1       6.566   4.903  17.758  0.00  0.00    +0.000 N 
ATOM      2  C   UNL     1       5.496   4.215  18.330  0.00  0.00    +0.000 C 
ATOM      3  O   UNL     1       5.012   4.508  19.418  0.00  0.00    +0.000 OA
ATOM      4  N   UNL     1       4.982   3.185  17.582  0.00  0.00    +0.000 N 
ATOM      5  H   UNL     1       5.622   2.716  16.951  0.00  0.00    +0.000 HD
ENDROOT
BRANCH   1   6
ATOM      6  C   UNL     1       7.123   6.088  18.456  0.00  0.00    +0.000 C 
ATOM      7  C   UNL     1       8.213   5.719  19.468  0.00  0.00    +0.000 C 
ATOM      8  C   UNL     1       7.613   7.184  17.509  0.00  0.00    +0.000 C 
ENDBRANCH   1   6
BRANCH   1   9
ATOM      9  C   UNL     1       7.062   4.661  16.386  0.00  0.00    +0.000 C 
BRANCH   9  11
ATOM     10  C   UNL     1       5.802   4.175  14.184  0.00  0.00    +0.000 C 
ATOM     11  C   UNL     1       6.136   5.188  15.271  0.00  0.00    +0.000 C 
BRANCH  11  12
ATOM     12  O   UNL     1       4.924   5.688  15.845  0.00  0.00    +0.000 OA
ATOM     13  H   UNL     1       4.671   5.057  16.544  0.00  0.00    +0.000 HD
ENDBRANCH  11  12
ENDBRANCH   9  11
ENDBRANCH   1   9
BRANCH   4  14
ATOM     14  C   UNL     1       3.830   2.423  18.039  0.00  0.00    +0.000 C 
BRANCH  14  15
ATOM     15  C   UNL     1       2.519   2.946  17.449  0.00  0.00    +0.000 C 
BRANCH  15  16
ATOM     16  C   UNL     1       1.562   3.404  18.551  0.00  0.00    +0.000 C 
BRANCH  16  17
ATOM     17  N   UNL     1       1.810   4.766  18.985  0.00  0.00    +0.000 N 
ATOM     18  C   UNL     1       1.764   5.227  20.272  0.00  0.00    +0.000 A 
ATOM     19  C   UNL     1       2.129   6.550  20.188  0.00  0.00    +0.000 A 
ATOM     20  N   UNL     1       2.402   6.897  18.890  0.00  0.00    +0.000 NA
ATOM     21  C   UNL     1       2.205   5.802  18.190  0.00  0.00    +0.000 A 
ENDBRANCH  16  17
ENDBRANCH  15  16
ENDBRANCH  14  15
ENDBRANCH   4  14
TORSDOF 8
ENDMDL
