MODEL 1
REMARK VINA RESULT:      -8.0      0.000      0.000
REMARK  Name = 
REMARK  4 active torsions:
REMARK  status: ('A' for Active; 'I' for Inactive)
REMARK    1  A    between atoms: C_2  and  C_11
REMARK    2  A    between atoms: N_3  and  C_4
REMARK    3  A    between atoms: C_4  and  C_5
REMARK    4  A    between atoms: C_13  and  C_14
REMARK                            x       y       z     vdW  Elec       q    Type
REMARK                         _______ _______ _______ _____ _____    ______ ____
ROOT
ATOM      1  O   UNL     1       5.313   6.276  14.999  0.00  0.00    +0.000 OA
ATOM      2  C   UNL     1       5.448   5.262  15.672  0.00  0.00    +0.000 C 
ATOM      3  N   UNL     1       6.072   4.135  15.179  0.00  0.00    +0.000 N 
ATOM      4  H   UNL     1       6.180   3.289  15.723  0.00  0.00    +0.000 HD
ENDROOT
BRANCH   2   5
ATOM      5  C   UNL     1       4.934   5.268  17.064  0.00  0.00    +0.000 C 
ATOM      6  C   UNL     1       4.852   6.530  17.875  0.00  0.00    +0.000 C 
ATOM      7  C   UNL     1       3.583   5.794  17.510  0.00  0.00    +0.000 C 
BRANCH   7   8
ATOM      8  C   UNL     1       2.814   5.000  18.552  0.00  0.00    +0.000 A 
ATOM      9  C   UNL     1       2.896   5.339  19.919  0.00  0.00    +0.000 A 
ATOM     10  C   UNL     1       2.216   4.604  20.895  0.00  0.00    +0.000 A 
ATOM     11  C   UNL     1       1.444   3.512  20.517  0.00  0.00    +0.000 A 
ATOM     12  F   UNL     1       0.802   2.803  21.454  0.00  0.00    +0.000 F 
ATOM     13  C   UNL     1       1.337   3.145  19.186  0.00  0.00    +0.000 A 
ATOM     14  C   UNL     1       2.020   3.889  18.222  0.00  0.00    +0.000 A 
ATOM     15  F   UNL     1       1.907   3.516  16.938  0.00  0.00    +0.000 F 
ENDBRANCH   7   8
ENDBRANCH   2   5
BRANCH   3  16
ATOM     16  C   UNL     1       6.620   4.199  13.841  0.00  0.00    +0.000 C 
BRANCH  16  17
ATOM     17  C   UNL     1       5.817   3.491  12.771  0.00  0.00    +0.000 A 
ATOM     18  N   UNL     1       4.648   3.885  12.354  0.00  0.00    +0.000 NA
ATOM     19  C   UNL     1       4.319   3.002  11.345  0.00  0.00    +0.000 A 
ATOM     20  O   UNL     1       3.301   3.013  10.675  0.00  0.00    +0.000 OA
ATOM     21  O   UNL     1       5.354   2.101  11.160  0.00  0.00    +0.000 OA
ATOM     22  N   UNL     1       6.295   2.358  12.167  0.00  0.00    +0.000 N 
ATOM     23  H   UNL     1       7.262   2.371  11.847  0.00  0.00    +0.000 HD
ENDBRANCH  16  17
ENDBRANCH   3  16
TORSDOF 4
ENDMDL
MODEL 2
REMARK VINA RESULT:      -7.8      1.036      1.036
REMARK  Name = 
REMARK  4 active torsions:
REMARK  status: ('A' for Active; 'I' for Inactive)
REMARK    1  A    between atoms: C_2  and  C_11
REMARK    2  A    between atoms: N_3  and  C_4
REMARK    3  A    between atoms: C_4  and  C_5
REMARK    4  A    between atoms: C_13  and  C_14
REMARK                            x       y       z     vdW  Elec       q    Type
REMARK                         _______ _______ _______ _____ _____    ______ ____
ROOT
ATOM      1  O   UNL     1       7.407   4.300  16.599  0.00  0.00    +0.000 OA
ATOM      2  C   UNL     1       6.229   4.587  16.425  0.00  0.00    +0.000 C 
ATOM      3  N   UNL     1       5.671   4.653  15.166  0.00  0.00    +0.000 N 
ATOM      4  H   UNL     1       4.702   4.898  15.011  0.00  0.00    +0.000 HD
ENDROOT
BRANCH   2   5
ATOM      5  C   UNL     1       5.387   4.854  17.618  0.00  0.00    +0.000 C 
ATOM      6  C   UNL     1       4.754   6.195  17.860  0.00  0.00    +0.000 C 
ATOM      7  C   UNL     1       3.876   4.987  17.627  0.00  0.00    +0.000 C 
BRANCH   7   8
ATOM      8  C   UNL     1       3.108   4.349  18.772  0.00  0.00    +0.000 A 
ATOM      9  C   UNL     1       2.783   5.094  19.924  0.00  0.00    +0.000 A 
ATOM     10  C   UNL     1       2.100   4.516  20.998  0.00  0.00    +0.000 A 
ATOM     11  C   UNL     1       1.733   3.177  20.937  0.00  0.00    +0.000 A 
ATOM     12  F   UNL     1       1.088   2.624  21.971  0.00  0.00    +0.000 F 
ATOM     13  C   UNL     1       2.033   2.410  19.824  0.00  0.00    +0.000 A 
ATOM     14  C   UNL     1       2.714   3.000  18.758  0.00  0.00    +0.000 A 
ATOM     15  F   UNL     1       2.999   2.239  17.691  0.00  0.00    +0.000 F 
ENDBRANCH   7   8
ENDBRANCH   2   5
BRANCH   3  16
ATOM     16  C   UNL     1       6.512   4.316  14.037  0.00  0.00    +0.000 C 
BRANCH  16  17
ATOM     17  C   UNL     1       5.826   3.582  12.906  0.00  0.00    +0.000 A 
ATOM     18  N   UNL     1       4.640   3.876  12.458  0.00  0.00    +0.000 NA
ATOM     19  C   UNL     1       4.440   3.013  11.399  0.00  0.00    +0.000 A 
ATOM     20  O   UNL     1       3.451   2.953  10.688  0.00  0.00    +0.000 OA
ATOM     21  O   UNL     1       5.568   2.230  11.219  0.00  0.00    +0.000 OA
ATOM     22  N   UNL     1       6.439   2.532  12.274  0.00  0.00    +0.000 N 
ATOM     23  H   UNL     1       7.411   2.657  11.996  0.00  0.00    +0.000 HD
ENDBRANCH  16  17
ENDBRANCH   3  16
TORSDOF 4
ENDMDL
MODEL 3
REMARK VINA RESULT:      -7.8      1.372      1.733
REMARK  Name = 
REMARK  4 active torsions:
REMARK  status: ('A' for Active; 'I' for Inactive)
REMARK    1  A    between atoms: C_2  and  C_11
REMARK    2  A    between atoms: N_3  and  C_4
REMARK    3  A    between atoms: C_4  and  C_5
REMARK    4  A    between atoms: C_13  and  C_14
REMARK                            x       y       z     vdW  Elec       q    Type
REMARK                         _______ _______ _______ _____ _____    ______ ____
ROOT
ATOM      1  O   UNL     1       5.494   7.053  16.050  0.00  0.00    +0.000 OA
ATOM      2  C   UNL     1       5.467   6.048  16.750  0.00  0.00    +0.000 C 
ATOM      3  N   UNL     1       6.365   5.015  16.580  0.00  0.00    +0.000 N 
ATOM      4  H   UNL     1       6.345   4.177  17.146  0.00  0.00    +0.000 HD
ENDROOT
BRANCH   2   5
ATOM      5  C   UNL     1       4.442   5.963  17.819  0.00  0.00    +0.000 C 
ATOM      6  C   UNL     1       3.258   6.887  17.859  0.00  0.00    +0.000 C 
ATOM      7  C   UNL     1       3.041   5.404  17.664  0.00  0.00    +0.000 C 
BRANCH   7   8
ATOM      8  C   UNL     1       2.485   4.542  18.786  0.00  0.00    +0.000 A 
ATOM      9  C   UNL     1       2.033   5.128  19.986  0.00  0.00    +0.000 A 
ATOM     10  C   UNL     1       1.543   4.349  21.038  0.00  0.00    +0.000 A 
ATOM     11  C   UNL     1       1.503   2.966  20.908  0.00  0.00    +0.000 A 
ATOM     12  F   UNL     1       1.043   2.222  21.921  0.00  0.00    +0.000 F 
ATOM     13  C   UNL     1       1.938   2.351  19.746  0.00  0.00    +0.000 A 
ATOM     14  C   UNL     1       2.424   3.141  18.702  0.00  0.00    +0.000 A 
ATOM     15  F   UNL     1       2.844   2.526  17.587  0.00  0.00    +0.000 F 
ENDBRANCH   7   8
ENDBRANCH   2   5
BRANCH   3  16
ATOM     16  C   UNL     1       7.391   5.173  15.571  0.00  0.00    +0.000 C 
BRANCH  16  17
ATOM     17  C   UNL     1       7.048   4.632  14.200  0.00  0.00    +0.000 A 
ATOM     18  N   UNL     1       6.150   3.717  13.980  0.00  0.00    +0.000 NA
ATOM     19  C   UNL     1       6.118   3.579  12.606  0.00  0.00    +0.000 A 
ATOM     20  O   UNL     1       5.404   2.822  11.970  0.00  0.00    +0.000 OA
ATOM     21  O   UNL     1       7.002   4.474  12.029  0.00  0.00    +0.000 OA
ATOM     22  N   UNL     1       7.689   5.095  13.081  0.00  0.00    +0.000 N 
ATOM     23  H   UNL     1       7.789   6.103  12.982  0.00  0.00    +0.000 HD
ENDBRANCH  16  17
ENDBRANCH   3  16
TORSDOF 4
ENDMDL
MODEL 4
REMARK VINA RESULT:      -7.7      1.027      1.423
REMARK  Name = 
REMARK  4 active torsions:
REMARK  status: ('A' for Active; 'I' for Inactive)
REMARK    1  A    between atoms: C_2  and  C_11
REMARK    2  A    between atoms: N_3  and  C_4
REMARK    3  A    between atoms: C_4  and  C_5
REMARK    4  A    between atoms: C_13  and  C_14
REMARK                            x       y       z     vdW  Elec       q    Type
REMARK                         _______ _______ _______ _____ _____    ______ ____
ROOT
ATOM      1  O   UNL     1       5.370   6.314  15.060  0.00  0.00    +0.000 OA
ATOM      2  C   UNL     1       5.465   5.283  15.716  0.00  0.00    +0.000 C 
ATOM      3  N   UNL     1       6.056   4.145  15.208  0.00  0.00    +0.000 N 
ATOM      4  H   UNL     1       6.131   3.286  15.737  0.00  0.00    +0.000 HD
ENDROOT
BRANCH   2   5
ATOM      5  C   UNL     1       4.938   5.281  17.103  0.00  0.00    +0.000 C 
ATOM      6  C   UNL     1       4.746   6.551  17.881  0.00  0.00    +0.000 C 
ATOM      7  C   UNL     1       3.545   5.707  17.524  0.00  0.00    +0.000 C 
BRANCH   7   8
ATOM      8  C   UNL     1       2.832   4.878  18.580  0.00  0.00    +0.000 A 
ATOM      9  C   UNL     1       2.559   3.513  18.359  0.00  0.00    +0.000 A 
ATOM     10  C   UNL     1       1.881   2.741  19.308  0.00  0.00    +0.000 A 
ATOM     11  C   UNL     1       1.460   3.329  20.495  0.00  0.00    +0.000 A 
ATOM     12  F   UNL     1       0.802   2.590  21.397  0.00  0.00    +0.000 F 
ATOM     13  C   UNL     1       1.706   4.667  20.751  0.00  0.00    +0.000 A 
ATOM     14  C   UNL     1       2.386   5.425  19.795  0.00  0.00    +0.000 A 
ATOM     15  F   UNL     1       2.612   6.720  20.060  0.00  0.00    +0.000 F 
ENDBRANCH   7   8
ENDBRANCH   2   5
BRANCH   3  16
ATOM     16  C   UNL     1       6.619   4.215  13.876  0.00  0.00    +0.000 C 
BRANCH  16  17
ATOM     17  C   UNL     1       5.833   3.503  12.797  0.00  0.00    +0.000 A 
ATOM     18  N   UNL     1       4.642   3.855  12.407  0.00  0.00    +0.000 NA
ATOM     19  C   UNL     1       4.339   2.988  11.376  0.00  0.00    +0.000 A 
ATOM     20  O   UNL     1       3.311   2.972  10.720  0.00  0.00    +0.000 OA
ATOM     21  O   UNL     1       5.411   2.141  11.151  0.00  0.00    +0.000 OA
ATOM     22  N   UNL     1       6.353   2.411  12.152  0.00  0.00    +0.000 N 
ATOM     23  H   UNL     1       7.314   2.477  11.820  0.00  0.00    +0.000 HD
ENDBRANCH  16  17
ENDBRANCH   3  16
TORSDOF 4
ENDMDL
MODEL 5
REMARK VINA RESULT:      -7.7      3.336      4.480
REMARK  Name = 
REMARK  4 active torsions:
REMARK  status: ('A' for Active; 'I' for Inactive)
REMARK    1  A    between atoms: C_2  and  C_11
REMARK    2  A    between atoms: N_3  and  C_4
REMARK    3  A    between atoms: C_4  and  C_5
REMARK    4  A    between atoms: C_13  and  C_14
REMARK                            x       y       z     vdW  Elec       q    Type
REMARK                         _______ _______ _______ _____ _____    ______ ____
ROOT
ATOM      1  O   UNL     1       4.054   3.488  17.386  0.00  0.00    +0.000 OA
ATOM      2  C   UNL     1       4.198   4.686  17.596  0.00  0.00    +0.000 C 
ATOM      3  N   UNL     1       5.418   5.313  17.448  0.00  0.00    +0.000 N 
ATOM      4  H   UNL     1       5.549   6.299  17.629  0.00  0.00    +0.000 HD
ENDROOT
BRANCH   2   5
ATOM      5  C   UNL     1       3.010   5.476  18.006  0.00  0.00    +0.000 C 
ATOM      6  C   UNL     1       2.106   5.031  19.120  0.00  0.00    +0.000 C 
ATOM      7  C   UNL     1       2.892   6.315  19.264  0.00  0.00    +0.000 C 
BRANCH   7   8
ATOM      8  C   UNL     1       2.204   7.666  19.162  0.00  0.00    +0.000 A 
ATOM      9  C   UNL     1       2.311   8.440  17.988  0.00  0.00    +0.000 A 
ATOM     10  C   UNL     1       1.706   9.697  17.885  0.00  0.00    +0.000 A 
ATOM     11  C   UNL     1       0.988  10.202  18.962  0.00  0.00    +0.000 A 
ATOM     12  F   UNL     1       0.419  11.410  18.865  0.00  0.00    +0.000 F 
ATOM     13  C   UNL     1       0.859   9.474  20.133  0.00  0.00    +0.000 A 
ATOM     14  C   UNL     1       1.466   8.220  20.221  0.00  0.00    +0.000 A 
ATOM     15  F   UNL     1       1.334   7.533  21.365  0.00  0.00    +0.000 F 
ENDBRANCH   7   8
ENDBRANCH   2   5
BRANCH   3  16
ATOM     16  C   UNL     1       6.532   4.517  16.979  0.00  0.00    +0.000 C 
BRANCH  16  17
ATOM     17  C   UNL     1       6.764   4.535  15.484  0.00  0.00    +0.000 A 
ATOM     18  N   UNL     1       6.184   3.727  14.644  0.00  0.00    +0.000 NA
ATOM     19  C   UNL     1       6.626   4.134  13.401  0.00  0.00    +0.000 A 
ATOM     20  O   UNL     1       6.320   3.646  12.327  0.00  0.00    +0.000 OA
ATOM     21  O   UNL     1       7.455   5.234  13.541  0.00  0.00    +0.000 OA
ATOM     22  N   UNL     1       7.629   5.435  14.917  0.00  0.00    +0.000 N 
ATOM     23  H   UNL     1       7.554   6.406  15.214  0.00  0.00    +0.000 HD
ENDBRANCH  16  17
ENDBRANCH   3  16
TORSDOF 4
ENDMDL
MODEL 6
REMARK VINA RESULT:      -7.6      1.870      2.151
REMARK  Name = 
REMARK  4 active torsions:
REMARK  status: ('A' for Active; 'I' for Inactive)
REMARK    1  A    between atoms: C_2  and  C_11
REMARK    2  A    between atoms: N_3  and  C_4
REMARK    3  A    between atoms: C_4  and  C_5
REMARK    4  A    between atoms: C_13  and  C_14
REMARK                            x       y       z     vdW  Elec       q    Type
REMARK                         _______ _______ _______ _____ _____    ______ ____
ROOT
ATOM      1  O   UNL     1       7.130   4.457  17.530  0.00  0.00    +0.000 OA
ATOM      2  C   UNL     1       6.183   5.124  17.130  0.00  0.00    +0.000 C 
ATOM      3  N   UNL     1       6.187   5.729  15.890  0.00  0.00    +0.000 N 
ATOM      4  H   UNL     1       5.415   6.289  15.555  0.00  0.00    +0.000 HD
ENDROOT
BRANCH   2   5
ATOM      5  C   UNL     1       4.997   5.260  18.011  0.00  0.00    +0.000 C 
ATOM      6  C   UNL     1       3.815   6.103  17.627  0.00  0.00    +0.000 C 
ATOM      7  C   UNL     1       3.645   4.610  17.789  0.00  0.00    +0.000 C 
BRANCH   7   8
ATOM      8  C   UNL     1       2.921   4.033  18.994  0.00  0.00    +0.000 A 
ATOM      9  C   UNL     1       1.634   4.490  19.345  0.00  0.00    +0.000 A 
ATOM     10  C   UNL     1       0.963   3.989  20.465  0.00  0.00    +0.000 A 
ATOM     11  C   UNL     1       1.575   3.024  21.256  0.00  0.00    +0.000 A 
ATOM     12  F   UNL     1       0.935   2.554  22.334  0.00  0.00    +0.000 F 
ATOM     13  C   UNL     1       2.838   2.550  20.947  0.00  0.00    +0.000 A 
ATOM     14  C   UNL     1       3.496   3.057  19.824  0.00  0.00    +0.000 A 
ATOM     15  F   UNL     1       4.720   2.588  19.543  0.00  0.00    +0.000 F 
ENDBRANCH   7   8
ENDBRANCH   2   5
BRANCH   3  16
ATOM     16  C   UNL     1       7.336   5.510  15.037  0.00  0.00    +0.000 C 
BRANCH  16  17
ATOM     17  C   UNL     1       7.068   4.732  13.768  0.00  0.00    +0.000 A 
ATOM     18  N   UNL     1       6.191   3.774  13.669  0.00  0.00    +0.000 NA
ATOM     19  C   UNL     1       6.230   3.397  12.341  0.00  0.00    +0.000 A 
ATOM     20  O   UNL     1       5.557   2.528  11.814  0.00  0.00    +0.000 OA
ATOM     21  O   UNL     1       7.133   4.194  11.658  0.00  0.00    +0.000 OA
ATOM     22  N   UNL     1       7.759   5.003  12.616  0.00  0.00    +0.000 N 
ATOM     23  H   UNL     1       7.853   5.981  12.347  0.00  0.00    +0.000 HD
ENDBRANCH  16  17
ENDBRANCH   3  16
TORSDOF 4
ENDMDL
MODEL 7
REMARK VINA RESULT:      -7.5      1.198      1.570
REMARK  Name = 
REMARK  4 active torsions:
REMARK  status: ('A' for Active; 'I' for Inactive)
REMARK    1  A    between atoms: C_2  and  C_11
REMARK    2  A    between atoms: N_3  and  C_4
REMARK    3  A    between atoms: C_4  and  C_5
REMARK    4  A    between atoms: C_13  and  C_14
REMARK                            x       y       z     vdW  Elec       q    Type
REMARK                         _______ _______ _______ _____ _____    ______ ____
ROOT
ATOM      1  O   UNL     1       7.807   4.592  16.071  0.00  0.00    +0.000 OA
ATOM      2  C   UNL     1       6.582   4.556  16.042  0.00  0.00    +0.000 C 
ATOM      3  N   UNL     1       5.881   4.505  14.855  0.00  0.00    +0.000 N 
ATOM      4  H   UNL     1       4.870   4.485  14.820  0.00  0.00    +0.000 HD
ENDROOT
BRANCH   2   5
ATOM      5  C   UNL     1       5.848   4.550  17.331  0.00  0.00    +0.000 C 
ATOM      6  C   UNL     1       6.079   5.599  18.382  0.00  0.00    +0.000 C 
ATOM      7  C   UNL     1       4.725   5.493  17.719  0.00  0.00    +0.000 C 
BRANCH   7   8
ATOM      8  C   UNL     1       3.533   4.919  18.466  0.00  0.00    +0.000 A 
ATOM      9  C   UNL     1       3.279   5.285  19.803  0.00  0.00    +0.000 A 
ATOM     10  C   UNL     1       2.202   4.747  20.515  0.00  0.00    +0.000 A 
ATOM     11  C   UNL     1       1.363   3.827  19.897  0.00  0.00    +0.000 A 
ATOM     12  F   UNL     1       0.338   3.306  20.584  0.00  0.00    +0.000 F 
ATOM     13  C   UNL     1       1.578   3.441  18.585  0.00  0.00    +0.000 A 
ATOM     14  C   UNL     1       2.656   3.987  17.886  0.00  0.00    +0.000 A 
ATOM     15  F   UNL     1       2.850   3.597  16.618  0.00  0.00    +0.000 F 
ENDBRANCH   7   8
ENDBRANCH   2   5
BRANCH   3  16
ATOM     16  C   UNL     1       6.641   4.442  13.625  0.00  0.00    +0.000 C 
BRANCH  16  17
ATOM     17  C   UNL     1       6.147   3.442  12.603  0.00  0.00    +0.000 A 
ATOM     18  N   UNL     1       6.879   2.492  12.097  0.00  0.00    +0.000 NA
ATOM     19  C   UNL     1       6.023   1.788  11.274  0.00  0.00    +0.000 A 
ATOM     20  O   UNL     1       6.302   0.808  10.605  0.00  0.00    +0.000 OA
ATOM     21  O   UNL     1       4.754   2.337  11.346  0.00  0.00    +0.000 OA
ATOM     22  N   UNL     1       4.858   3.487  12.140  0.00  0.00    +0.000 N 
ATOM     23  H   UNL     1       4.116   3.592  12.830  0.00  0.00    +0.000 HD
ENDBRANCH  16  17
ENDBRANCH   3  16
TORSDOF 4
ENDMDL
MODEL 8
REMARK VINA RESULT:      -7.5      1.715      2.037
REMARK  Name = 
REMARK  4 active torsions:
REMARK  status: ('A' for Active; 'I' for Inactive)
REMARK    1  A    between atoms: C_2  and  C_11
REMARK    2  A    between atoms: N_3  and  C_4
REMARK    3  A    between atoms: C_4  and  C_5
REMARK    4  A    between atoms: C_13  and  C_14
REMARK                            x       y       z     vdW  Elec       q    Type
REMARK                         _______ _______ _______ _____ _____    ______ ____
ROOT
ATOM      1  O   UNL     1       5.382   7.072  16.267  0.00  0.00    +0.000 OA
ATOM      2  C   UNL     1       5.368   6.099  17.011  0.00  0.00    +0.000 C 
ATOM      3  N   UNL     1       6.316   5.100  16.927  0.00  0.00    +0.000 N 
ATOM      4  H   UNL     1       6.307   4.288  17.530  0.00  0.00    +0.000 HD
ENDROOT
BRANCH   2   5
ATOM      5  C   UNL     1       4.301   6.015  18.039  0.00  0.00    +0.000 C 
ATOM      6  C   UNL     1       3.079   6.887  17.988  0.00  0.00    +0.000 C 
ATOM      7  C   UNL     1       2.932   5.389  17.851  0.00  0.00    +0.000 C 
BRANCH   7   8
ATOM      8  C   UNL     1       2.365   4.553  18.986  0.00  0.00    +0.000 A 
ATOM      9  C   UNL     1       2.343   5.052  20.305  0.00  0.00    +0.000 A 
ATOM     10  C   UNL     1       1.849   4.288  21.366  0.00  0.00    +0.000 A 
ATOM     11  C   UNL     1       1.372   3.005  21.124  0.00  0.00    +0.000 A 
ATOM     12  F   UNL     1       0.909   2.271  22.143  0.00  0.00    +0.000 F 
ATOM     13  C   UNL     1       1.377   2.477  19.843  0.00  0.00    +0.000 A 
ATOM     14  C   UNL     1       1.871   3.252  18.793  0.00  0.00    +0.000 A 
ATOM     15  F   UNL     1       1.871   2.722  17.561  0.00  0.00    +0.000 F 
ENDBRANCH   7   8
ENDBRANCH   2   5
BRANCH   3  16
ATOM     16  C   UNL     1       7.377   5.259  15.956  0.00  0.00    +0.000 C 
BRANCH  16  17
ATOM     17  C   UNL     1       7.074   4.742  14.567  0.00  0.00    +0.000 A 
ATOM     18  N   UNL     1       7.574   5.244  13.475  0.00  0.00    +0.000 NA
ATOM     19  C   UNL     1       7.092   4.437  12.463  0.00  0.00    +0.000 A 
ATOM     20  O   UNL     1       7.323   4.552  11.272  0.00  0.00    +0.000 OA
ATOM     21  O   UNL     1       6.324   3.422  13.006  0.00  0.00    +0.000 OA
ATOM     22  N   UNL     1       6.227   3.681  14.380  0.00  0.00    +0.000 N 
ATOM     23  H   UNL     1       6.361   2.865  14.974  0.00  0.00    +0.000 HD
ENDBRANCH  16  17
ENDBRANCH   3  16
TORSDOF 4
ENDMDL
MODEL 9
REMARK VINA RESULT:      -7.3      3.561      4.788
REMARK  Name = 
REMARK  4 active torsions:
REMARK  status: ('A' for Active; 'I' for Inactive)
REMARK    1  A    between atoms: C_2  and  C_11
REMARK    2  A    between atoms: N_3  and  C_4
REMARK    3  A    between atoms: C_4  and  C_5
REMARK    4  A    between atoms: C_13  and  C_14
REMARK                            x       y       z     vdW  Elec       q    Type
REMARK                         _______ _______ _______ _____ _____    ______ ____
ROOT
ATOM      1  O   UNL     1       2.030   3.516  17.361  0.00  0.00    +0.000 OA
ATOM      2  C   UNL     1       2.692   4.370  17.938  0.00  0.00    +0.000 C 
ATOM      3  N   UNL     1       4.047   4.515  17.720  0.00  0.00    +0.000 N 
ATOM      4  H   UNL     1       4.604   5.211  18.199  0.00  0.00    +0.000 HD
ENDROOT
BRANCH   2   5
ATOM      5  C   UNL     1       1.998   5.278  18.884  0.00  0.00    +0.000 C 
ATOM      6  C   UNL     1       2.134   5.130  20.373  0.00  0.00    +0.000 C 
ATOM      7  C   UNL     1       2.649   6.380  19.698  0.00  0.00    +0.000 C 
BRANCH   7   8
ATOM      8  C   UNL     1       1.910   7.701  19.835  0.00  0.00    +0.000 A 
ATOM      9  C   UNL     1       1.270   8.045  21.043  0.00  0.00    +0.000 A 
ATOM     10  C   UNL     1       0.564   9.244  21.179  0.00  0.00    +0.000 A 
ATOM     11  C   UNL     1       0.483  10.118  20.102  0.00  0.00    +0.000 A 
ATOM     12  F   UNL     1      -0.203  11.261  20.232  0.00  0.00    +0.000 F 
ATOM     13  C   UNL     1       1.097   9.818  18.898  0.00  0.00    +0.000 A 
ATOM     14  C   UNL     1       1.800   8.618  18.776  0.00  0.00    +0.000 A 
ATOM     15  F   UNL     1       2.384   8.344  17.601  0.00  0.00    +0.000 F 
ENDBRANCH   7   8
ENDBRANCH   2   5
BRANCH   3  16
ATOM     16  C   UNL     1       4.667   3.654  16.737  0.00  0.00    +0.000 C 
BRANCH  16  17
ATOM     17  C   UNL     1       5.831   4.257  15.982  0.00  0.00    +0.000 A 
ATOM     18  N   UNL     1       5.908   4.318  14.684  0.00  0.00    +0.000 NA
ATOM     19  C   UNL     1       7.084   4.995  14.432  0.00  0.00    +0.000 A 
ATOM     20  O   UNL     1       7.539   5.276  13.336  0.00  0.00    +0.000 OA
ATOM     21  O   UNL     1       7.674   5.362  15.629  0.00  0.00    +0.000 OA
ATOM     22  N   UNL     1       6.905   4.787  16.649  0.00  0.00    +0.000 N 
ATOM     23  H   UNL     1       6.708   5.410  17.431  0.00  0.00    +0.000 HD
ENDBRANCH  16  17
ENDBRANCH   3  16
TORSDOF 4
ENDMDL
