MODEL 1
REMARK VINA RESULT:      -9.0      0.000      0.000
REMARK  Name = 
REMARK  11 active torsions:
REMARK  status: ('A' for Active; 'I' for Inactive)
REMARK    1  A    between atoms: C_1  and  N_2
REMARK    2  A    between atoms: N_2  and  C_3
REMARK    3  A    between atoms: C_7  and  C_8
REMARK    4  A    between atoms: C_11  and  C_12
REMARK    5  A    between atoms: C_12  and  C_13
REMARK    6  A    between atoms: C_12  and  C_22
REMARK    7  A    between atoms: C_13  and  C_14
REMARK    8  A    between atoms: C_14  and  C_15
REMARK    9  A    between atoms: C_15  and  C_16
REMARK   10  A    between atoms: C_22  and  C_23
REMARK   11  A    between atoms: N_25  and  O_26
REMARK                            x       y       z     vdW  Elec       q    Type
REMARK                         _______ _______ _______ _____ _____    ______ ____
ROOT
ATOM      1  C   UNL     1       6.044   6.096  16.655  0.00  0.00    +0.000 C 
ENDROOT
BRANCH   1   5
ATOM      2  C   UNL     1       8.154   8.530  18.248  0.00  0.00    +0.000 A 
ATOM      3  N   UNL     1       8.560   7.441  18.920  0.00  0.00    +0.000 NA
ATOM      4  O   UNL     1       7.777   6.415  18.388  0.00  0.00    +0.000 OA
ATOM      5  C   UNL     1       6.976   6.980  17.435  0.00  0.00    +0.000 A 
ATOM      6  N   UNL     1       7.176   8.269  17.310  0.00  0.00    +0.000 NA
BRANCH   2  13
ATOM      7  C   UNL     1      11.304  13.837  19.934  0.00  0.00    +0.000 C 
ATOM      8  N   UNL     1      10.301  13.721  18.879  0.00  0.00    +0.000 N 
ATOM      9  C   UNL     1      10.565  14.458  17.647  0.00  0.00    +0.000 C 
ATOM     10  C   UNL     1       9.741  12.442  18.741  0.00  0.00    +0.000 A 
ATOM     11  C   UNL     1       8.808  12.179  17.739  0.00  0.00    +0.000 A 
ATOM     12  C   UNL     1       8.281  10.898  17.579  0.00  0.00    +0.000 A 
ATOM     13  C   UNL     1       8.670   9.870  18.437  0.00  0.00    +0.000 A 
ATOM     14  C   UNL     1       9.565  10.211  19.437  0.00  0.00    +0.000 A 
ATOM     15  N   UNL     1      10.091  11.456  19.601  0.00  0.00    +0.000 NA
ENDBRANCH   2  13
ENDBRANCH   1   5
BRANCH   1  16
ATOM     16  C   UNL     1       4.720   5.842  17.420  0.00  0.00    +0.000 C 
BRANCH  16  17
ATOM     17  C   UNL     1       3.934   4.568  17.063  0.00  0.00    +0.000 C 
BRANCH  17  18
ATOM     18  C   UNL     1       2.576   4.387  17.755  0.00  0.00    +0.000 C 
BRANCH  18  19
ATOM     19  C   UNL     1       2.188   2.936  18.121  0.00  0.00    +0.000 C 
ATOM     20  C   UNL     1       3.302   2.148  18.831  0.00  0.00    +0.000 C 
ATOM     21  C   UNL     1       3.549   2.592  20.274  0.00  0.00    +0.000 C 
ATOM     22  C   UNL     1       2.271   2.643  21.106  0.00  0.00    +0.000 C 
ATOM     23  C   UNL     1       1.148   3.408  20.414  0.00  0.00    +0.000 C 
ATOM     24  C   UNL     1       0.915   2.909  18.989  0.00  0.00    +0.000 C 
ENDBRANCH  18  19
ENDBRANCH  17  18
ENDBRANCH  16  17
ENDBRANCH   1  16
BRANCH   1  25
ATOM     25  C   UNL     1       6.729   4.760  16.306  0.00  0.00    +0.000 C 
BRANCH  25  26
ATOM     26  C   UNL     1       6.939   4.584  14.821  0.00  0.00    +0.000 C 
ATOM     27  O   UNL     1       7.664   5.303  14.140  0.00  0.00    +0.000 OA
ATOM     28  N   UNL     1       6.250   3.522  14.287  0.00  0.00    +0.000 N 
ATOM     29  H   UNL     1       5.899   2.744  14.838  0.00  0.00    +0.000 HD
BRANCH  28  30
ATOM     30  O   UNL     1       6.475   3.272  12.915  0.00  0.00    +0.000 OA
ATOM     31  H   UNL     1       7.163   3.936  12.687  0.00  0.00    +0.000 HD
ENDBRANCH  28  30
ENDBRANCH  25  26
ENDBRANCH   1  25
TORSDOF 9
ENDMDL
MODEL 2
REMARK VINA RESULT:      -8.6      1.228      1.798
REMARK  Name = 
REMARK  11 active torsions:
REMARK  status: ('A' for Active; 'I' for Inactive)
REMARK    1  A    between atoms: C_1  and  N_2
REMARK    2  A    between atoms: N_2  and  C_3
REMARK    3  A    between atoms: C_7  and  C_8
REMARK    4  A    between atoms: C_11  and  C_12
REMARK    5  A    between atoms: C_12  and  C_13
REMARK    6  A    between atoms: C_12  and  C_22
REMARK    7  A    between atoms: C_13  and  C_14
REMARK    8  A    between atoms: C_14  and  C_15
REMARK    9  A    between atoms: C_15  and  C_16
REMARK   10  A    between atoms: C_22  and  C_23
REMARK   11  A    between atoms: N_25  and  O_26
REMARK                            x       y       z     vdW  Elec       q    Type
REMARK                         _______ _______ _______ _____ _____    ______ ____
ROOT
ATOM      1  C   UNL     1       6.369   6.652  16.771  0.00  0.00    +0.000 C 
ENDROOT
BRANCH   1   5
ATOM      2  C   UNL     1       8.453   9.174  18.258  0.00  0.00    +0.000 A 
ATOM      3  N   UNL     1       8.826   8.132  19.018  0.00  0.00    +0.000 NA
ATOM      4  O   UNL     1       8.049   7.077  18.534  0.00  0.00    +0.000 OA
ATOM      5  C   UNL     1       7.285   7.580  17.518  0.00  0.00    +0.000 A 
ATOM      6  N   UNL     1       7.503   8.856  17.310  0.00  0.00    +0.000 NA
BRANCH   2  13
ATOM      7  C   UNL     1       9.608  15.465  18.117  0.00  0.00    +0.000 C 
ATOM      8  N   UNL     1      10.385  14.455  18.829  0.00  0.00    +0.000 N 
ATOM      9  C   UNL     1      10.861  14.822  20.160  0.00  0.00    +0.000 C 
ATOM     10  C   UNL     1       9.929  13.140  18.664  0.00  0.00    +0.000 A 
ATOM     11  C   UNL     1      10.549  12.083  19.330  0.00  0.00    +0.000 A 
ATOM     12  C   UNL     1      10.071  10.780  19.193  0.00  0.00    +0.000 A 
ATOM     13  C   UNL     1       8.976  10.520  18.370  0.00  0.00    +0.000 A 
ATOM     14  C   UNL     1       8.438  11.608  17.704  0.00  0.00    +0.000 A 
ATOM     15  N   UNL     1       8.891  12.885  17.832  0.00  0.00    +0.000 NA
ENDBRANCH   2  13
ENDBRANCH   1   5
BRANCH   1  16
ATOM     16  C   UNL     1       4.976   6.556  17.445  0.00  0.00    +0.000 C 
BRANCH  16  17
ATOM     17  C   UNL     1       4.753   5.404  18.440  0.00  0.00    +0.000 C 
BRANCH  17  18
ATOM     18  C   UNL     1       3.664   4.387  18.072  0.00  0.00    +0.000 C 
BRANCH  18  19
ATOM     19  C   UNL     1       2.210   4.801  18.395  0.00  0.00    +0.000 C 
ATOM     20  C   UNL     1       1.181   3.673  18.217  0.00  0.00    +0.000 C 
ATOM     21  C   UNL     1       1.257   2.591  19.296  0.00  0.00    +0.000 C 
ATOM     22  C   UNL     1       1.235   3.162  20.712  0.00  0.00    +0.000 C 
ATOM     23  C   UNL     1       2.238   4.294  20.906  0.00  0.00    +0.000 C 
ATOM     24  C   UNL     1       2.104   5.365  19.826  0.00  0.00    +0.000 C 
ENDBRANCH  18  19
ENDBRANCH  17  18
ENDBRANCH  16  17
ENDBRANCH   1  16
BRANCH   1  25
ATOM     25  C   UNL     1       7.003   5.252  16.645  0.00  0.00    +0.000 C 
BRANCH  25  26
ATOM     26  C   UNL     1       6.952   4.715  15.235  0.00  0.00    +0.000 C 
ATOM     27  O   UNL     1       6.334   3.707  14.906  0.00  0.00    +0.000 OA
ATOM     28  N   UNL     1       7.654   5.472  14.329  0.00  0.00    +0.000 N 
ATOM     29  H   UNL     1       7.911   6.442  14.486  0.00  0.00    +0.000 HD
BRANCH  28  30
ATOM     30  O   UNL     1       7.571   5.052  12.982  0.00  0.00    +0.000 OA
ATOM     31  H   UNL     1       7.033   4.232  13.048  0.00  0.00    +0.000 HD
ENDBRANCH  28  30
ENDBRANCH  25  26
ENDBRANCH   1  25
TORSDOF 9
ENDMDL
MODEL 3
REMARK VINA RESULT:      -8.6      1.187      1.486
REMARK  Name = 
REMARK  11 active torsions:
REMARK  status: ('A' for Active; 'I' for Inactive)
REMARK    1  A    between atoms: C_1  and  N_2
REMARK    2  A    between atoms: N_2  and  C_3
REMARK    3  A    between atoms: C_7  and  C_8
REMARK    4  A    between atoms: C_11  and  C_12
REMARK    5  A    between atoms: C_12  and  C_13
REMARK    6  A    between atoms: C_12  and  C_22
REMARK    7  A    between atoms: C_13  and  C_14
REMARK    8  A    between atoms: C_14  and  C_15
REMARK    9  A    between atoms: C_15  and  C_16
REMARK   10  A    between atoms: C_22  and  C_23
REMARK   11  A    between atoms: N_25  and  O_26
REMARK                            x       y       z     vdW  Elec       q    Type
REMARK                         _______ _______ _______ _____ _____    ______ ____
ROOT
ATOM      1  C   UNL     1       6.457   6.712  16.779  0.00  0.00    +0.000 C 
ENDROOT
BRANCH   1   5
ATOM      2  C   UNL     1       8.510   9.239  18.299  0.00  0.00    +0.000 A 
ATOM      3  N   UNL     1       8.849   8.205  19.085  0.00  0.00    +0.000 NA
ATOM      4  O   UNL     1       8.081   7.150  18.591  0.00  0.00    +0.000 OA
ATOM      5  C   UNL     1       7.355   7.644  17.543  0.00  0.00    +0.000 A 
ATOM      6  N   UNL     1       7.590   8.914  17.324  0.00  0.00    +0.000 NA
BRANCH   2  13
ATOM      7  C   UNL     1      11.913  14.549  19.370  0.00  0.00    +0.000 C 
ATOM      8  N   UNL     1      10.683  14.449  18.591  0.00  0.00    +0.000 N 
ATOM      9  C   UNL     1      10.627  15.235  17.362  0.00  0.00    +0.000 C 
ATOM     10  C   UNL     1      10.123  13.165  18.543  0.00  0.00    +0.000 A 
ATOM     11  C   UNL     1       8.975  12.917  17.791  0.00  0.00    +0.000 A 
ATOM     12  C   UNL     1       8.440  11.631  17.715  0.00  0.00    +0.000 A 
ATOM     13  C   UNL     1       9.040  10.582  18.409  0.00  0.00    +0.000 A 
ATOM     14  C   UNL     1      10.150  10.907  19.172  0.00  0.00    +0.000 A 
ATOM     15  N   UNL     1      10.685  12.156  19.251  0.00  0.00    +0.000 NA
ENDBRANCH   2  13
ENDBRANCH   1   5
BRANCH   1  16
ATOM     16  C   UNL     1       5.076   6.554  17.466  0.00  0.00    +0.000 C 
BRANCH  16  17
ATOM     17  C   UNL     1       4.905   5.375  18.439  0.00  0.00    +0.000 C 
BRANCH  17  18
ATOM     18  C   UNL     1       3.791   4.372  18.106  0.00  0.00    +0.000 C 
BRANCH  18  19
ATOM     19  C   UNL     1       2.342   4.885  18.277  0.00  0.00    +0.000 C 
ATOM     20  C   UNL     1       1.268   3.797  18.113  0.00  0.00    +0.000 C 
ATOM     21  C   UNL     1       1.203   2.812  19.282  0.00  0.00    +0.000 C 
ATOM     22  C   UNL     1       1.107   3.506  20.638  0.00  0.00    +0.000 C 
ATOM     23  C   UNL     1       2.155   4.600  20.816  0.00  0.00    +0.000 C 
ATOM     24  C   UNL     1       2.161   5.577  19.642  0.00  0.00    +0.000 C 
ENDBRANCH  18  19
ENDBRANCH  17  18
ENDBRANCH  16  17
ENDBRANCH   1  16
BRANCH   1  25
ATOM     25  C   UNL     1       7.130   5.336  16.602  0.00  0.00    +0.000 C 
BRANCH  25  26
ATOM     26  C   UNL     1       6.983   4.792  15.201  0.00  0.00    +0.000 C 
ATOM     27  O   UNL     1       6.279   3.829  14.909  0.00  0.00    +0.000 OA
ATOM     28  N   UNL     1       7.701   5.487  14.260  0.00  0.00    +0.000 N 
ATOM     29  H   UNL     1       8.036   6.437  14.394  0.00  0.00    +0.000 HD
BRANCH  28  30
ATOM     30  O   UNL     1       7.533   5.062  12.922  0.00  0.00    +0.000 OA
ATOM     31  H   UNL     1       7.151   5.859  12.492  0.00  0.00    +0.000 HD
ENDBRANCH  28  30
ENDBRANCH  25  26
ENDBRANCH   1  25
TORSDOF 9
ENDMDL
MODEL 4
REMARK VINA RESULT:      -8.5      0.970      1.256
REMARK  Name = 
REMARK  11 active torsions:
REMARK  status: ('A' for Active; 'I' for Inactive)
REMARK    1  A    between atoms: C_1  and  N_2
REMARK    2  A    between atoms: N_2  and  C_3
REMARK    3  A    between atoms: C_7  and  C_8
REMARK    4  A    between atoms: C_11  and  C_12
REMARK    5  A    between atoms: C_12  and  C_13
REMARK    6  A    between atoms: C_12  and  C_22
REMARK    7  A    between atoms: C_13  and  C_14
REMARK    8  A    between atoms: C_14  and  C_15
REMARK    9  A    between atoms: C_15  and  C_16
REMARK   10  A    between atoms: C_22  and  C_23
REMARK   11  A    between atoms: N_25  and  O_26
REMARK                            x       y       z     vdW  Elec       q    Type
REMARK                         _______ _______ _______ _____ _____    ______ ____
ROOT
ATOM      1  C   UNL     1       5.878   6.468  16.505  0.00  0.00    +0.000 C 
ENDROOT
BRANCH   1   5
ATOM      2  C   UNL     1       8.132   8.737  18.144  0.00  0.00    +0.000 A 
ATOM      3  N   UNL     1       8.532   7.597  18.730  0.00  0.00    +0.000 NA
ATOM      4  O   UNL     1       7.694   6.629  18.174  0.00  0.00    +0.000 OA
ATOM      5  C   UNL     1       6.871   7.274  17.294  0.00  0.00    +0.000 A 
ATOM      6  N   UNL     1       7.106   8.562  17.238  0.00  0.00    +0.000 NA
BRANCH   2  13
ATOM      7  C   UNL     1      11.492  13.842  20.034  0.00  0.00    +0.000 C 
ATOM      8  N   UNL     1      10.469  13.813  18.993  0.00  0.00    +0.000 N 
ATOM      9  C   UNL     1      10.741  14.600  17.794  0.00  0.00    +0.000 C 
ATOM     10  C   UNL     1       9.863  12.563  18.801  0.00  0.00    +0.000 A 
ATOM     11  C   UNL     1       8.906  12.382  17.803  0.00  0.00    +0.000 A 
ATOM     12  C   UNL     1       8.331  11.129  17.590  0.00  0.00    +0.000 A 
ATOM     13  C   UNL     1       8.697  10.047  18.390  0.00  0.00    +0.000 A 
ATOM     14  C   UNL     1       9.619  10.308  19.390  0.00  0.00    +0.000 A 
ATOM     15  N   UNL     1      10.192  11.523  19.606  0.00  0.00    +0.000 NA
ENDBRANCH   2  13
ENDBRANCH   1   5
BRANCH   1  16
ATOM     16  C   UNL     1       4.469   6.502  17.151  0.00  0.00    +0.000 C 
BRANCH  16  17
ATOM     17  C   UNL     1       4.366   6.119  18.637  0.00  0.00    +0.000 C 
BRANCH  17  18
ATOM     18  C   UNL     1       3.326   5.048  18.996  0.00  0.00    +0.000 C 
BRANCH  18  19
ATOM     19  C   UNL     1       2.780   4.210  17.816  0.00  0.00    +0.000 C 
ATOM     20  C   UNL     1       3.512   2.874  17.605  0.00  0.00    +0.000 C 
ATOM     21  C   UNL     1       3.202   1.824  18.674  0.00  0.00    +0.000 C 
ATOM     22  C   UNL     1       1.705   1.623  18.893  0.00  0.00    +0.000 C 
ATOM     23  C   UNL     1       0.958   2.938  19.091  0.00  0.00    +0.000 C 
ATOM     24  C   UNL     1       1.272   3.943  17.983  0.00  0.00    +0.000 C 
ENDBRANCH  18  19
ENDBRANCH  17  18
ENDBRANCH  16  17
ENDBRANCH   1  16
BRANCH   1  25
ATOM     25  C   UNL     1       6.363   5.012  16.351  0.00  0.00    +0.000 C 
BRANCH  25  26
ATOM     26  C   UNL     1       6.872   4.714  14.961  0.00  0.00    +0.000 C 
ATOM     27  O   UNL     1       6.462   3.790  14.264  0.00  0.00    +0.000 OA
ATOM     28  N   UNL     1       7.838   5.587  14.526  0.00  0.00    +0.000 N 
ATOM     29  H   UNL     1       7.983   6.511  14.923  0.00  0.00    +0.000 HD
BRANCH  28  30
ATOM     30  O   UNL     1       8.290   5.393  13.201  0.00  0.00    +0.000 OA
ATOM     31  H   UNL     1       8.135   4.432  13.062  0.00  0.00    +0.000 HD
ENDBRANCH  28  30
ENDBRANCH  25  26
ENDBRANCH   1  25
TORSDOF 9
ENDMDL
MODEL 5
REMARK VINA RESULT:      -8.3      1.137      1.625
REMARK  Name = 
REMARK  11 active torsions:
REMARK  status: ('A' for Active; 'I' for Inactive)
REMARK    1  A    between atoms: C_1  and  N_2
REMARK    2  A    between atoms: N_2  and  C_3
REMARK    3  A    between atoms: C_7  and  C_8
REMARK    4  A    between atoms: C_11  and  C_12
REMARK    5  A    between atoms: C_12  and  C_13
REMARK    6  A    between atoms: C_12  and  C_22
REMARK    7  A    between atoms: C_13  and  C_14
REMARK    8  A    between atoms: C_14  and  C_15
REMARK    9  A    between atoms: C_15  and  C_16
REMARK   10  A    between atoms: C_22  and  C_23
REMARK   11  A    between atoms: N_25  and  O_26
REMARK                            x       y       z     vdW  Elec       q    Type
REMARK                         _______ _______ _______ _____ _____    ______ ____
ROOT
ATOM      1  C   UNL     1       6.193   5.462  16.242  0.00  0.00    +0.000 C 
ENDROOT
BRANCH   1   5
ATOM      2  C   UNL     1       7.985   8.009  18.037  0.00  0.00    +0.000 A 
ATOM      3  N   UNL     1       8.312   6.955  18.802  0.00  0.00    +0.000 NA
ATOM      4  O   UNL     1       7.641   5.889  18.200  0.00  0.00    +0.000 OA
ATOM      5  C   UNL     1       6.978   6.399  17.118  0.00  0.00    +0.000 A 
ATOM      6  N   UNL     1       7.164   7.688  16.976  0.00  0.00    +0.000 NA
BRANCH   2  13
ATOM      7  C   UNL     1       8.972  14.329  18.105  0.00  0.00    +0.000 C 
ATOM      8  N   UNL     1       9.604  13.342  18.976  0.00  0.00    +0.000 N 
ATOM      9  C   UNL     1       9.770  13.723  20.375  0.00  0.00    +0.000 C 
ATOM     10  C   UNL     1       9.230  12.014  18.724  0.00  0.00    +0.000 A 
ATOM     11  C   UNL     1       9.720  10.976  19.517  0.00  0.00    +0.000 A 
ATOM     12  C   UNL     1       9.318   9.660  19.288  0.00  0.00    +0.000 A 
ATOM     13  C   UNL     1       8.435   9.368  18.250  0.00  0.00    +0.000 A 
ATOM     14  C   UNL     1       8.024  10.440  17.476  0.00  0.00    +0.000 A 
ATOM     15  N   UNL     1       8.403  11.730  17.689  0.00  0.00    +0.000 NA
ENDBRANCH   2  13
ENDBRANCH   1   5
BRANCH   1  16
ATOM     16  C   UNL     1       5.110   4.698  17.046  0.00  0.00    +0.000 C 
BRANCH  16  17
ATOM     17  C   UNL     1       4.246   5.518  18.019  0.00  0.00    +0.000 C 
BRANCH  17  18
ATOM     18  C   UNL     1       2.771   5.109  18.134  0.00  0.00    +0.000 C 
BRANCH  18  19
ATOM     19  C   UNL     1       2.494   3.591  18.240  0.00  0.00    +0.000 C 
ATOM     20  C   UNL     1       3.436   2.846  19.200  0.00  0.00    +0.000 C 
ATOM     21  C   UNL     1       3.169   3.138  20.678  0.00  0.00    +0.000 C 
ATOM     22  C   UNL     1       1.704   2.954  21.064  0.00  0.00    +0.000 C 
ATOM     23  C   UNL     1       0.751   3.673  20.116  0.00  0.00    +0.000 C 
ATOM     24  C   UNL     1       1.033   3.327  18.655  0.00  0.00    +0.000 C 
ENDBRANCH  18  19
ENDBRANCH  17  18
ENDBRANCH  16  17
ENDBRANCH   1  16
BRANCH   1  25
ATOM     25  C   UNL     1       7.135   4.471  15.530  0.00  0.00    +0.000 C 
BRANCH  25  26
ATOM     26  C   UNL     1       7.218   4.715  14.042  0.00  0.00    +0.000 C 
ATOM     27  O   UNL     1       6.494   4.168  13.215  0.00  0.00    +0.000 OA
ATOM     28  N   UNL     1       8.178   5.629  13.685  0.00  0.00    +0.000 N 
ATOM     29  H   UNL     1       8.574   6.311  14.326  0.00  0.00    +0.000 HD
BRANCH  28  30
ATOM     30  O   UNL     1       8.241   5.947  12.309  0.00  0.00    +0.000 OA
ATOM     31  H   UNL     1       8.810   5.230  11.950  0.00  0.00    +0.000 HD
ENDBRANCH  28  30
ENDBRANCH  25  26
ENDBRANCH   1  25
TORSDOF 9
ENDMDL
MODEL 6
REMARK VINA RESULT:      -8.2      6.163      8.332
REMARK  Name = 
REMARK  11 active torsions:
REMARK  status: ('A' for Active; 'I' for Inactive)
REMARK    1  A    between atoms: C_1  and  N_2
REMARK    2  A    between atoms: N_2  and  C_3
REMARK    3  A    between atoms: C_7  and  C_8
REMARK    4  A    between atoms: C_11  and  C_12
REMARK    5  A    between atoms: C_12  and  C_13
REMARK    6  A    between atoms: C_12  and  C_22
REMARK    7  A    between atoms: C_13  and  C_14
REMARK    8  A    between atoms: C_14  and  C_15
REMARK    9  A    between atoms: C_15  and  C_16
REMARK   10  A    between atoms: C_22  and  C_23
REMARK   11  A    between atoms: N_25  and  O_26
REMARK                            x       y       z     vdW  Elec       q    Type
REMARK                         _______ _______ _______ _____ _____    ______ ____
ROOT
ATOM      1  C   UNL     1       2.278   5.442  19.826  0.00  0.00    +0.000 C 
ENDROOT
BRANCH   1   5
ATOM      2  C   UNL     1       1.228   8.831  20.393  0.00  0.00    +0.000 A 
ATOM      3  N   UNL     1       1.787   8.994  19.184  0.00  0.00    +0.000 NA
ATOM      4  O   UNL     1       2.259   7.719  18.865  0.00  0.00    +0.000 OA
ATOM      5  C   UNL     1       1.930   6.901  19.910  0.00  0.00    +0.000 A 
ATOM      6  N   UNL     1       1.294   7.536  20.864  0.00  0.00    +0.000 NA
BRANCH   2  13
ATOM      7  C   UNL     1      -1.097  14.266  22.840  0.00  0.00    +0.000 C 
ATOM      8  N   UNL     1      -1.395  12.911  23.296  0.00  0.00    +0.000 N 
ATOM      9  C   UNL     1      -2.781  12.642  23.668  0.00  0.00    +0.000 C 
ATOM     10  C   UNL     1      -0.721  11.898  22.600  0.00  0.00    +0.000 A 
ATOM     11  C   UNL     1      -0.953  10.555  22.898  0.00  0.00    +0.000 A 
ATOM     12  C   UNL     1      -0.309   9.547  22.180  0.00  0.00    +0.000 A 
ATOM     13  C   UNL     1       0.590   9.876  21.167  0.00  0.00    +0.000 A 
ATOM     14  C   UNL     1       0.806  11.227  20.954  0.00  0.00    +0.000 A 
ATOM     15  N   UNL     1       0.182  12.221  21.643  0.00  0.00    +0.000 NA
ENDBRANCH   2  13
ENDBRANCH   1   5
BRANCH   1  16
ATOM     16  C   UNL     1       2.570   5.005  18.367  0.00  0.00    +0.000 C 
BRANCH  16  17
ATOM     17  C   UNL     1       3.700   3.984  18.150  0.00  0.00    +0.000 C 
BRANCH  17  18
ATOM     18  C   UNL     1       5.109   4.429  18.564  0.00  0.00    +0.000 C 
BRANCH  18  19
ATOM     19  C   UNL     1       6.137   4.584  17.418  0.00  0.00    +0.000 C 
ATOM     20  C   UNL     1       5.828   5.738  16.450  0.00  0.00    +0.000 C 
ATOM     21  C   UNL     1       6.077   7.126  17.045  0.00  0.00    +0.000 C 
ATOM     22  C   UNL     1       7.462   7.264  17.671  0.00  0.00    +0.000 C 
ATOM     23  C   UNL     1       7.794   6.121  18.624  0.00  0.00    +0.000 C 
ATOM     24  C   UNL     1       7.562   4.756  17.978  0.00  0.00    +0.000 C 
ENDBRANCH  18  19
ENDBRANCH  17  18
ENDBRANCH  16  17
ENDBRANCH   1  16
BRANCH   1  25
ATOM     25  C   UNL     1       1.151   4.580  20.430  0.00  0.00    +0.000 C 
BRANCH  25  26
ATOM     26  C   UNL     1       1.615   3.192  20.800  0.00  0.00    +0.000 C 
ATOM     27  O   UNL     1       1.413   2.195  20.113  0.00  0.00    +0.000 OA
ATOM     28  N   UNL     1       2.309   3.138  21.984  0.00  0.00    +0.000 N 
ATOM     29  H   UNL     1       2.752   3.945  22.414  0.00  0.00    +0.000 HD
BRANCH  28  30
ATOM     30  O   UNL     1       2.829   1.871  22.334  0.00  0.00    +0.000 OA
ATOM     31  H   UNL     1       2.038   1.406  22.685  0.00  0.00    +0.000 HD
ENDBRANCH  28  30
ENDBRANCH  25  26
ENDBRANCH   1  25
TORSDOF 9
ENDMDL
MODEL 7
REMARK VINA RESULT:      -8.2      0.955      1.412
REMARK  Name = 
REMARK  11 active torsions:
REMARK  status: ('A' for Active; 'I' for Inactive)
REMARK    1  A    between atoms: C_1  and  N_2
REMARK    2  A    between atoms: N_2  and  C_3
REMARK    3  A    between atoms: C_7  and  C_8
REMARK    4  A    between atoms: C_11  and  C_12
REMARK    5  A    between atoms: C_12  and  C_13
REMARK    6  A    between atoms: C_12  and  C_22
REMARK    7  A    between atoms: C_13  and  C_14
REMARK    8  A    between atoms: C_14  and  C_15
REMARK    9  A    between atoms: C_15  and  C_16
REMARK   10  A    between atoms: C_22  and  C_23
REMARK   11  A    between atoms: N_25  and  O_26
REMARK                            x       y       z     vdW  Elec       q    Type
REMARK                         _______ _______ _______ _____ _____    ______ ____
ROOT
ATOM      1  C   UNL     1       5.398   6.046  16.926  0.00  0.00    +0.000 C 
ENDROOT
BRANCH   1   5
ATOM      2  C   UNL     1       7.914   8.294  18.164  0.00  0.00    +0.000 A 
ATOM      3  N   UNL     1       8.419   7.145  18.640  0.00  0.00    +0.000 NA
ATOM      4  O   UNL     1       7.494   6.183  18.229  0.00  0.00    +0.000 OA
ATOM      5  C   UNL     1       6.520   6.842  17.533  0.00  0.00    +0.000 A 
ATOM      6  N   UNL     1       6.738   8.132  17.462  0.00  0.00    +0.000 NA
BRANCH   2  13
ATOM      7  C   UNL     1      11.437  13.410  19.692  0.00  0.00    +0.000 C 
ATOM      8  N   UNL     1      10.377  13.354  18.690  0.00  0.00    +0.000 N 
ATOM      9  C   UNL     1      10.620  14.080  17.447  0.00  0.00    +0.000 C 
ATOM     10  C   UNL     1       9.741  12.109  18.580  0.00  0.00    +0.000 A 
ATOM     11  C   UNL     1       8.745  11.902  17.625  0.00  0.00    +0.000 A 
ATOM     12  C   UNL     1       8.139  10.653  17.492  0.00  0.00    +0.000 A 
ATOM     13  C   UNL     1       8.513   9.602  18.328  0.00  0.00    +0.000 A 
ATOM     14  C   UNL     1       9.475   9.889  19.281  0.00  0.00    +0.000 A 
ATOM     15  N   UNL     1      10.078  11.102  19.420  0.00  0.00    +0.000 NA
ENDBRANCH   2  13
ENDBRANCH   1   5
BRANCH   1  16
ATOM     16  C   UNL     1       5.478   4.549  17.323  0.00  0.00    +0.000 C 
BRANCH  16  17
ATOM     17  C   UNL     1       4.553   4.071  18.455  0.00  0.00    +0.000 C 
BRANCH  17  18
ATOM     18  C   UNL     1       3.974   5.160  19.369  0.00  0.00    +0.000 C 
BRANCH  18  19
ATOM     19  C   UNL     1       2.479   5.496  19.162  0.00  0.00    +0.000 C 
ATOM     20  C   UNL     1       1.802   4.684  18.045  0.00  0.00    +0.000 C 
ATOM     21  C   UNL     1       1.563   3.216  18.406  0.00  0.00    +0.000 C 
ATOM     22  C   UNL     1       0.853   3.042  19.746  0.00  0.00    +0.000 C 
ATOM     23  C   UNL     1       1.500   3.851  20.865  0.00  0.00    +0.000 C 
ATOM     24  C   UNL     1       1.689   5.316  20.472  0.00  0.00    +0.000 C 
ENDBRANCH  18  19
ENDBRANCH  17  18
ENDBRANCH  16  17
ENDBRANCH   1  16
BRANCH   1  25
ATOM     25  C   UNL     1       5.396   6.196  15.391  0.00  0.00    +0.000 C 
BRANCH  25  26
ATOM     26  C   UNL     1       6.300   5.198  14.708  0.00  0.00    +0.000 C 
ATOM     27  O   UNL     1       7.526   5.235  14.758  0.00  0.00    +0.000 OA
ATOM     28  N   UNL     1       5.624   4.217  14.025  0.00  0.00    +0.000 N 
ATOM     29  H   UNL     1       4.654   3.973  14.204  0.00  0.00    +0.000 HD
BRANCH  28  30
ATOM     30  O   UNL     1       6.428   3.216  13.433  0.00  0.00    +0.000 OA
ATOM     31  H   UNL     1       5.812   2.802  12.789  0.00  0.00    +0.000 HD
ENDBRANCH  28  30
ENDBRANCH  25  26
ENDBRANCH   1  25
TORSDOF 9
ENDMDL
MODEL 8
REMARK VINA RESULT:      -8.1      4.531      6.130
REMARK  Name = 
REMARK  11 active torsions:
REMARK  status: ('A' for Active; 'I' for Inactive)
REMARK    1  A    between atoms: C_1  and  N_2
REMARK    2  A    between atoms: N_2  and  C_3
REMARK    3  A    between atoms: C_7  and  C_8
REMARK    4  A    between atoms: C_11  and  C_12
REMARK    5  A    between atoms: C_12  and  C_13
REMARK    6  A    between atoms: C_12  and  C_22
REMARK    7  A    between atoms: C_13  and  C_14
REMARK    8  A    between atoms: C_14  and  C_15
REMARK    9  A    between atoms: C_15  and  C_16
REMARK   10  A    between atoms: C_22  and  C_23
REMARK   11  A    between atoms: N_25  and  O_26
REMARK                            x       y       z     vdW  Elec       q    Type
REMARK                         _______ _______ _______ _____ _____    ______ ____
ROOT
ATOM      1  C   UNL     1       5.208   4.744  16.761  0.00  0.00    +0.000 C 
ENDROOT
BRANCH   1   5
ATOM      2  C   UNL     1       3.157   7.461  17.913  0.00  0.00    +0.000 A 
ATOM      3  N   UNL     1       3.592   8.008  16.767  0.00  0.00    +0.000 NA
ATOM      4  O   UNL     1       4.432   7.030  16.231  0.00  0.00    +0.000 OA
ATOM      5  C   UNL     1       4.418   5.976  17.102  0.00  0.00    +0.000 A 
ATOM      6  N   UNL     1       3.648   6.192  18.140  0.00  0.00    +0.000 NA
BRANCH   2  13
ATOM      7  C   UNL     1      -0.261   9.414  22.954  0.00  0.00    +0.000 C 
ATOM      8  N   UNL     1      -0.254  10.017  21.625  0.00  0.00    +0.000 N 
ATOM      9  C   UNL     1      -0.277  11.475  21.573  0.00  0.00    +0.000 C 
ATOM     10  C   UNL     1       0.566   9.366  20.691  0.00  0.00    +0.000 A 
ATOM     11  C   UNL     1       0.706   9.867  19.397  0.00  0.00    +0.000 A 
ATOM     12  C   UNL     1       1.550   9.239  18.481  0.00  0.00    +0.000 A 
ATOM     13  C   UNL     1       2.250   8.090  18.848  0.00  0.00    +0.000 A 
ATOM     14  C   UNL     1       2.029   7.623  20.133  0.00  0.00    +0.000 A 
ATOM     15  N   UNL     1       1.213   8.228  21.039  0.00  0.00    +0.000 NA
ENDBRANCH   2  13
ENDBRANCH   1   5
BRANCH   1  16
ATOM     16  C   UNL     1       4.933   3.591  17.761  0.00  0.00    +0.000 C 
BRANCH  16  17
ATOM     17  C   UNL     1       3.850   2.568  17.375  0.00  0.00    +0.000 C 
BRANCH  17  18
ATOM     18  C   UNL     1       2.396   2.978  17.648  0.00  0.00    +0.000 C 
BRANCH  18  19
ATOM     19  C   UNL     1       1.652   2.159  18.729  0.00  0.00    +0.000 C 
ATOM     20  C   UNL     1       2.549   1.680  19.882  0.00  0.00    +0.000 C 
ATOM     21  C   UNL     1       2.984   2.797  20.832  0.00  0.00    +0.000 C 
ATOM     22  C   UNL     1       1.813   3.638  21.335  0.00  0.00    +0.000 C 
ATOM     23  C   UNL     1       0.902   4.112  20.208  0.00  0.00    +0.000 C 
ATOM     24  C   UNL     1       0.467   2.959  19.305  0.00  0.00    +0.000 C 
ENDBRANCH  18  19
ENDBRANCH  17  18
ENDBRANCH  16  17
ENDBRANCH   1  16
BRANCH   1  25
ATOM     25  C   UNL     1       6.715   5.064  16.711  0.00  0.00    +0.000 C 
BRANCH  25  26
ATOM     26  C   UNL     1       7.205   5.754  17.961  0.00  0.00    +0.000 C 
ATOM     27  O   UNL     1       7.463   6.953  18.027  0.00  0.00    +0.000 OA
ATOM     28  N   UNL     1       7.325   4.918  19.044  0.00  0.00    +0.000 N 
ATOM     29  H   UNL     1       6.850   4.024  19.121  0.00  0.00    +0.000 HD
BRANCH  28  30
ATOM     30  O   UNL     1       7.707   5.535  20.257  0.00  0.00    +0.000 OA
ATOM     31  H   UNL     1       8.526   5.046  20.496  0.00  0.00    +0.000 HD
ENDBRANCH  28  30
ENDBRANCH  25  26
ENDBRANCH   1  25
TORSDOF 9
ENDMDL
MODEL 9
REMARK VINA RESULT:      -8.0      0.988      1.601
REMARK  Name = 
REMARK  11 active torsions:
REMARK  status: ('A' for Active; 'I' for Inactive)
REMARK    1  A    between atoms: C_1  and  N_2
REMARK    2  A    between atoms: N_2  and  C_3
REMARK    3  A    between atoms: C_7  and  C_8
REMARK    4  A    between atoms: C_11  and  C_12
REMARK    5  A    between atoms: C_12  and  C_13
REMARK    6  A    between atoms: C_12  and  C_22
REMARK    7  A    between atoms: C_13  and  C_14
REMARK    8  A    between atoms: C_14  and  C_15
REMARK    9  A    between atoms: C_15  and  C_16
REMARK   10  A    between atoms: C_22  and  C_23
REMARK   11  A    between atoms: N_25  and  O_26
REMARK                            x       y       z     vdW  Elec       q    Type
REMARK                         _______ _______ _______ _____ _____    ______ ____
ROOT
ATOM      1  C   UNL     1       6.328   6.445  16.722  0.00  0.00    +0.000 C 
ENDROOT
BRANCH   1   5
ATOM      2  C   UNL     1       8.358   8.956  18.299  0.00  0.00    +0.000 A 
ATOM      3  N   UNL     1       8.746   7.897  19.027  0.00  0.00    +0.000 NA
ATOM      4  O   UNL     1       7.991   6.845  18.506  0.00  0.00    +0.000 OA
ATOM      5  C   UNL     1       7.223   7.366  17.502  0.00  0.00    +0.000 A 
ATOM      6  N   UNL     1       7.419   8.651  17.336  0.00  0.00    +0.000 NA
BRANCH   2  13
ATOM      7  C   UNL     1      11.473  14.334  19.814  0.00  0.00    +0.000 C 
ATOM      8  N   UNL     1      10.433  14.190  18.800  0.00  0.00    +0.000 N 
ATOM      9  C   UNL     1      10.639  14.918  17.552  0.00  0.00    +0.000 C 
ATOM     10  C   UNL     1       9.892  12.900  18.695  0.00  0.00    +0.000 A 
ATOM     11  C   UNL     1       8.927  12.611  17.730  0.00  0.00    +0.000 A 
ATOM     12  C   UNL     1       8.417  11.318  17.603  0.00  0.00    +0.000 A 
ATOM     13  C   UNL     1       8.856  10.306  18.456  0.00  0.00    +0.000 A 
ATOM     14  C   UNL     1       9.782  10.674  19.418  0.00  0.00    +0.000 A 
ATOM     15  N   UNL     1      10.292  11.929  19.551  0.00  0.00    +0.000 NA
ENDBRANCH   2  13
ENDBRANCH   1   5
BRANCH   1  16
ATOM     16  C   UNL     1       4.859   6.522  17.211  0.00  0.00    +0.000 C 
BRANCH  16  17
ATOM     17  C   UNL     1       4.536   5.886  18.573  0.00  0.00    +0.000 C 
BRANCH  17  18
ATOM     18  C   UNL     1       3.081   5.450  18.796  0.00  0.00    +0.000 C 
BRANCH  18  19
ATOM     19  C   UNL     1       2.840   4.457  19.957  0.00  0.00    +0.000 C 
ATOM     20  C   UNL     1       1.363   4.082  20.166  0.00  0.00    +0.000 C 
ATOM     21  C   UNL     1       0.800   3.163  19.080  0.00  0.00    +0.000 C 
ATOM     22  C   UNL     1       1.668   1.933  18.834  0.00  0.00    +0.000 C 
ATOM     23  C   UNL     1       3.140   2.281  18.639  0.00  0.00    +0.000 C 
ATOM     24  C   UNL     1       3.668   3.172  19.762  0.00  0.00    +0.000 C 
ENDBRANCH  18  19
ENDBRANCH  17  18
ENDBRANCH  16  17
ENDBRANCH   1  16
BRANCH   1  25
ATOM     25  C   UNL     1       6.845   4.994  16.798  0.00  0.00    +0.000 C 
BRANCH  25  26
ATOM     26  C   UNL     1       6.212   4.096  15.762  0.00  0.00    +0.000 C 
ATOM     27  O   UNL     1       5.232   3.387  15.974  0.00  0.00    +0.000 OA
ATOM     28  N   UNL     1       6.824   4.152  14.534  0.00  0.00    +0.000 N 
ATOM     29  H   UNL     1       7.416   4.921  14.234  0.00  0.00    +0.000 HD
BRANCH  28  30
ATOM     30  O   UNL     1       6.219   3.386  13.511  0.00  0.00    +0.000 OA
ATOM     31  H   UNL     1       5.994   4.068  12.839  0.00  0.00    +0.000 HD
ENDBRANCH  28  30
ENDBRANCH  25  26
ENDBRANCH   1  25
TORSDOF 9
ENDMDL
