MODEL 1
REMARK VINA RESULT:      -6.5      0.000      0.000
REMARK  Name = 
REMARK  20 active torsions:
REMARK  status: ('A' for Active; 'I' for Inactive)
REMARK    1  A    between atoms: C_1  and  C_2
REMARK    2  A    between atoms: C_2  and  N_3
REMARK    3  A    between atoms: C_2  and  C_29
REMARK    4  A    between atoms: C_4  and  C_6
REMARK    5  A    between atoms: C_6  and  C_7
REMARK    6  A    between atoms: C_6  and  N_13
REMARK    7  A    between atoms: C_7  and  C_8
REMARK    8  A    between atoms: N_10  and  C_11
REMARK    9  A    between atoms: N_10  and  C_12
REMARK   10  A    between atoms: C_14  and  C_16
REMARK   11  A    between atoms: C_16  and  N_17
REMARK   12  A    between atoms: C_16  and  C_25
REMARK   13  A    between atoms: N_20  and  C_21
REMARK   14  A    between atoms: C_21  and  C_22
REMARK   15  A    between atoms: C_21  and  C_23
REMARK   16  A    between atoms: C_21  and  C_24
REMARK   17  A    between atoms: C_25  and  C_26
REMARK   18  A    between atoms: C_25  and  C_27
REMARK   19  A    between atoms: C_25  and  C_28
REMARK   20  A    between atoms: C_29  and  C_31
REMARK                            x       y       z     vdW  Elec       q    Type
REMARK                         _______ _______ _______ _____ _____    ______ ____
ROOT
ATOM      1  C   UNL     1       3.339   6.990  17.833  0.00  0.00    +0.000 C 
ENDROOT
BRANCH   1   3
ATOM      2  N   UNL     1       3.235   5.048  19.375  0.00  0.00    +0.000 N 
ATOM      3  C   UNL     1       2.770   5.591  18.193  0.00  0.00    +0.000 C 
ATOM      4  O   UNL     1       1.886   5.047  17.531  0.00  0.00    +0.000 OA
ATOM      5  H   UNL     1       3.596   5.722  20.053  0.00  0.00    +0.000 HD
BRANCH   2   7
ATOM      6  C   UNL     1       2.480   3.966  21.453  0.00  0.00    +0.000 C 
ATOM      7  C   UNL     1       2.674   3.828  19.946  0.00  0.00    +0.000 C 
BRANCH   7   8
ATOM      8  C   UNL     1       3.618   2.662  19.663  0.00  0.00    +0.000 C 
ATOM      9  O   UNL     1       4.666   2.506  20.299  0.00  0.00    +0.000 OA
BRANCH   8  10
ATOM     10  C   UNL     1       3.151   1.702  18.584  0.00  0.00    +0.000 C 
ATOM     11  F   UNL     1       3.153   2.252  17.338  0.00  0.00    +0.000 F 
ATOM     12  F   UNL     1       3.937   0.593  18.508  0.00  0.00    +0.000 F 
ATOM     13  F   UNL     1       1.880   1.264  18.794  0.00  0.00    +0.000 F 
ENDBRANCH   8  10
ENDBRANCH   7   8
ENDBRANCH   2   7
ENDBRANCH   1   3
BRANCH   1  14
ATOM     14  N   UNL     1       2.943   7.968  18.844  0.00  0.00    +0.000 N 
ATOM     15  C   UNL     1       1.856   8.801  18.693  0.00  0.00    +0.000 C 
ATOM     16  O   UNL     1       1.161   8.738  17.679  0.00  0.00    +0.000 OA
ATOM     17  H   UNL     1       3.216   7.757  19.806  0.00  0.00    +0.000 HD
BRANCH  15  18
ATOM     18  C   UNL     1       1.522   9.706  19.917  0.00  0.00    +0.000 C 
BRANCH  18  19
ATOM     19  N   UNL     1       0.789  10.903  19.471  0.00  0.00    +0.000 N 
ATOM     20  C   UNL     1       1.102  12.149  19.940  0.00  0.00    +0.000 C 
ATOM     21  O   UNL     1       1.964  12.318  20.795  0.00  0.00    +0.000 OA
ATOM     22  N   UNL     1       0.385  13.151  19.346  0.00  0.00    +0.000 N 
ATOM     23  H   UNL     1       0.182  10.836  18.668  0.00  0.00    +0.000 HD
ATOM     24  H   UNL     1       0.003  12.941  18.436  0.00  0.00    +0.000 HD
BRANCH  22  25
ATOM     25  C   UNL     1       0.577  14.580  19.664  0.00  0.00    +0.000 C 
ATOM     26  C   UNL     1       0.297  14.860  21.152  0.00  0.00    +0.000 C 
ATOM     27  C   UNL     1       2.042  14.962  19.376  0.00  0.00    +0.000 C 
ATOM     28  C   UNL     1      -0.325  15.465  18.782  0.00  0.00    +0.000 C 
ENDBRANCH  22  25
ENDBRANCH  18  19
BRANCH  18  29
ATOM     29  C   UNL     1       0.784   8.959  21.078  0.00  0.00    +0.000 C 
ATOM     30  C   UNL     1       1.329   9.401  22.456  0.00  0.00    +0.000 C 
ATOM     31  C   UNL     1      -0.715   9.331  21.061  0.00  0.00    +0.000 C 
ATOM     32  C   UNL     1       0.902   7.426  20.955  0.00  0.00    +0.000 C 
ENDBRANCH  18  29
ENDBRANCH  15  18
ENDBRANCH   1  14
BRANCH   1  33
ATOM     33  C   UNL     1       4.841   6.945  17.527  0.00  0.00    +0.000 C 
BRANCH  33  34
ATOM     34  C   UNL     1       5.153   6.418  16.140  0.00  0.00    +0.000 C 
ATOM     35  O   UNL     1       4.871   7.068  15.133  0.00  0.00    +0.000 OA
ATOM     36  N   UNL     1       5.758   5.164  16.072  0.00  0.00    +0.000 N 
ATOM     37  C   UNL     1       6.005   4.303  17.222  0.00  0.00    +0.000 C 
ATOM     38  C   UNL     1       5.892   4.532  14.769  0.00  0.00    +0.000 C 
ENDBRANCH  33  34
ENDBRANCH   1  33
TORSDOF 11
ENDMDL
MODEL 2
REMARK VINA RESULT:      -6.4      1.036      1.429
REMARK  Name = 
REMARK  20 active torsions:
REMARK  status: ('A' for Active; 'I' for Inactive)
REMARK    1  A    between atoms: C_1  and  C_2
REMARK    2  A    between atoms: C_2  and  N_3
REMARK    3  A    between atoms: C_2  and  C_29
REMARK    4  A    between atoms: C_4  and  C_6
REMARK    5  A    between atoms: C_6  and  C_7
REMARK    6  A    between atoms: C_6  and  N_13
REMARK    7  A    between atoms: C_7  and  C_8
REMARK    8  A    between atoms: N_10  and  C_11
REMARK    9  A    between atoms: N_10  and  C_12
REMARK   10  A    between atoms: C_14  and  C_16
REMARK   11  A    between atoms: C_16  and  N_17
REMARK   12  A    between atoms: C_16  and  C_25
REMARK   13  A    between atoms: N_20  and  C_21
REMARK   14  A    between atoms: C_21  and  C_22
REMARK   15  A    between atoms: C_21  and  C_23
REMARK   16  A    between atoms: C_21  and  C_24
REMARK   17  A    between atoms: C_25  and  C_26
REMARK   18  A    between atoms: C_25  and  C_27
REMARK   19  A    between atoms: C_25  and  C_28
REMARK   20  A    between atoms: C_29  and  C_31
REMARK                            x       y       z     vdW  Elec       q    Type
REMARK                         _______ _______ _______ _____ _____    ______ ____
ROOT
ATOM      1  C   UNL     1       3.194   6.617  17.838  0.00  0.00    +0.000 C 
ENDROOT
BRANCH   1   3
ATOM      2  N   UNL     1       2.869   4.622  19.279  0.00  0.00    +0.000 N 
ATOM      3  C   UNL     1       2.449   5.290  18.146  0.00  0.00    +0.000 C 
ATOM      4  O   UNL     1       1.480   4.910  17.488  0.00  0.00    +0.000 OA
ATOM      5  H   UNL     1       3.339   5.201  19.978  0.00  0.00    +0.000 HD
BRANCH   2   7
ATOM      6  C   UNL     1       0.877   3.874  20.515  0.00  0.00    +0.000 C 
ATOM      7  C   UNL     1       2.162   3.460  19.806  0.00  0.00    +0.000 C 
BRANCH   7   8
ATOM      8  C   UNL     1       3.069   2.726  20.792  0.00  0.00    +0.000 C 
ATOM      9  O   UNL     1       2.746   2.563  21.974  0.00  0.00    +0.000 OA
BRANCH   8  10
ATOM     10  C   UNL     1       4.358   2.186  20.202  0.00  0.00    +0.000 C 
ATOM     11  F   UNL     1       4.160   1.393  19.112  0.00  0.00    +0.000 F 
ATOM     12  F   UNL     1       5.196   3.180  19.798  0.00  0.00    +0.000 F 
ATOM     13  F   UNL     1       5.057   1.427  21.090  0.00  0.00    +0.000 F 
ENDBRANCH   8  10
ENDBRANCH   7   8
ENDBRANCH   2   7
ENDBRANCH   1   3
BRANCH   1  14
ATOM     14  N   UNL     1       2.860   7.624  18.843  0.00  0.00    +0.000 N 
ATOM     15  C   UNL     1       1.888   8.581  18.647  0.00  0.00    +0.000 C 
ATOM     16  O   UNL     1       1.249   8.611  17.596  0.00  0.00    +0.000 OA
ATOM     17  H   UNL     1       3.052   7.373  19.815  0.00  0.00    +0.000 HD
BRANCH  15  18
ATOM     18  C   UNL     1       1.594   9.506  19.866  0.00  0.00    +0.000 C 
BRANCH  18  19
ATOM     19  N   UNL     1       0.867  10.708  19.420  0.00  0.00    +0.000 N 
ATOM     20  C   UNL     1       1.161  11.947  19.919  0.00  0.00    +0.000 C 
ATOM     21  O   UNL     1       2.000  12.105  20.799  0.00  0.00    +0.000 OA
ATOM     22  N   UNL     1       0.456  12.955  19.322  0.00  0.00    +0.000 N 
ATOM     23  H   UNL     1       0.282  10.651  18.601  0.00  0.00    +0.000 HD
ATOM     24  H   UNL     1       0.099  12.759  18.399  0.00  0.00    +0.000 HD
BRANCH  22  25
ATOM     25  C   UNL     1       0.632  14.380  19.670  0.00  0.00    +0.000 C 
ATOM     26  C   UNL     1       0.415  14.615  21.176  0.00  0.00    +0.000 C 
ATOM     27  C   UNL     1       2.074  14.802  19.325  0.00  0.00    +0.000 C 
ATOM     28  C   UNL     1      -0.328  15.267  18.853  0.00  0.00    +0.000 C 
ENDBRANCH  22  25
ENDBRANCH  18  19
BRANCH  18  29
ATOM     29  C   UNL     1       0.872   8.785  21.053  0.00  0.00    +0.000 C 
ATOM     30  C   UNL     1      -0.652   9.045  21.017  0.00  0.00    +0.000 C 
ATOM     31  C   UNL     1       1.058   7.257  20.918  0.00  0.00    +0.000 C 
ATOM     32  C   UNL     1       1.427   9.219  22.425  0.00  0.00    +0.000 C 
ENDBRANCH  18  29
ENDBRANCH  15  18
ENDBRANCH   1  14
BRANCH   1  33
ATOM     33  C   UNL     1       4.695   6.402  17.613  0.00  0.00    +0.000 C 
BRANCH  33  34
ATOM     34  C   UNL     1       5.052   6.162  16.158  0.00  0.00    +0.000 C 
ATOM     35  O   UNL     1       5.034   7.079  15.338  0.00  0.00    +0.000 OA
ATOM     36  N   UNL     1       5.384   4.854  15.806  0.00  0.00    +0.000 N 
ATOM     37  C   UNL     1       5.308   3.711  16.707  0.00  0.00    +0.000 C 
ATOM     38  C   UNL     1       5.536   4.537  14.394  0.00  0.00    +0.000 C 
ENDBRANCH  33  34
ENDBRANCH   1  33
TORSDOF 11
ENDMDL
MODEL 3
REMARK VINA RESULT:      -6.4      1.856      2.441
REMARK  Name = 
REMARK  20 active torsions:
REMARK  status: ('A' for Active; 'I' for Inactive)
REMARK    1  A    between atoms: C_1  and  C_2
REMARK    2  A    between atoms: C_2  and  N_3
REMARK    3  A    between atoms: C_2  and  C_29
REMARK    4  A    between atoms: C_4  and  C_6
REMARK    5  A    between atoms: C_6  and  C_7
REMARK    6  A    between atoms: C_6  and  N_13
REMARK    7  A    between atoms: C_7  and  C_8
REMARK    8  A    between atoms: N_10  and  C_11
REMARK    9  A    between atoms: N_10  and  C_12
REMARK   10  A    between atoms: C_14  and  C_16
REMARK   11  A    between atoms: C_16  and  N_17
REMARK   12  A    between atoms: C_16  and  C_25
REMARK   13  A    between atoms: N_20  and  C_21
REMARK   14  A    between atoms: C_21  and  C_22
REMARK   15  A    between atoms: C_21  and  C_23
REMARK   16  A    between atoms: C_21  and  C_24
REMARK   17  A    between atoms: C_25  and  C_26
REMARK   18  A    between atoms: C_25  and  C_27
REMARK   19  A    between atoms: C_25  and  C_28
REMARK   20  A    between atoms: C_29  and  C_31
REMARK                            x       y       z     vdW  Elec       q    Type
REMARK                         _______ _______ _______ _____ _____    ______ ____
ROOT
ATOM      1  C   UNL     1       2.890   7.005  18.587  0.00  0.00    +0.000 C 
ENDROOT
BRANCH   1   3
ATOM      2  N   UNL     1       3.133   4.649  19.330  0.00  0.00    +0.000 N 
ATOM      3  C   UNL     1       2.536   5.869  19.584  0.00  0.00    +0.000 C 
ATOM      4  O   UNL     1       1.856   6.063  20.592  0.00  0.00    +0.000 OA
ATOM      5  H   UNL     1       3.990   4.690  18.775  0.00  0.00    +0.000 HD
BRANCH   2   7
ATOM      6  C   UNL     1       4.170   2.527  20.021  0.00  0.00    +0.000 C 
ATOM      7  C   UNL     1       3.048   3.531  20.264  0.00  0.00    +0.000 C 
BRANCH   7   8
ATOM      8  C   UNL     1       1.701   2.835  20.088  0.00  0.00    +0.000 C 
ATOM      9  O   UNL     1       0.963   2.596  21.052  0.00  0.00    +0.000 OA
BRANCH   8  10
ATOM     10  C   UNL     1       1.326   2.504  18.656  0.00  0.00    +0.000 C 
ATOM     11  F   UNL     1       0.251   1.674  18.559  0.00  0.00    +0.000 F 
ATOM     12  F   UNL     1       1.010   3.617  17.937  0.00  0.00    +0.000 F 
ATOM     13  F   UNL     1       2.335   1.883  17.986  0.00  0.00    +0.000 F 
ENDBRANCH   8  10
ENDBRANCH   7   8
ENDBRANCH   2   7
ENDBRANCH   1   3
BRANCH   1  14
ATOM     14  N   UNL     1       2.343   8.275  19.060  0.00  0.00    +0.000 N 
ATOM     15  C   UNL     1       1.986   9.298  18.208  0.00  0.00    +0.000 C 
ATOM     16  O   UNL     1       2.112   9.165  16.991  0.00  0.00    +0.000 OA
ATOM     17  H   UNL     1       1.857   8.250  19.959  0.00  0.00    +0.000 HD
BRANCH  15  18
ATOM     18  C   UNL     1       1.323  10.537  18.880  0.00  0.00    +0.000 C 
BRANCH  18  19
ATOM     19  N   UNL     1       1.654  11.757  18.122  0.00  0.00    +0.000 N 
ATOM     20  C   UNL     1       2.227  12.840  18.728  0.00  0.00    +0.000 C 
ATOM     21  O   UNL     1       2.436  12.869  19.936  0.00  0.00    +0.000 OA
ATOM     22  N   UNL     1       2.553  13.842  17.856  0.00  0.00    +0.000 N 
ATOM     23  H   UNL     1       1.641  11.727  17.114  0.00  0.00    +0.000 HD
ATOM     24  H   UNL     1       2.681  13.567  16.894  0.00  0.00    +0.000 HD
BRANCH  22  25
ATOM     25  C   UNL     1       3.216  15.094  18.275  0.00  0.00    +0.000 C 
ATOM     26  C   UNL     1       4.590  14.809  18.909  0.00  0.00    +0.000 C 
ATOM     27  C   UNL     1       3.439  15.979  17.034  0.00  0.00    +0.000 C 
ATOM     28  C   UNL     1       2.331  15.879  19.263  0.00  0.00    +0.000 C 
ENDBRANCH  22  25
ENDBRANCH  18  19
BRANCH  18  29
ATOM     29  C   UNL     1      -0.218  10.386  19.113  0.00  0.00    +0.000 C 
ATOM     30  C   UNL     1      -0.508   9.465  20.322  0.00  0.00    +0.000 C 
ATOM     31  C   UNL     1      -0.826  11.763  19.457  0.00  0.00    +0.000 C 
ATOM     32  C   UNL     1      -0.946   9.834  17.871  0.00  0.00    +0.000 C 
ENDBRANCH  18  29
ENDBRANCH  15  18
ENDBRANCH   1  14
BRANCH   1  33
ATOM     33  C   UNL     1       4.385   7.032  18.244  0.00  0.00    +0.000 C 
BRANCH  33  34
ATOM     34  C   UNL     1       4.767   6.039  17.163  0.00  0.00    +0.000 C 
ATOM     35  O   UNL     1       3.946   5.241  16.711  0.00  0.00    +0.000 OA
ATOM     36  N   UNL     1       6.091   6.073  16.726  0.00  0.00    +0.000 N 
ATOM     37  C   UNL     1       7.131   6.913  17.307  0.00  0.00    +0.000 C 
ATOM     38  C   UNL     1       6.553   5.014  15.843  0.00  0.00    +0.000 C 
ENDBRANCH  33  34
ENDBRANCH   1  33
TORSDOF 11
ENDMDL
MODEL 4
REMARK VINA RESULT:      -6.4      0.534      1.402
REMARK  Name = 
REMARK  20 active torsions:
REMARK  status: ('A' for Active; 'I' for Inactive)
REMARK    1  A    between atoms: C_1  and  C_2
REMARK    2  A    between atoms: C_2  and  N_3
REMARK    3  A    between atoms: C_2  and  C_29
REMARK    4  A    between atoms: C_4  and  C_6
REMARK    5  A    between atoms: C_6  and  C_7
REMARK    6  A    between atoms: C_6  and  N_13
REMARK    7  A    between atoms: C_7  and  C_8
REMARK    8  A    between atoms: N_10  and  C_11
REMARK    9  A    between atoms: N_10  and  C_12
REMARK   10  A    between atoms: C_14  and  C_16
REMARK   11  A    between atoms: C_16  and  N_17
REMARK   12  A    between atoms: C_16  and  C_25
REMARK   13  A    between atoms: N_20  and  C_21
REMARK   14  A    between atoms: C_21  and  C_22
REMARK   15  A    between atoms: C_21  and  C_23
REMARK   16  A    between atoms: C_21  and  C_24
REMARK   17  A    between atoms: C_25  and  C_26
REMARK   18  A    between atoms: C_25  and  C_27
REMARK   19  A    between atoms: C_25  and  C_28
REMARK   20  A    between atoms: C_29  and  C_31
REMARK                            x       y       z     vdW  Elec       q    Type
REMARK                         _______ _______ _______ _____ _____    ______ ____
ROOT
ATOM      1  C   UNL     1       3.384   7.075  17.829  0.00  0.00    +0.000 C 
ENDROOT
BRANCH   1   3
ATOM      2  N   UNL     1       3.203   5.096  19.318  0.00  0.00    +0.000 N 
ATOM      3  C   UNL     1       2.753   5.694  18.157  0.00  0.00    +0.000 C 
ATOM      4  O   UNL     1       1.839   5.211  17.488  0.00  0.00    +0.000 OA
ATOM      5  H   UNL     1       3.600   5.734  20.011  0.00  0.00    +0.000 HD
BRANCH   2   7
ATOM      6  C   UNL     1       2.319   4.034  21.355  0.00  0.00    +0.000 C 
ATOM      7  C   UNL     1       2.589   3.889  19.861  0.00  0.00    +0.000 C 
BRANCH   7   8
ATOM      8  C   UNL     1       3.525   2.705  19.629  0.00  0.00    +0.000 C 
ATOM      9  O   UNL     1       4.331   2.336  20.491  0.00  0.00    +0.000 OA
BRANCH   8  10
ATOM     10  C   UNL     1       3.358   2.002  18.295  0.00  0.00    +0.000 C 
ATOM     11  F   UNL     1       3.856   0.735  18.289  0.00  0.00    +0.000 F 
ATOM     12  F   UNL     1       2.050   1.895  17.930  0.00  0.00    +0.000 F 
ATOM     13  F   UNL     1       3.992   2.655  17.282  0.00  0.00    +0.000 F 
ENDBRANCH   8  10
ENDBRANCH   7   8
ENDBRANCH   2   7
ENDBRANCH   1   3
BRANCH   1  14
ATOM     14  N   UNL     1       2.919   8.077  18.785  0.00  0.00    +0.000 N 
ATOM     15  C   UNL     1       1.943   9.001  18.483  0.00  0.00    +0.000 C 
ATOM     16  O   UNL     1       1.412   9.003  17.372  0.00  0.00    +0.000 OA
ATOM     17  H   UNL     1       3.020   7.839  19.774  0.00  0.00    +0.000 HD
BRANCH  15  18
ATOM     18  C   UNL     1       1.499   9.926  19.656  0.00  0.00    +0.000 C 
BRANCH  18  19
ATOM     19  N   UNL     1       0.880  11.152  19.124  0.00  0.00    +0.000 N 
ATOM     20  C   UNL     1       1.254  12.391  19.566  0.00  0.00    +0.000 C 
ATOM     21  O   UNL     1       2.076  12.534  20.464  0.00  0.00    +0.000 OA
ATOM     22  N   UNL     1       0.646  13.415  18.893  0.00  0.00    +0.000 N 
ATOM     23  H   UNL     1       0.317  11.094  18.289  0.00  0.00    +0.000 HD
ATOM     24  H   UNL     1       0.302  13.195  17.970  0.00  0.00    +0.000 HD
BRANCH  22  25
ATOM     25  C   UNL     1       0.921  14.839  19.170  0.00  0.00    +0.000 C 
ATOM     26  C   UNL     1       2.311  15.248  18.648  0.00  0.00    +0.000 C 
ATOM     27  C   UNL     1      -0.132  15.700  18.446  0.00  0.00    +0.000 C 
ATOM     28  C   UNL     1       0.815  15.135  20.680  0.00  0.00    +0.000 C 
ENDBRANCH  22  25
ENDBRANCH  18  19
BRANCH  18  29
ATOM     29  C   UNL     1       0.591   9.216  20.716  0.00  0.00    +0.000 C 
ATOM     30  C   UNL     1      -0.887   9.201  20.258  0.00  0.00    +0.000 C 
ATOM     31  C   UNL     1       1.019   7.740  20.858  0.00  0.00    +0.000 C 
ATOM     32  C   UNL     1       0.683   9.881  22.104  0.00  0.00    +0.000 C 
ENDBRANCH  18  29
ENDBRANCH  15  18
ENDBRANCH   1  14
BRANCH   1  33
ATOM     33  C   UNL     1       4.907   6.993  17.665  0.00  0.00    +0.000 C 
BRANCH  33  34
ATOM     34  C   UNL     1       5.333   6.292  16.389  0.00  0.00    +0.000 C 
ATOM     35  O   UNL     1       4.975   6.704  15.286  0.00  0.00    +0.000 OA
ATOM     36  N   UNL     1       6.133   5.160  16.538  0.00  0.00    +0.000 N 
ATOM     37  C   UNL     1       6.488   4.563  17.819  0.00  0.00    +0.000 C 
ATOM     38  C   UNL     1       6.399   4.343  15.364  0.00  0.00    +0.000 C 
ENDBRANCH  33  34
ENDBRANCH   1  33
TORSDOF 11
ENDMDL
MODEL 5
REMARK VINA RESULT:      -6.4      1.671      2.267
REMARK  Name = 
REMARK  20 active torsions:
REMARK  status: ('A' for Active; 'I' for Inactive)
REMARK    1  A    between atoms: C_1  and  C_2
REMARK    2  A    between atoms: C_2  and  N_3
REMARK    3  A    between atoms: C_2  and  C_29
REMARK    4  A    between atoms: C_4  and  C_6
REMARK    5  A    between atoms: C_6  and  C_7
REMARK    6  A    between atoms: C_6  and  N_13
REMARK    7  A    between atoms: C_7  and  C_8
REMARK    8  A    between atoms: N_10  and  C_11
REMARK    9  A    between atoms: N_10  and  C_12
REMARK   10  A    between atoms: C_14  and  C_16
REMARK   11  A    between atoms: C_16  and  N_17
REMARK   12  A    between atoms: C_16  and  C_25
REMARK   13  A    between atoms: N_20  and  C_21
REMARK   14  A    between atoms: C_21  and  C_22
REMARK   15  A    between atoms: C_21  and  C_23
REMARK   16  A    between atoms: C_21  and  C_24
REMARK   17  A    between atoms: C_25  and  C_26
REMARK   18  A    between atoms: C_25  and  C_27
REMARK   19  A    between atoms: C_25  and  C_28
REMARK   20  A    between atoms: C_29  and  C_31
REMARK                            x       y       z     vdW  Elec       q    Type
REMARK                         _______ _______ _______ _____ _____    ______ ____
ROOT
ATOM      1  C   UNL     1       2.893   6.978  18.444  0.00  0.00    +0.000 C 
ENDROOT
BRANCH   1   3
ATOM      2  N   UNL     1       1.908   4.703  18.574  0.00  0.00    +0.000 N 
ATOM      3  C   UNL     1       2.373   5.786  19.294  0.00  0.00    +0.000 C 
ATOM      4  O   UNL     1       2.465   5.761  20.521  0.00  0.00    +0.000 OA
ATOM      5  H   UNL     1       2.269   4.625  17.621  0.00  0.00    +0.000 HD
BRANCH   2   7
ATOM      6  C   UNL     1       0.860   3.675  20.550  0.00  0.00    +0.000 C 
ATOM      7  C   UNL     1       1.551   3.440  19.211  0.00  0.00    +0.000 C 
BRANCH   7   8
ATOM      8  C   UNL     1       2.818   2.617  19.434  0.00  0.00    +0.000 C 
ATOM      9  O   UNL     1       3.335   2.511  20.552  0.00  0.00    +0.000 OA
BRANCH   8  10
ATOM     10  C   UNL     1       3.357   1.915  18.201  0.00  0.00    +0.000 C 
ATOM     11  F   UNL     1       2.414   1.721  17.238  0.00  0.00    +0.000 F 
ATOM     12  F   UNL     1       4.362   2.617  17.609  0.00  0.00    +0.000 F 
ATOM     13  F   UNL     1       3.858   0.682  18.484  0.00  0.00    +0.000 F 
ENDBRANCH   8  10
ENDBRANCH   7   8
ENDBRANCH   2   7
ENDBRANCH   1   3
BRANCH   1  14
ATOM     14  N   UNL     1       2.368   8.236  18.971  0.00  0.00    +0.000 N 
ATOM     15  C   UNL     1       2.037   9.303  18.165  0.00  0.00    +0.000 C 
ATOM     16  O   UNL     1       2.166   9.223  16.944  0.00  0.00    +0.000 OA
ATOM     17  H   UNL     1       1.877   8.180  19.866  0.00  0.00    +0.000 HD
BRANCH  15  18
ATOM     18  C   UNL     1       1.394  10.524  18.889  0.00  0.00    +0.000 C 
BRANCH  18  19
ATOM     19  N   UNL     1       1.703  11.763  18.155  0.00  0.00    +0.000 N 
ATOM     20  C   UNL     1       2.235  12.853  18.786  0.00  0.00    +0.000 C 
ATOM     21  O   UNL     1       2.423  12.870  19.997  0.00  0.00    +0.000 OA
ATOM     22  N   UNL     1       2.547  13.877  17.933  0.00  0.00    +0.000 N 
ATOM     23  H   UNL     1       1.707  11.747  17.146  0.00  0.00    +0.000 HD
ATOM     24  H   UNL     1       2.699  13.619  16.970  0.00  0.00    +0.000 HD
BRANCH  22  25
ATOM     25  C   UNL     1       3.167  15.141  18.381  0.00  0.00    +0.000 C 
ATOM     26  C   UNL     1       3.375  16.106  17.199  0.00  0.00    +0.000 C 
ATOM     27  C   UNL     1       2.228  15.824  19.394  0.00  0.00    +0.000 C 
ATOM     28  C   UNL     1       4.510  14.873  19.088  0.00  0.00    +0.000 C 
ENDBRANCH  22  25
ENDBRANCH  18  19
BRANCH  18  29
ATOM     29  C   UNL     1      -0.139  10.366  19.165  0.00  0.00    +0.000 C 
ATOM     30  C   UNL     1      -0.813  11.745  19.353  0.00  0.00    +0.000 C 
ATOM     31  C   UNL     1      -0.818   9.710  17.943  0.00  0.00    +0.000 C 
ATOM     32  C   UNL     1      -0.423   9.491  20.402  0.00  0.00    +0.000 C 
ENDBRANCH  18  29
ENDBRANCH  15  18
ENDBRANCH   1  14
BRANCH   1  33
ATOM     33  C   UNL     1       4.415   6.938  18.259  0.00  0.00    +0.000 C 
BRANCH  33  34
ATOM     34  C   UNL     1       4.855   6.028  17.128  0.00  0.00    +0.000 C 
ATOM     35  O   UNL     1       4.072   5.233  16.608  0.00  0.00    +0.000 OA
ATOM     36  N   UNL     1       6.185   6.134  16.725  0.00  0.00    +0.000 N 
ATOM     37  C   UNL     1       7.183   6.971  17.380  0.00  0.00    +0.000 C 
ATOM     38  C   UNL     1       6.704   5.149  15.789  0.00  0.00    +0.000 C 
ENDBRANCH  33  34
ENDBRANCH   1  33
TORSDOF 11
ENDMDL
MODEL 6
REMARK VINA RESULT:      -6.3      1.132      1.779
REMARK  Name = 
REMARK  20 active torsions:
REMARK  status: ('A' for Active; 'I' for Inactive)
REMARK    1  A    between atoms: C_1  and  C_2
REMARK    2  A    between atoms: C_2  and  N_3
REMARK    3  A    between atoms: C_2  and  C_29
REMARK    4  A    between atoms: C_4  and  C_6
REMARK    5  A    between atoms: C_6  and  C_7
REMARK    6  A    between atoms: C_6  and  N_13
REMARK    7  A    between atoms: C_7  and  C_8
REMARK    8  A    between atoms: N_10  and  C_11
REMARK    9  A    between atoms: N_10  and  C_12
REMARK   10  A    between atoms: C_14  and  C_16
REMARK   11  A    between atoms: C_16  and  N_17
REMARK   12  A    between atoms: C_16  and  C_25
REMARK   13  A    between atoms: N_20  and  C_21
REMARK   14  A    between atoms: C_21  and  C_22
REMARK   15  A    between atoms: C_21  and  C_23
REMARK   16  A    between atoms: C_21  and  C_24
REMARK   17  A    between atoms: C_25  and  C_26
REMARK   18  A    between atoms: C_25  and  C_27
REMARK   19  A    between atoms: C_25  and  C_28
REMARK   20  A    between atoms: C_29  and  C_31
REMARK                            x       y       z     vdW  Elec       q    Type
REMARK                         _______ _______ _______ _____ _____    ______ ____
ROOT
ATOM      1  C   UNL     1       3.272   7.320  17.678  0.00  0.00    +0.000 C 
ENDROOT
BRANCH   1   3
ATOM      2  N   UNL     1       3.058   5.356  19.182  0.00  0.00    +0.000 N 
ATOM      3  C   UNL     1       2.499   6.050  18.126  0.00  0.00    +0.000 C 
ATOM      4  O   UNL     1       1.409   5.737  17.647  0.00  0.00    +0.000 OA
ATOM      5  H   UNL     1       3.677   5.903  19.784  0.00  0.00    +0.000 HD
BRANCH   2   7
ATOM      6  C   UNL     1       2.228   4.499  21.335  0.00  0.00    +0.000 C 
ATOM      7  C   UNL     1       2.371   4.248  19.838  0.00  0.00    +0.000 C 
BRANCH   7   8
ATOM      8  C   UNL     1       3.167   2.964  19.614  0.00  0.00    +0.000 C 
ATOM      9  O   UNL     1       3.993   2.560  20.441  0.00  0.00    +0.000 OA
BRANCH   8  10
ATOM     10  C   UNL     1       2.836   2.214  18.337  0.00  0.00    +0.000 C 
ATOM     11  F   UNL     1       3.139   2.914  17.209  0.00  0.00    +0.000 F 
ATOM     12  F   UNL     1       3.511   1.036  18.243  0.00  0.00    +0.000 F 
ATOM     13  F   UNL     1       1.512   1.912  18.241  0.00  0.00    +0.000 F 
ENDBRANCH   8  10
ENDBRANCH   7   8
ENDBRANCH   2   7
ENDBRANCH   1   3
BRANCH   1  14
ATOM     14  N   UNL     1       2.840   8.473  18.466  0.00  0.00    +0.000 N 
ATOM     15  C   UNL     1       1.761   9.254  18.116  0.00  0.00    +0.000 C 
ATOM     16  O   UNL     1       1.105   8.992  17.108  0.00  0.00    +0.000 OA
ATOM     17  H   UNL     1       3.076   8.453  19.460  0.00  0.00    +0.000 HD
BRANCH  15  18
ATOM     18  C   UNL     1       1.382  10.377  19.128  0.00  0.00    +0.000 C 
BRANCH  18  19
ATOM     19  N   UNL     1       1.445  11.692  18.466  0.00  0.00    +0.000 N 
ATOM     20  C   UNL     1       2.051  12.763  19.062  0.00  0.00    +0.000 C 
ATOM     21  O   UNL     1       2.515  12.694  20.195  0.00  0.00    +0.000 OA
ATOM     22  N   UNL     1       2.100  13.874  18.265  0.00  0.00    +0.000 N 
ATOM     23  H   UNL     1       1.214  11.759  17.487  0.00  0.00    +0.000 HD
ATOM     24  H   UNL     1       2.036  13.708  17.272  0.00  0.00    +0.000 HD
BRANCH  22  25
ATOM     25  C   UNL     1       2.739  15.139  18.680  0.00  0.00    +0.000 C 
ATOM     26  C   UNL     1       3.001  16.052  17.469  0.00  0.00    +0.000 C 
ATOM     27  C   UNL     1       1.793  15.883  19.642  0.00  0.00    +0.000 C 
ATOM     28  C   UNL     1       4.058  14.866  19.431  0.00  0.00    +0.000 C 
ENDBRANCH  22  25
ENDBRANCH  18  19
BRANCH  18  29
ATOM     29  C   UNL     1       0.014  10.145  19.854  0.00  0.00    +0.000 C 
ATOM     30  C   UNL     1      -1.156  10.141  18.843  0.00  0.00    +0.000 C 
ATOM     31  C   UNL     1       0.016   8.754  20.526  0.00  0.00    +0.000 C 
ATOM     32  C   UNL     1      -0.259  11.205  20.939  0.00  0.00    +0.000 C 
ENDBRANCH  18  29
ENDBRANCH  15  18
ENDBRANCH   1  14
BRANCH   1  33
ATOM     33  C   UNL     1       4.788   7.094  17.639  0.00  0.00    +0.000 C 
BRANCH  33  34
ATOM     34  C   UNL     1       5.253   6.384  16.382  0.00  0.00    +0.000 C 
ATOM     35  O   UNL     1       5.027   6.850  15.265  0.00  0.00    +0.000 OA
ATOM     36  N   UNL     1       5.932   5.179  16.562  0.00  0.00    +0.000 N 
ATOM     37  C   UNL     1       6.123   4.524  17.850  0.00  0.00    +0.000 C 
ATOM     38  C   UNL     1       6.218   4.366  15.390  0.00  0.00    +0.000 C 
ENDBRANCH  33  34
ENDBRANCH   1  33
TORSDOF 11
ENDMDL
MODEL 7
REMARK VINA RESULT:      -6.3      3.027      4.664
REMARK  Name = 
REMARK  20 active torsions:
REMARK  status: ('A' for Active; 'I' for Inactive)
REMARK    1  A    between atoms: C_1  and  C_2
REMARK    2  A    between atoms: C_2  and  N_3
REMARK    3  A    between atoms: C_2  and  C_29
REMARK    4  A    between atoms: C_4  and  C_6
REMARK    5  A    between atoms: C_6  and  C_7
REMARK    6  A    between atoms: C_6  and  N_13
REMARK    7  A    between atoms: C_7  and  C_8
REMARK    8  A    between atoms: N_10  and  C_11
REMARK    9  A    between atoms: N_10  and  C_12
REMARK   10  A    between atoms: C_14  and  C_16
REMARK   11  A    between atoms: C_16  and  N_17
REMARK   12  A    between atoms: C_16  and  C_25
REMARK   13  A    between atoms: N_20  and  C_21
REMARK   14  A    between atoms: C_21  and  C_22
REMARK   15  A    between atoms: C_21  and  C_23
REMARK   16  A    between atoms: C_21  and  C_24
REMARK   17  A    between atoms: C_25  and  C_26
REMARK   18  A    between atoms: C_25  and  C_27
REMARK   19  A    between atoms: C_25  and  C_28
REMARK   20  A    between atoms: C_29  and  C_31
REMARK                            x       y       z     vdW  Elec       q    Type
REMARK                         _______ _______ _______ _____ _____    ______ ____
ROOT
ATOM      1  C   UNL     1       1.998   6.330  20.302  0.00  0.00    +0.000 C 
ENDROOT
BRANCH   1   3
ATOM      2  N   UNL     1       4.275   5.726  19.517  0.00  0.00    +0.000 N 
ATOM      3  C   UNL     1       2.985   6.043  19.138  0.00  0.00    +0.000 C 
ATOM      4  O   UNL     1       2.623   5.995  17.962  0.00  0.00    +0.000 OA
ATOM      5  H   UNL     1       4.373   5.361  20.467  0.00  0.00    +0.000 HD
BRANCH   2   7
ATOM      6  C   UNL     1       5.280   3.736  18.474  0.00  0.00    +0.000 C 
ATOM      7  C   UNL     1       5.275   5.258  18.563  0.00  0.00    +0.000 C 
BRANCH   7   8
ATOM      8  C   UNL     1       6.654   5.744  19.007  0.00  0.00    +0.000 C 
ATOM      9  O   UNL     1       7.163   5.368  20.070  0.00  0.00    +0.000 OA
BRANCH   8  10
ATOM     10  C   UNL     1       7.354   6.673  18.034  0.00  0.00    +0.000 C 
ATOM     11  F   UNL     1       7.790   6.043  16.908  0.00  0.00    +0.000 F 
ATOM     12  F   UNL     1       6.544   7.682  17.612  0.00  0.00    +0.000 F 
ATOM     13  F   UNL     1       8.455   7.261  18.579  0.00  0.00    +0.000 F 
ENDBRANCH   8  10
ENDBRANCH   7   8
ENDBRANCH   2   7
ENDBRANCH   1   3
BRANCH   1  14
ATOM     14  N   UNL     1       1.183   7.502  19.991  0.00  0.00    +0.000 N 
ATOM     15  C   UNL     1       1.157   8.626  20.786  0.00  0.00    +0.000 C 
ATOM     16  O   UNL     1       1.846   8.683  21.804  0.00  0.00    +0.000 OA
ATOM     17  H   UNL     1       0.958   7.645  19.004  0.00  0.00    +0.000 HD
BRANCH  15  18
ATOM     18  C   UNL     1       0.313   9.819  20.245  0.00  0.00    +0.000 C 
BRANCH  18  19
ATOM     19  N   UNL     1       0.301  10.914  21.230  0.00  0.00    +0.000 N 
ATOM     20  C   UNL     1      -0.817  11.673  21.440  0.00  0.00    +0.000 C 
ATOM     21  O   UNL     1      -1.837  11.516  20.780  0.00  0.00    +0.000 OA
ATOM     22  N   UNL     1      -0.677  12.578  22.457  0.00  0.00    +0.000 N 
ATOM     23  H   UNL     1       1.056  10.984  21.895  0.00  0.00    +0.000 HD
ATOM     24  H   UNL     1       0.031  12.365  23.144  0.00  0.00    +0.000 HD
BRANCH  22  25
ATOM     25  C   UNL     1      -1.763  13.481  22.890  0.00  0.00    +0.000 C 
ATOM     26  C   UNL     1      -2.303  14.307  21.708  0.00  0.00    +0.000 C 
ATOM     27  C   UNL     1      -2.922  12.633  23.448  0.00  0.00    +0.000 C 
ATOM     28  C   UNL     1      -1.280  14.419  24.014  0.00  0.00    +0.000 C 
ENDBRANCH  22  25
ENDBRANCH  18  19
BRANCH  18  29
ATOM     29  C   UNL     1       0.742  10.308  18.821  0.00  0.00    +0.000 C 
ATOM     30  C   UNL     1       1.906   9.453  18.268  0.00  0.00    +0.000 C 
ATOM     31  C   UNL     1      -0.436  10.131  17.837  0.00  0.00    +0.000 C 
ATOM     32  C   UNL     1       1.158  11.793  18.813  0.00  0.00    +0.000 C 
ENDBRANCH  18  29
ENDBRANCH  15  18
ENDBRANCH   1  14
BRANCH   1  33
ATOM     33  C   UNL     1       1.208   5.082  20.715  0.00  0.00    +0.000 C 
BRANCH  33  34
ATOM     34  C   UNL     1       2.020   3.804  20.625  0.00  0.00    +0.000 C 
ATOM     35  O   UNL     1       2.961   3.592  21.389  0.00  0.00    +0.000 OA
ATOM     36  N   UNL     1       1.651   2.901  19.629  0.00  0.00    +0.000 N 
ATOM     37  C   UNL     1       0.624   3.152  18.625  0.00  0.00    +0.000 C 
ATOM     38  C   UNL     1       2.519   1.762  19.374  0.00  0.00    +0.000 C 
ENDBRANCH  33  34
ENDBRANCH   1  33
TORSDOF 11
ENDMDL
MODEL 8
REMARK VINA RESULT:      -6.3      1.439      2.058
REMARK  Name = 
REMARK  20 active torsions:
REMARK  status: ('A' for Active; 'I' for Inactive)
REMARK    1  A    between atoms: C_1  and  C_2
REMARK    2  A    between atoms: C_2  and  N_3
REMARK    3  A    between atoms: C_2  and  C_29
REMARK    4  A    between atoms: C_4  and  C_6
REMARK    5  A    between atoms: C_6  and  C_7
REMARK    6  A    between atoms: C_6  and  N_13
REMARK    7  A    between atoms: C_7  and  C_8
REMARK    8  A    between atoms: N_10  and  C_11
REMARK    9  A    between atoms: N_10  and  C_12
REMARK   10  A    between atoms: C_14  and  C_16
REMARK   11  A    between atoms: C_16  and  N_17
REMARK   12  A    between atoms: C_16  and  C_25
REMARK   13  A    between atoms: N_20  and  C_21
REMARK   14  A    between atoms: C_21  and  C_22
REMARK   15  A    between atoms: C_21  and  C_23
REMARK   16  A    between atoms: C_21  and  C_24
REMARK   17  A    between atoms: C_25  and  C_26
REMARK   18  A    between atoms: C_25  and  C_27
REMARK   19  A    between atoms: C_25  and  C_28
REMARK   20  A    between atoms: C_29  and  C_31
REMARK                            x       y       z     vdW  Elec       q    Type
REMARK                         _______ _______ _______ _____ _____    ______ ____
ROOT
ATOM      1  C   UNL     1       3.229   6.600  18.228  0.00  0.00    +0.000 C 
ENDROOT
BRANCH   1   3
ATOM      2  N   UNL     1       2.975   4.194  18.786  0.00  0.00    +0.000 N 
ATOM      3  C   UNL     1       3.682   5.354  19.037  0.00  0.00    +0.000 C 
ATOM      4  O   UNL     1       4.669   5.367  19.773  0.00  0.00    +0.000 OA
ATOM      5  H   UNL     1       2.500   4.160  17.881  0.00  0.00    +0.000 HD
BRANCH   2   7
ATOM      6  C   UNL     1       2.952   1.762  18.406  0.00  0.00    +0.000 C 
ATOM      7  C   UNL     1       3.383   2.900  19.325  0.00  0.00    +0.000 C 
BRANCH   7   8
ATOM      8  C   UNL     1       2.747   2.709  20.700  0.00  0.00    +0.000 C 
ATOM      9  O   UNL     1       3.409   2.332  21.674  0.00  0.00    +0.000 OA
BRANCH   8  10
ATOM     10  C   UNL     1       1.272   3.055  20.783  0.00  0.00    +0.000 C 
ATOM     11  F   UNL     1       0.554   2.605  19.716  0.00  0.00    +0.000 F 
ATOM     12  F   UNL     1       0.680   2.522  21.887  0.00  0.00    +0.000 F 
ATOM     13  F   UNL     1       1.056   4.398  20.835  0.00  0.00    +0.000 F 
ENDBRANCH   8  10
ENDBRANCH   7   8
ENDBRANCH   2   7
ENDBRANCH   1   3
BRANCH   1  14
ATOM     14  N   UNL     1       2.862   7.682  19.139  0.00  0.00    +0.000 N 
ATOM     15  C   UNL     1       1.906   8.625  18.832  0.00  0.00    +0.000 C 
ATOM     16  O   UNL     1       1.308   8.576  17.757  0.00  0.00    +0.000 OA
ATOM     17  H   UNL     1       3.014   7.505  20.134  0.00  0.00    +0.000 HD
BRANCH  15  18
ATOM     18  C   UNL     1       1.570   9.642  19.964  0.00  0.00    +0.000 C 
BRANCH  18  19
ATOM     19  N   UNL     1       0.939  10.843  19.390  0.00  0.00    +0.000 N 
ATOM     20  C   UNL     1       1.235  12.095  19.851  0.00  0.00    +0.000 C 
ATOM     21  O   UNL     1       1.992  12.272  20.798  0.00  0.00    +0.000 OA
ATOM     22  N   UNL     1       0.631  13.095  19.138  0.00  0.00    +0.000 N 
ATOM     23  H   UNL     1       0.432  10.762  18.521  0.00  0.00    +0.000 HD
ATOM     24  H   UNL     1       0.355  12.861  18.195  0.00  0.00    +0.000 HD
BRANCH  22  25
ATOM     25  C   UNL     1       0.832  14.529  19.428  0.00  0.00    +0.000 C 
ATOM     26  C   UNL     1       2.214  15.005  18.942  0.00  0.00    +0.000 C 
ATOM     27  C   UNL     1      -0.241  15.343  18.680  0.00  0.00    +0.000 C 
ATOM     28  C   UNL     1       0.675  14.811  20.935  0.00  0.00    +0.000 C 
ENDBRANCH  22  25
ENDBRANCH  18  19
BRANCH  18  29
ATOM     29  C   UNL     1       0.729   9.035  21.136  0.00  0.00    +0.000 C 
ATOM     30  C   UNL     1       1.380   9.346  22.505  0.00  0.00    +0.000 C 
ATOM     31  C   UNL     1      -0.670   9.687  21.160  0.00  0.00    +0.000 C 
ATOM     32  C   UNL     1       0.549   7.510  20.998  0.00  0.00    +0.000 C 
ENDBRANCH  18  29
ENDBRANCH  15  18
ENDBRANCH   1  14
BRANCH   1  33
ATOM     33  C   UNL     1       4.237   6.983  17.139  0.00  0.00    +0.000 C 
BRANCH  33  34
ATOM     34  C   UNL     1       5.050   5.806  16.637  0.00  0.00    +0.000 C 
ATOM     35  O   UNL     1       4.507   4.830  16.120  0.00  0.00    +0.000 OA
ATOM     36  N   UNL     1       6.432   5.887  16.804  0.00  0.00    +0.000 N 
ATOM     37  C   UNL     1       7.117   6.961  17.512  0.00  0.00    +0.000 C 
ATOM     38  C   UNL     1       7.232   4.704  16.524  0.00  0.00    +0.000 C 
ENDBRANCH  33  34
ENDBRANCH   1  33
TORSDOF 11
ENDMDL
MODEL 9
REMARK VINA RESULT:      -6.3      1.972      2.653
REMARK  Name = 
REMARK  20 active torsions:
REMARK  status: ('A' for Active; 'I' for Inactive)
REMARK    1  A    between atoms: C_1  and  C_2
REMARK    2  A    between atoms: C_2  and  N_3
REMARK    3  A    between atoms: C_2  and  C_29
REMARK    4  A    between atoms: C_4  and  C_6
REMARK    5  A    between atoms: C_6  and  C_7
REMARK    6  A    between atoms: C_6  and  N_13
REMARK    7  A    between atoms: C_7  and  C_8
REMARK    8  A    between atoms: N_10  and  C_11
REMARK    9  A    between atoms: N_10  and  C_12
REMARK   10  A    between atoms: C_14  and  C_16
REMARK   11  A    between atoms: C_16  and  N_17
REMARK   12  A    between atoms: C_16  and  C_25
REMARK   13  A    between atoms: N_20  and  C_21
REMARK   14  A    between atoms: C_21  and  C_22
REMARK   15  A    between atoms: C_21  and  C_23
REMARK   16  A    between atoms: C_21  and  C_24
REMARK   17  A    between atoms: C_25  and  C_26
REMARK   18  A    between atoms: C_25  and  C_27
REMARK   19  A    between atoms: C_25  and  C_28
REMARK   20  A    between atoms: C_29  and  C_31
REMARK                            x       y       z     vdW  Elec       q    Type
REMARK                         _______ _______ _______ _____ _____    ______ ____
ROOT
ATOM      1  C   UNL     1       2.975   6.969  17.714  0.00  0.00    +0.000 C 
ENDROOT
BRANCH   1   3
ATOM      2  N   UNL     1       2.690   4.566  18.264  0.00  0.00    +0.000 N 
ATOM      3  C   UNL     1       3.117   5.797  18.722  0.00  0.00    +0.000 C 
ATOM      4  O   UNL     1       3.669   5.929  19.815  0.00  0.00    +0.000 OA
ATOM      5  H   UNL     1       2.671   4.460  17.248  0.00  0.00    +0.000 HD
BRANCH   2   7
ATOM      6  C   UNL     1       3.067   2.141  18.077  0.00  0.00    +0.000 C 
ATOM      7  C   UNL     1       2.914   3.334  19.014  0.00  0.00    +0.000 C 
BRANCH   7   8
ATOM      8  C   UNL     1       1.731   3.095  19.949  0.00  0.00    +0.000 C 
ATOM      9  O   UNL     1       0.584   2.935  19.516  0.00  0.00    +0.000 OA
BRANCH   8  10
ATOM     10  C   UNL     1       2.078   3.028  21.425  0.00  0.00    +0.000 C 
ATOM     11  F   UNL     1       1.087   2.484  22.185  0.00  0.00    +0.000 F 
ATOM     12  F   UNL     1       3.189   2.277  21.659  0.00  0.00    +0.000 F 
ATOM     13  F   UNL     1       2.320   4.258  21.957  0.00  0.00    +0.000 F 
ENDBRANCH   8  10
ENDBRANCH   7   8
ENDBRANCH   2   7
ENDBRANCH   1   3
BRANCH   1  14
ATOM     14  N   UNL     1       2.747   8.222  18.431  0.00  0.00    +0.000 N 
ATOM     15  C   UNL     1       1.770   9.123  18.068  0.00  0.00    +0.000 C 
ATOM     16  O   UNL     1       1.034   8.889  17.110  0.00  0.00    +0.000 OA
ATOM     17  H   UNL     1       3.028   8.237  19.413  0.00  0.00    +0.000 HD
BRANCH  15  18
ATOM     18  C   UNL     1       1.602  10.354  19.009  0.00  0.00    +0.000 C 
BRANCH  18  19
ATOM     19  N   UNL     1       1.716  11.600  18.232  0.00  0.00    +0.000 N 
ATOM     20  C   UNL     1       2.331  12.708  18.745  0.00  0.00    +0.000 C 
ATOM     21  O   UNL     1       2.761  12.734  19.893  0.00  0.00    +0.000 OA
ATOM     22  N   UNL     1       2.432  13.738  17.851  0.00  0.00    +0.000 N 
ATOM     23  H   UNL     1       1.516  11.582  17.243  0.00  0.00    +0.000 HD
ATOM     24  H   UNL     1       2.393  13.483  16.876  0.00  0.00    +0.000 HD
BRANCH  22  25
ATOM     25  C   UNL     1       3.091  15.022  18.168  0.00  0.00    +0.000 C 
ATOM     26  C   UNL     1       4.521  14.797  18.693  0.00  0.00    +0.000 C 
ATOM     27  C   UNL     1       3.182  15.866  16.882  0.00  0.00    +0.000 C 
ATOM     28  C   UNL     1       2.269  15.820  19.200  0.00  0.00    +0.000 C 
ENDBRANCH  22  25
ENDBRANCH  18  19
BRANCH  18  29
ATOM     29  C   UNL     1       0.300  10.316  19.878  0.00  0.00    +0.000 C 
ATOM     30  C   UNL     1       0.204   8.995  20.677  0.00  0.00    +0.000 C 
ATOM     31  C   UNL     1       0.343  11.455  20.921  0.00  0.00    +0.000 C 
ATOM     32  C   UNL     1      -0.975  10.488  19.029  0.00  0.00    +0.000 C 
ENDBRANCH  18  29
ENDBRANCH  15  18
ENDBRANCH   1  14
BRANCH   1  33
ATOM     33  C   UNL     1       4.124   7.004  16.698  0.00  0.00    +0.000 C 
BRANCH  33  34
ATOM     34  C   UNL     1       5.443   6.523  17.272  0.00  0.00    +0.000 C 
ATOM     35  O   UNL     1       6.102   7.229  18.034  0.00  0.00    +0.000 OA
ATOM     36  N   UNL     1       5.866   5.253  16.879  0.00  0.00    +0.000 N 
ATOM     37  C   UNL     1       5.186   4.425  15.891  0.00  0.00    +0.000 C 
ATOM     38  C   UNL     1       7.211   4.832  17.240  0.00  0.00    +0.000 C 
ENDBRANCH  33  34
ENDBRANCH   1  33
TORSDOF 11
ENDMDL
