MODEL 1
REMARK VINA RESULT:      -9.0      0.000      0.000
REMARK  Name = 
REMARK  10 active torsions:
REMARK  status: ('A' for Active; 'I' for Inactive)
REMARK    1  A    between atoms: C_2  and  C_3
REMARK    2  A    between atoms: C_2  and  O_11
REMARK    3  A    between atoms: C_4  and  C_5
REMARK    4  A    between atoms: O_11  and  C_12
REMARK    5  A    between atoms: C_12  and  C_13
REMARK    6  A    between atoms: C_13  and  O_14
REMARK    7  A    between atoms: C_13  and  C_25
REMARK    8  A    between atoms: O_14  and  C_15
REMARK    9  A    between atoms: C_15  and  C_17
REMARK   10  A    between atoms: C_18  and  C_19
REMARK                            x       y       z     vdW  Elec       q    Type
REMARK                         _______ _______ _______ _____ _____    ______ ____
ROOT
ATOM      1  C   UNL     1       5.479   6.832  17.004  0.00  0.00    +0.000 C 
ENDROOT
BRANCH   1   2
ATOM      2  C   UNL     1       4.216   7.108  17.823  0.00  0.00    +0.000 A 
ATOM      3  C   UNL     1       3.863   6.305  18.915  0.00  0.00    +0.000 A 
ATOM      4  C   UNL     1       2.773   6.639  19.724  0.00  0.00    +0.000 A 
ATOM      5  C   UNL     1       2.009   7.787  19.470  0.00  0.00    +0.000 A 
ATOM      6  C   UNL     1       0.987   8.193  20.345  0.00  0.00    +0.000 A 
ATOM      7  C   UNL     1       0.230   9.333  20.080  0.00  0.00    +0.000 A 
ATOM      8  C   UNL     1       0.437  10.042  18.901  0.00  0.00    +0.000 A 
ATOM      9  C   UNL     1       1.460   9.659  18.028  0.00  0.00    +0.000 A 
ATOM     10  C   UNL     1       2.289   8.561  18.322  0.00  0.00    +0.000 A 
ATOM     11  C   UNL     1       3.404   8.221  17.525  0.00  0.00    +0.000 A 
ENDBRANCH   1   2
BRANCH   1  12
ATOM     12  C   UNL     1       5.129   6.522  15.530  0.00  0.00    +0.000 C 
BRANCH  12  13
ATOM     13  O   UNL     1       6.056   5.622  14.899  0.00  0.00    +0.000 OA
BRANCH  13  15
ATOM     14  O   UNL     1       6.197   3.466  14.131  0.00  0.00    +0.000 OA
ATOM     15  C   UNL     1       5.692   4.318  14.838  0.00  0.00    +0.000 C 
BRANCH  15  16
ATOM     16  C   UNL     1       4.579   4.025  15.764  0.00  0.00    +0.000 C 
ATOM     17  C   UNL     1       4.725   3.353  16.916  0.00  0.00    +0.000 C 
BRANCH  17  18
ATOM     18  C   UNL     1       3.629   3.058  17.850  0.00  0.00    +0.000 A 
ATOM     19  C   UNL     1       3.947   2.657  19.156  0.00  0.00    +0.000 A 
ATOM     20  C   UNL     1       2.937   2.406  20.088  0.00  0.00    +0.000 A 
ATOM     21  C   UNL     1       1.600   2.563  19.728  0.00  0.00    +0.000 A 
ATOM     22  C   UNL     1       1.272   2.975  18.439  0.00  0.00    +0.000 A 
ATOM     23  C   UNL     1       2.281   3.227  17.507  0.00  0.00    +0.000 A 
ENDBRANCH  17  18
ENDBRANCH  15  16
ENDBRANCH  13  15
ENDBRANCH  12  13
ENDBRANCH   1  12
BRANCH   1  24
ATOM     24  O   UNL     1       6.337   8.002  17.080  0.00  0.00    +0.000 OA
BRANCH  24  25
ATOM     25  C   UNL     1       7.519   7.810  17.712  0.00  0.00    +0.000 C 
ATOM     26  O   UNL     1       7.934   6.755  18.154  0.00  0.00    +0.000 OA
BRANCH  25  27
ATOM     27  C   UNL     1       8.244   9.095  17.802  0.00  0.00    +0.000 C 
ATOM     28  C   UNL     1       8.902   9.413  18.931  0.00  0.00    +0.000 C 
BRANCH  28  29
ATOM     29  C   UNL     1       9.605  10.685  19.144  0.00  0.00    +0.000 A 
ATOM     30  C   UNL     1       9.791  11.215  20.430  0.00  0.00    +0.000 A 
ATOM     31  C   UNL     1      10.472  12.419  20.616  0.00  0.00    +0.000 A 
ATOM     32  C   UNL     1      10.993  13.104  19.521  0.00  0.00    +0.000 A 
ATOM     33  C   UNL     1      10.850  12.572  18.241  0.00  0.00    +0.000 A 
ATOM     34  C   UNL     1      10.169  11.365  18.052  0.00  0.00    +0.000 A 
ENDBRANCH  28  29
ENDBRANCH  25  27
ENDBRANCH  24  25
ENDBRANCH   1  24
TORSDOF 10
ENDMDL
MODEL 2
REMARK VINA RESULT:      -8.9      0.563      1.003
REMARK  Name = 
REMARK  10 active torsions:
REMARK  status: ('A' for Active; 'I' for Inactive)
REMARK    1  A    between atoms: C_2  and  C_3
REMARK    2  A    between atoms: C_2  and  O_11
REMARK    3  A    between atoms: C_4  and  C_5
REMARK    4  A    between atoms: O_11  and  C_12
REMARK    5  A    between atoms: C_12  and  C_13
REMARK    6  A    between atoms: C_13  and  O_14
REMARK    7  A    between atoms: C_13  and  C_25
REMARK    8  A    between atoms: O_14  and  C_15
REMARK    9  A    between atoms: C_15  and  C_17
REMARK   10  A    between atoms: C_18  and  C_19
REMARK                            x       y       z     vdW  Elec       q    Type
REMARK                         _______ _______ _______ _____ _____    ______ ____
ROOT
ATOM      1  C   UNL     1       5.280   6.606  17.162  0.00  0.00    +0.000 C 
ENDROOT
BRANCH   1   2
ATOM      2  C   UNL     1       4.036   7.028  17.946  0.00  0.00    +0.000 A 
ATOM      3  C   UNL     1       3.615   6.327  19.084  0.00  0.00    +0.000 A 
ATOM      4  C   UNL     1       2.547   6.794  19.856  0.00  0.00    +0.000 A 
ATOM      5  C   UNL     1       1.874   7.976  19.519  0.00  0.00    +0.000 A 
ATOM      6  C   UNL     1       0.879   8.513  20.353  0.00  0.00    +0.000 A 
ATOM      7  C   UNL     1       0.211   9.686  20.006  0.00  0.00    +0.000 A 
ATOM      8  C   UNL     1       0.480  10.299  18.786  0.00  0.00    +0.000 A 
ATOM      9  C   UNL     1       1.477   9.784  17.952  0.00  0.00    +0.000 A 
ATOM     10  C   UNL     1       2.220   8.650  18.327  0.00  0.00    +0.000 A 
ATOM     11  C   UNL     1       3.311   8.177  17.567  0.00  0.00    +0.000 A 
ENDBRANCH   1   2
BRANCH   1  12
ATOM     12  C   UNL     1       4.987   6.543  15.646  0.00  0.00    +0.000 C 
BRANCH  12  13
ATOM     13  O   UNL     1       5.875   5.670  14.927  0.00  0.00    +0.000 OA
BRANCH  13  15
ATOM     14  O   UNL     1       6.030   3.463  14.325  0.00  0.00    +0.000 OA
ATOM     15  C   UNL     1       5.690   4.338  15.098  0.00  0.00    +0.000 C 
BRANCH  15  16
ATOM     16  C   UNL     1       5.014   4.048  16.379  0.00  0.00    +0.000 C 
ATOM     17  C   UNL     1       3.833   3.416  16.473  0.00  0.00    +0.000 C 
BRANCH  17  18
ATOM     18  C   UNL     1       3.151   3.116  17.740  0.00  0.00    +0.000 A 
ATOM     19  C   UNL     1       3.919   2.692  18.834  0.00  0.00    +0.000 A 
ATOM     20  C   UNL     1       3.317   2.435  20.068  0.00  0.00    +0.000 A 
ATOM     21  C   UNL     1       1.943   2.608  20.224  0.00  0.00    +0.000 A 
ATOM     22  C   UNL     1       1.172   3.041  19.149  0.00  0.00    +0.000 A 
ATOM     23  C   UNL     1       1.773   3.299  17.915  0.00  0.00    +0.000 A 
ENDBRANCH  17  18
ENDBRANCH  15  16
ENDBRANCH  13  15
ENDBRANCH  12  13
ENDBRANCH   1  12
BRANCH   1  24
ATOM     24  O   UNL     1       6.336   7.567  17.429  0.00  0.00    +0.000 OA
BRANCH  24  25
ATOM     25  C   UNL     1       7.520   7.033  17.811  0.00  0.00    +0.000 C 
ATOM     26  O   UNL     1       7.870   5.878  17.656  0.00  0.00    +0.000 OA
BRANCH  25  27
ATOM     27  C   UNL     1       8.339   8.072  18.470  0.00  0.00    +0.000 C 
ATOM     28  C   UNL     1       8.278   9.345  18.040  0.00  0.00    +0.000 C 
BRANCH  28  29
ATOM     29  C   UNL     1       9.089  10.440  18.587  0.00  0.00    +0.000 A 
ATOM     30  C   UNL     1       9.482  11.529  17.795  0.00  0.00    +0.000 A 
ATOM     31  C   UNL     1      10.243  12.568  18.334  0.00  0.00    +0.000 A 
ATOM     32  C   UNL     1      10.608  12.543  19.678  0.00  0.00    +0.000 A 
ATOM     33  C   UNL     1      10.193  11.487  20.487  0.00  0.00    +0.000 A 
ATOM     34  C   UNL     1       9.430  10.445  19.950  0.00  0.00    +0.000 A 
ENDBRANCH  28  29
ENDBRANCH  25  27
ENDBRANCH  24  25
ENDBRANCH   1  24
TORSDOF 10
ENDMDL
MODEL 3
REMARK VINA RESULT:      -8.9      1.678      7.337
REMARK  Name = 
REMARK  10 active torsions:
REMARK  status: ('A' for Active; 'I' for Inactive)
REMARK    1  A    between atoms: C_2  and  C_3
REMARK    2  A    between atoms: C_2  and  O_11
REMARK    3  A    between atoms: C_4  and  C_5
REMARK    4  A    between atoms: O_11  and  C_12
REMARK    5  A    between atoms: C_12  and  C_13
REMARK    6  A    between atoms: C_13  and  O_14
REMARK    7  A    between atoms: C_13  and  C_25
REMARK    8  A    between atoms: O_14  and  C_15
REMARK    9  A    between atoms: C_15  and  C_17
REMARK   10  A    between atoms: C_18  and  C_19
REMARK                            x       y       z     vdW  Elec       q    Type
REMARK                         _______ _______ _______ _____ _____    ______ ____
ROOT
ATOM      1  C   UNL     1       3.863   6.256  17.440  0.00  0.00    +0.000 C 
ENDROOT
BRANCH   1   2
ATOM      2  C   UNL     1       2.905   7.027  18.350  0.00  0.00    +0.000 A 
ATOM      3  C   UNL     1       2.553   6.545  19.618  0.00  0.00    +0.000 A 
ATOM      4  C   UNL     1       1.772   7.316  20.484  0.00  0.00    +0.000 A 
ATOM      5  C   UNL     1       1.325   8.592  20.111  0.00  0.00    +0.000 A 
ATOM      6  C   UNL     1       0.641   9.418  21.018  0.00  0.00    +0.000 A 
ATOM      7  C   UNL     1       0.196  10.683  20.636  0.00  0.00    +0.000 A 
ATOM      8  C   UNL     1       0.368  11.109  19.323  0.00  0.00    +0.000 A 
ATOM      9  C   UNL     1       1.060  10.304  18.414  0.00  0.00    +0.000 A 
ATOM     10  C   UNL     1       1.590   9.061  18.806  0.00  0.00    +0.000 A 
ATOM     11  C   UNL     1       2.395   8.279  17.950  0.00  0.00    +0.000 A 
ENDBRANCH   1   2
BRANCH   1  12
ATOM     12  C   UNL     1       5.003   7.168  16.932  0.00  0.00    +0.000 C 
BRANCH  12  13
ATOM     13  O   UNL     1       6.053   7.362  17.894  0.00  0.00    +0.000 OA
BRANCH  13  15
ATOM     14  O   UNL     1       7.747   6.660  16.518  0.00  0.00    +0.000 OA
ATOM     15  C   UNL     1       7.322   7.357  17.419  0.00  0.00    +0.000 C 
BRANCH  15  16
ATOM     16  C   UNL     1       8.169   8.335  18.133  0.00  0.00    +0.000 C 
ATOM     17  C   UNL     1       8.207   9.644  17.838  0.00  0.00    +0.000 C 
BRANCH  17  18
ATOM     18  C   UNL     1       9.040  10.630  18.542  0.00  0.00    +0.000 A 
ATOM     19  C   UNL     1       9.383  11.818  17.878  0.00  0.00    +0.000 A 
ATOM     20  C   UNL     1      10.138  12.800  18.524  0.00  0.00    +0.000 A 
ATOM     21  C   UNL     1      10.550  12.610  19.841  0.00  0.00    +0.000 A 
ATOM     22  C   UNL     1      10.204  11.441  20.515  0.00  0.00    +0.000 A 
ATOM     23  C   UNL     1       9.448  10.460  19.871  0.00  0.00    +0.000 A 
ENDBRANCH  17  18
ENDBRANCH  15  16
ENDBRANCH  13  15
ENDBRANCH  12  13
ENDBRANCH   1  12
BRANCH   1  24
ATOM     24  O   UNL     1       4.411   5.141  18.192  0.00  0.00    +0.000 OA
BRANCH  24  25
ATOM     25  C   UNL     1       4.374   3.944  17.560  0.00  0.00    +0.000 C 
ATOM     26  O   UNL     1       4.137   2.867  18.075  0.00  0.00    +0.000 OA
BRANCH  25  27
ATOM     27  C   UNL     1       4.683   4.134  16.127  0.00  0.00    +0.000 C 
ATOM     28  C   UNL     1       5.903   3.813  15.659  0.00  0.00    +0.000 C 
BRANCH  28  29
ATOM     29  C   UNL     1       6.330   4.014  14.268  0.00  0.00    +0.000 A 
ATOM     30  C   UNL     1       7.326   4.943  13.933  0.00  0.00    +0.000 A 
ATOM     31  C   UNL     1       7.729   5.113  12.607  0.00  0.00    +0.000 A 
ATOM     32  C   UNL     1       7.155   4.344  11.598  0.00  0.00    +0.000 A 
ATOM     33  C   UNL     1       6.193   3.390  11.919  0.00  0.00    +0.000 A 
ATOM     34  C   UNL     1       5.787   3.217  13.246  0.00  0.00    +0.000 A 
ENDBRANCH  28  29
ENDBRANCH  25  27
ENDBRANCH  24  25
ENDBRANCH   1  24
TORSDOF 10
ENDMDL
MODEL 4
REMARK VINA RESULT:      -8.6      1.646      7.430
REMARK  Name = 
REMARK  10 active torsions:
REMARK  status: ('A' for Active; 'I' for Inactive)
REMARK    1  A    between atoms: C_2  and  C_3
REMARK    2  A    between atoms: C_2  and  O_11
REMARK    3  A    between atoms: C_4  and  C_5
REMARK    4  A    between atoms: O_11  and  C_12
REMARK    5  A    between atoms: C_12  and  C_13
REMARK    6  A    between atoms: C_13  and  O_14
REMARK    7  A    between atoms: C_13  and  C_25
REMARK    8  A    between atoms: O_14  and  C_15
REMARK    9  A    between atoms: C_15  and  C_17
REMARK   10  A    between atoms: C_18  and  C_19
REMARK                            x       y       z     vdW  Elec       q    Type
REMARK                         _______ _______ _______ _____ _____    ______ ____
ROOT
ATOM      1  C   UNL     1       3.699   6.444  17.417  0.00  0.00    +0.000 C 
ENDROOT
BRANCH   1   2
ATOM      2  C   UNL     1       2.860   7.484  18.162  0.00  0.00    +0.000 A 
ATOM      3  C   UNL     1       2.475   8.686  17.554  0.00  0.00    +0.000 A 
ATOM      4  C   UNL     1       1.612   9.572  18.205  0.00  0.00    +0.000 A 
ATOM      5  C   UNL     1       1.103   9.280  19.479  0.00  0.00    +0.000 A 
ATOM      6  C   UNL     1       0.145  10.107  20.089  0.00  0.00    +0.000 A 
ATOM      7  C   UNL     1      -0.350   9.812  21.358  0.00  0.00    +0.000 A 
ATOM      8  C   UNL     1       0.158   8.725  22.062  0.00  0.00    +0.000 A 
ATOM      9  C   UNL     1       1.101   7.885  21.462  0.00  0.00    +0.000 A 
ATOM     10  C   UNL     1       1.548   8.120  20.149  0.00  0.00    +0.000 A 
ATOM     11  C   UNL     1       2.406   7.227  19.472  0.00  0.00    +0.000 A 
ENDBRANCH   1   2
BRANCH   1  12
ATOM     12  C   UNL     1       4.953   7.089  16.785  0.00  0.00    +0.000 C 
BRANCH  12  13
ATOM     13  O   UNL     1       5.908   7.554  17.754  0.00  0.00    +0.000 OA
BRANCH  13  15
ATOM     14  O   UNL     1       7.806   6.721  16.772  0.00  0.00    +0.000 OA
ATOM     15  C   UNL     1       7.203   7.601  17.357  0.00  0.00    +0.000 C 
BRANCH  15  16
ATOM     16  C   UNL     1       7.830   8.890  17.715  0.00  0.00    +0.000 C 
ATOM     17  C   UNL     1       8.752   9.029  18.681  0.00  0.00    +0.000 C 
BRANCH  17  18
ATOM     18  C   UNL     1       9.388  10.304  19.044  0.00  0.00    +0.000 A 
ATOM     19  C   UNL     1       9.927  11.102  18.025  0.00  0.00    +0.000 A 
ATOM     20  C   UNL     1      10.504  12.339  18.321  0.00  0.00    +0.000 A 
ATOM     21  C   UNL     1      10.540  12.795  19.637  0.00  0.00    +0.000 A 
ATOM     22  C   UNL     1       9.996  12.018  20.656  0.00  0.00    +0.000 A 
ATOM     23  C   UNL     1       9.417  10.782  20.361  0.00  0.00    +0.000 A 
ENDBRANCH  17  18
ENDBRANCH  15  16
ENDBRANCH  13  15
ENDBRANCH  12  13
ENDBRANCH   1  12
BRANCH   1  24
ATOM     24  O   UNL     1       4.088   5.411  18.360  0.00  0.00    +0.000 OA
BRANCH  24  25
ATOM     25  C   UNL     1       4.319   4.191  17.819  0.00  0.00    +0.000 C 
ATOM     26  O   UNL     1       4.289   3.126  18.407  0.00  0.00    +0.000 OA
BRANCH  25  27
ATOM     27  C   UNL     1       4.632   4.341  16.382  0.00  0.00    +0.000 C 
ATOM     28  C   UNL     1       5.799   3.876  15.901  0.00  0.00    +0.000 C 
BRANCH  28  29
ATOM     29  C   UNL     1       6.231   4.023  14.505  0.00  0.00    +0.000 A 
ATOM     30  C   UNL     1       7.275   4.890  14.147  0.00  0.00    +0.000 A 
ATOM     31  C   UNL     1       7.683   5.009  12.818  0.00  0.00    +0.000 A 
ATOM     32  C   UNL     1       7.064   4.250  11.826  0.00  0.00    +0.000 A 
ATOM     33  C   UNL     1       6.052   3.357  12.171  0.00  0.00    +0.000 A 
ATOM     34  C   UNL     1       5.643   3.235  13.502  0.00  0.00    +0.000 A 
ENDBRANCH  28  29
ENDBRANCH  25  27
ENDBRANCH  24  25
ENDBRANCH   1  24
TORSDOF 10
ENDMDL
MODEL 5
REMARK VINA RESULT:      -8.5      5.557     10.758
REMARK  Name = 
REMARK  10 active torsions:
REMARK  status: ('A' for Active; 'I' for Inactive)
REMARK    1  A    between atoms: C_2  and  C_3
REMARK    2  A    between atoms: C_2  and  O_11
REMARK    3  A    between atoms: C_4  and  C_5
REMARK    4  A    between atoms: O_11  and  C_12
REMARK    5  A    between atoms: C_12  and  C_13
REMARK    6  A    between atoms: C_13  and  O_14
REMARK    7  A    between atoms: C_13  and  C_25
REMARK    8  A    between atoms: O_14  and  C_15
REMARK    9  A    between atoms: C_15  and  C_17
REMARK   10  A    between atoms: C_18  and  C_19
REMARK                            x       y       z     vdW  Elec       q    Type
REMARK                         _______ _______ _______ _____ _____    ______ ____
ROOT
ATOM      1  C   UNL     1       0.718  10.042  20.428  0.00  0.00    +0.000 C 
ENDROOT
BRANCH   1   2
ATOM      2  C   UNL     1       1.366   8.866  19.695  0.00  0.00    +0.000 A 
ATOM      3  C   UNL     1       1.812   8.984  18.372  0.00  0.00    +0.000 A 
ATOM      4  C   UNL     1       2.507   7.938  17.756  0.00  0.00    +0.000 A 
ATOM      5  C   UNL     1       2.781   6.749  18.445  0.00  0.00    +0.000 A 
ATOM      6  C   UNL     1       3.579   5.743  17.875  0.00  0.00    +0.000 A 
ATOM      7  C   UNL     1       3.841   4.561  18.566  0.00  0.00    +0.000 A 
ATOM      8  C   UNL     1       3.253   4.340  19.807  0.00  0.00    +0.000 A 
ATOM      9  C   UNL     1       2.469   5.338  20.393  0.00  0.00    +0.000 A 
ATOM     10  C   UNL     1       2.263   6.570  19.747  0.00  0.00    +0.000 A 
ATOM     11  C   UNL     1       1.579   7.641  20.362  0.00  0.00    +0.000 A 
ENDBRANCH   1   2
BRANCH   1  12
ATOM     12  C   UNL     1      -0.016  10.978  19.441  0.00  0.00    +0.000 C 
BRANCH  12  13
ATOM     13  O   UNL     1      -1.394  10.624  19.234  0.00  0.00    +0.000 OA
BRANCH  13  15
ATOM     14  O   UNL     1      -2.029  11.734  17.331  0.00  0.00    +0.000 OA
ATOM     15  C   UNL     1      -2.144  11.496  18.518  0.00  0.00    +0.000 C 
BRANCH  15  16
ATOM     16  C   UNL     1      -3.166  12.147  19.363  0.00  0.00    +0.000 C 
ATOM     17  C   UNL     1      -4.481  12.126  19.094  0.00  0.00    +0.000 C 
BRANCH  17  18
ATOM     18  C   UNL     1      -5.510  12.764  19.927  0.00  0.00    +0.000 A 
ATOM     19  C   UNL     1      -6.190  11.983  20.873  0.00  0.00    +0.000 A 
ATOM     20  C   UNL     1      -7.147  12.558  21.713  0.00  0.00    +0.000 A 
ATOM     21  C   UNL     1      -7.427  13.919  21.624  0.00  0.00    +0.000 A 
ATOM     22  C   UNL     1      -6.748  14.708  20.698  0.00  0.00    +0.000 A 
ATOM     23  C   UNL     1      -5.791  14.135  19.858  0.00  0.00    +0.000 A 
ENDBRANCH  17  18
ENDBRANCH  15  16
ENDBRANCH  13  15
ENDBRANCH  12  13
ENDBRANCH   1  12
BRANCH   1  24
ATOM     24  O   UNL     1      -0.216   9.512  21.406  0.00  0.00    +0.000 OA
BRANCH  24  25
ATOM     25  C   UNL     1      -0.008   9.914  22.682  0.00  0.00    +0.000 C 
ATOM     26  O   UNL     1       0.979   9.683  23.355  0.00  0.00    +0.000 OA
BRANCH  25  27
ATOM     27  C   UNL     1      -1.181  10.679  23.155  0.00  0.00    +0.000 C 
ATOM     28  C   UNL     1      -1.505  11.841  22.562  0.00  0.00    +0.000 C 
BRANCH  28  29
ATOM     29  C   UNL     1      -2.614  12.704  22.989  0.00  0.00    +0.000 A 
ATOM     30  C   UNL     1      -3.601  12.246  23.875  0.00  0.00    +0.000 A 
ATOM     31  C   UNL     1      -4.641  13.083  24.281  0.00  0.00    +0.000 A 
ATOM     32  C   UNL     1      -4.702  14.397  23.822  0.00  0.00    +0.000 A 
ATOM     33  C   UNL     1      -3.708  14.878  22.973  0.00  0.00    +0.000 A 
ATOM     34  C   UNL     1      -2.664  14.042  22.565  0.00  0.00    +0.000 A 
ENDBRANCH  28  29
ENDBRANCH  25  27
ENDBRANCH  24  25
ENDBRANCH   1  24
TORSDOF 10
ENDMDL
MODEL 6
REMARK VINA RESULT:      -8.4      4.677     10.092
REMARK  Name = 
REMARK  10 active torsions:
REMARK  status: ('A' for Active; 'I' for Inactive)
REMARK    1  A    between atoms: C_2  and  C_3
REMARK    2  A    between atoms: C_2  and  O_11
REMARK    3  A    between atoms: C_4  and  C_5
REMARK    4  A    between atoms: O_11  and  C_12
REMARK    5  A    between atoms: C_12  and  C_13
REMARK    6  A    between atoms: C_13  and  O_14
REMARK    7  A    between atoms: C_13  and  C_25
REMARK    8  A    between atoms: O_14  and  C_15
REMARK    9  A    between atoms: C_15  and  C_17
REMARK   10  A    between atoms: C_18  and  C_19
REMARK                            x       y       z     vdW  Elec       q    Type
REMARK                         _______ _______ _______ _____ _____    ______ ____
ROOT
ATOM      1  C   UNL     1       1.346   8.471  19.691  0.00  0.00    +0.000 C 
ENDROOT
BRANCH   1   2
ATOM      2  C   UNL     1       2.265   7.356  19.189  0.00  0.00    +0.000 A 
ATOM      3  C   UNL     1       2.283   6.093  19.793  0.00  0.00    +0.000 A 
ATOM      4  C   UNL     1       3.040   5.051  19.250  0.00  0.00    +0.000 A 
ATOM      5  C   UNL     1       3.796   5.239  18.084  0.00  0.00    +0.000 A 
ATOM      6  C   UNL     1       4.464   4.168  17.468  0.00  0.00    +0.000 A 
ATOM      7  C   UNL     1       5.218   4.366  16.312  0.00  0.00    +0.000 A 
ATOM      8  C   UNL     1       5.370   5.649  15.798  0.00  0.00    +0.000 A 
ATOM      9  C   UNL     1       4.699   6.722  16.392  0.00  0.00    +0.000 A 
ATOM     10  C   UNL     1       3.867   6.526  17.509  0.00  0.00    +0.000 A 
ATOM     11  C   UNL     1       3.083   7.563  18.058  0.00  0.00    +0.000 A 
ENDBRANCH   1   2
BRANCH   1  12
ATOM     12  C   UNL     1       1.490   8.665  21.218  0.00  0.00    +0.000 C 
BRANCH  12  13
ATOM     13  O   UNL     1       0.237   8.628  21.921  0.00  0.00    +0.000 OA
BRANCH  13  15
ATOM     14  O   UNL     1       0.772   9.546  23.953  0.00  0.00    +0.000 OA
ATOM     15  C   UNL     1       0.089   9.501  22.947  0.00  0.00    +0.000 C 
BRANCH  15  16
ATOM     16  C   UNL     1      -1.028  10.436  22.703  0.00  0.00    +0.000 C 
ATOM     17  C   UNL     1      -0.867  11.749  22.479  0.00  0.00    +0.000 C 
BRANCH  17  18
ATOM     18  C   UNL     1      -1.967  12.691  22.230  0.00  0.00    +0.000 A 
ATOM     19  C   UNL     1      -1.707  13.846  21.478  0.00  0.00    +0.000 A 
ATOM     20  C   UNL     1      -2.733  14.747  21.182  0.00  0.00    +0.000 A 
ATOM     21  C   UNL     1      -4.030  14.499  21.626  0.00  0.00    +0.000 A 
ATOM     22  C   UNL     1      -4.303  13.349  22.361  0.00  0.00    +0.000 A 
ATOM     23  C   UNL     1      -3.279  12.446  22.656  0.00  0.00    +0.000 A 
ENDBRANCH  17  18
ENDBRANCH  15  16
ENDBRANCH  13  15
ENDBRANCH  12  13
ENDBRANCH   1  12
BRANCH   1  24
ATOM     24  O   UNL     1       1.692   9.697  18.995  0.00  0.00    +0.000 OA
BRANCH  24  25
ATOM     25  C   UNL     1       0.994  10.794  19.375  0.00  0.00    +0.000 C 
ATOM     26  O   UNL     1       1.448  11.779  19.927  0.00  0.00    +0.000 OA
BRANCH  25  27
ATOM     27  C   UNL     1      -0.432  10.614  19.028  0.00  0.00    +0.000 C 
ATOM     28  C   UNL     1      -1.075  11.567  18.331  0.00  0.00    +0.000 C 
BRANCH  28  29
ATOM     29  C   UNL     1      -2.501  11.514  17.984  0.00  0.00    +0.000 A 
ATOM     30  C   UNL     1      -3.495  11.892  18.899  0.00  0.00    +0.000 A 
ATOM     31  C   UNL     1      -4.845  11.847  18.549  0.00  0.00    +0.000 A 
ATOM     32  C   UNL     1      -5.223  11.439  17.272  0.00  0.00    +0.000 A 
ATOM     33  C   UNL     1      -4.246  11.096  16.339  0.00  0.00    +0.000 A 
ATOM     34  C   UNL     1      -2.893  11.142  16.687  0.00  0.00    +0.000 A 
ENDBRANCH  28  29
ENDBRANCH  25  27
ENDBRANCH  24  25
ENDBRANCH   1  24
TORSDOF 10
ENDMDL
MODEL 7
REMARK VINA RESULT:      -8.4      5.049      9.970
REMARK  Name = 
REMARK  10 active torsions:
REMARK  status: ('A' for Active; 'I' for Inactive)
REMARK    1  A    between atoms: C_2  and  C_3
REMARK    2  A    between atoms: C_2  and  O_11
REMARK    3  A    between atoms: C_4  and  C_5
REMARK    4  A    between atoms: O_11  and  C_12
REMARK    5  A    between atoms: C_12  and  C_13
REMARK    6  A    between atoms: C_13  and  O_14
REMARK    7  A    between atoms: C_13  and  C_25
REMARK    8  A    between atoms: O_14  and  C_15
REMARK    9  A    between atoms: C_15  and  C_17
REMARK   10  A    between atoms: C_18  and  C_19
REMARK                            x       y       z     vdW  Elec       q    Type
REMARK                         _______ _______ _______ _____ _____    ______ ____
ROOT
ATOM      1  C   UNL     1       0.172  11.048  19.119  0.00  0.00    +0.000 C 
ENDROOT
BRANCH   1   2
ATOM      2  C   UNL     1      -1.310  11.076  18.738  0.00  0.00    +0.000 A 
ATOM      3  C   UNL     1      -1.839  10.191  17.790  0.00  0.00    +0.000 A 
ATOM      4  C   UNL     1      -3.214  10.150  17.539  0.00  0.00    +0.000 A 
ATOM      5  C   UNL     1      -4.099  10.986  18.234  0.00  0.00    +0.000 A 
ATOM      6  C   UNL     1      -5.490  10.868  18.073  0.00  0.00    +0.000 A 
ATOM      7  C   UNL     1      -6.363  11.708  18.764  0.00  0.00    +0.000 A 
ATOM      8  C   UNL     1      -5.854  12.721  19.569  0.00  0.00    +0.000 A 
ATOM      9  C   UNL     1      -4.473  12.841  19.750  0.00  0.00    +0.000 A 
ATOM     10  C   UNL     1      -3.582  11.949  19.128  0.00  0.00    +0.000 A 
ATOM     11  C   UNL     1      -2.194  11.966  19.383  0.00  0.00    +0.000 A 
ENDBRANCH   1   2
BRANCH   1  12
ATOM     12  C   UNL     1       0.362  11.292  20.634  0.00  0.00    +0.000 C 
BRANCH  12  13
ATOM     13  O   UNL     1      -0.225  10.270  21.457  0.00  0.00    +0.000 OA
BRANCH  13  15
ATOM     14  O   UNL     1       0.030   9.983  23.717  0.00  0.00    +0.000 OA
ATOM     15  C   UNL     1      -0.426  10.580  22.760  0.00  0.00    +0.000 C 
BRANCH  15  16
ATOM     16  C   UNL     1      -1.284  11.773  22.905  0.00  0.00    +0.000 C 
ATOM     17  C   UNL     1      -2.537  11.738  23.385  0.00  0.00    +0.000 C 
BRANCH  17  18
ATOM     18  C   UNL     1      -3.401  12.917  23.540  0.00  0.00    +0.000 A 
ATOM     19  C   UNL     1      -2.818  14.132  23.930  0.00  0.00    +0.000 A 
ATOM     20  C   UNL     1      -3.595  15.287  24.050  0.00  0.00    +0.000 A 
ATOM     21  C   UNL     1      -4.959  15.242  23.771  0.00  0.00    +0.000 A 
ATOM     22  C   UNL     1      -5.547  14.046  23.369  0.00  0.00    +0.000 A 
ATOM     23  C   UNL     1      -4.771  12.891  23.248  0.00  0.00    +0.000 A 
ENDBRANCH  17  18
ENDBRANCH  15  16
ENDBRANCH  13  15
ENDBRANCH  12  13
ENDBRANCH   1  12
BRANCH   1  24
ATOM     24  O   UNL     1       0.715   9.753  18.748  0.00  0.00    +0.000 OA
BRANCH  24  25
ATOM     25  C   UNL     1       1.807   9.792  17.949  0.00  0.00    +0.000 C 
ATOM     26  O   UNL     1       2.411  10.792  17.606  0.00  0.00    +0.000 OA
BRANCH  25  27
ATOM     27  C   UNL     1       2.162   8.420  17.531  0.00  0.00    +0.000 C 
ATOM     28  C   UNL     1       2.458   7.494  18.461  0.00  0.00    +0.000 C 
BRANCH  28  29
ATOM     29  C   UNL     1       2.876   6.120  18.151  0.00  0.00    +0.000 A 
ATOM     30  C   UNL     1       1.942   5.121  17.840  0.00  0.00    +0.000 A 
ATOM     31  C   UNL     1       2.357   3.823  17.536  0.00  0.00    +0.000 A 
ATOM     32  C   UNL     1       3.714   3.508  17.522  0.00  0.00    +0.000 A 
ATOM     33  C   UNL     1       4.656   4.499  17.792  0.00  0.00    +0.000 A 
ATOM     34  C   UNL     1       4.243   5.800  18.096  0.00  0.00    +0.000 A 
ENDBRANCH  28  29
ENDBRANCH  25  27
ENDBRANCH  24  25
ENDBRANCH   1  24
TORSDOF 10
ENDMDL
MODEL 8
REMARK VINA RESULT:      -8.3      1.708      7.381
REMARK  Name = 
REMARK  10 active torsions:
REMARK  status: ('A' for Active; 'I' for Inactive)
REMARK    1  A    between atoms: C_2  and  C_3
REMARK    2  A    between atoms: C_2  and  O_11
REMARK    3  A    between atoms: C_4  and  C_5
REMARK    4  A    between atoms: O_11  and  C_12
REMARK    5  A    between atoms: C_12  and  C_13
REMARK    6  A    between atoms: C_13  and  O_14
REMARK    7  A    between atoms: C_13  and  C_25
REMARK    8  A    between atoms: O_14  and  C_15
REMARK    9  A    between atoms: C_15  and  C_17
REMARK   10  A    between atoms: C_18  and  C_19
REMARK                            x       y       z     vdW  Elec       q    Type
REMARK                         _______ _______ _______ _____ _____    ______ ____
ROOT
ATOM      1  C   UNL     1       4.149   6.398  17.502  0.00  0.00    +0.000 C 
ENDROOT
BRANCH   1   2
ATOM      2  C   UNL     1       3.089   6.917  18.475  0.00  0.00    +0.000 A 
ATOM      3  C   UNL     1       2.749   6.208  19.634  0.00  0.00    +0.000 A 
ATOM      4  C   UNL     1       1.866   6.752  20.572  0.00  0.00    +0.000 A 
ATOM      5  C   UNL     1       1.304   8.022  20.383  0.00  0.00    +0.000 A 
ATOM      6  C   UNL     1       0.510   8.624  21.374  0.00  0.00    +0.000 A 
ATOM      7  C   UNL     1      -0.049   9.885  21.174  0.00  0.00    +0.000 A 
ATOM      8  C   UNL     1       0.120  10.530  19.953  0.00  0.00    +0.000 A 
ATOM      9  C   UNL     1       0.919   9.951  18.963  0.00  0.00    +0.000 A 
ATOM     10  C   UNL     1       1.560   8.718  19.181  0.00  0.00    +0.000 A 
ATOM     11  C   UNL     1       2.467   8.163  18.252  0.00  0.00    +0.000 A 
ENDBRANCH   1   2
BRANCH   1  12
ATOM     12  C   UNL     1       5.169   7.504  17.147  0.00  0.00    +0.000 C 
BRANCH  12  13
ATOM     13  O   UNL     1       6.479   6.997  16.838  0.00  0.00    +0.000 OA
BRANCH  13  15
ATOM     14  O   UNL     1       7.981   6.371  18.453  0.00  0.00    +0.000 OA
ATOM     15  C   UNL     1       7.449   7.216  17.758  0.00  0.00    +0.000 C 
BRANCH  15  16
ATOM     16  C   UNL     1       7.815   8.645  17.825  0.00  0.00    +0.000 C 
ATOM     17  C   UNL     1       8.728   9.143  18.674  0.00  0.00    +0.000 C 
BRANCH  17  18
ATOM     18  C   UNL     1       9.107  10.561  18.749  0.00  0.00    +0.000 A 
ATOM     19  C   UNL     1       9.858  11.000  19.849  0.00  0.00    +0.000 A 
ATOM     20  C   UNL     1      10.275  12.331  19.940  0.00  0.00    +0.000 A 
ATOM     21  C   UNL     1       9.954  13.233  18.928  0.00  0.00    +0.000 A 
ATOM     22  C   UNL     1       9.221  12.806  17.824  0.00  0.00    +0.000 A 
ATOM     23  C   UNL     1       8.806  11.476  17.731  0.00  0.00    +0.000 A 
ENDBRANCH  17  18
ENDBRANCH  15  16
ENDBRANCH  13  15
ENDBRANCH  12  13
ENDBRANCH   1  12
BRANCH   1  24
ATOM     24  O   UNL     1       4.826   5.272  18.122  0.00  0.00    +0.000 OA
BRANCH  24  25
ATOM     25  C   UNL     1       4.523   4.059  17.601  0.00  0.00    +0.000 C 
ATOM     26  O   UNL     1       3.708   3.271  18.043  0.00  0.00    +0.000 OA
BRANCH  25  27
ATOM     27  C   UNL     1       5.352   3.817  16.402  0.00  0.00    +0.000 C 
ATOM     28  C   UNL     1       5.098   4.492  15.266  0.00  0.00    +0.000 C 
BRANCH  28  29
ATOM     29  C   UNL     1       5.823   4.287  14.006  0.00  0.00    +0.000 A 
ATOM     30  C   UNL     1       7.033   4.945  13.739  0.00  0.00    +0.000 A 
ATOM     31  C   UNL     1       7.716   4.729  12.541  0.00  0.00    +0.000 A 
ATOM     32  C   UNL     1       7.209   3.839  11.598  0.00  0.00    +0.000 A 
ATOM     33  C   UNL     1       6.028   3.149  11.864  0.00  0.00    +0.000 A 
ATOM     34  C   UNL     1       5.342   3.362  13.064  0.00  0.00    +0.000 A 
ENDBRANCH  28  29
ENDBRANCH  25  27
ENDBRANCH  24  25
ENDBRANCH   1  24
TORSDOF 10
ENDMDL
MODEL 9
REMARK VINA RESULT:      -8.2      1.679      7.542
REMARK  Name = 
REMARK  10 active torsions:
REMARK  status: ('A' for Active; 'I' for Inactive)
REMARK    1  A    between atoms: C_2  and  C_3
REMARK    2  A    between atoms: C_2  and  O_11
REMARK    3  A    between atoms: C_4  and  C_5
REMARK    4  A    between atoms: O_11  and  C_12
REMARK    5  A    between atoms: C_12  and  C_13
REMARK    6  A    between atoms: C_13  and  O_14
REMARK    7  A    between atoms: C_13  and  C_25
REMARK    8  A    between atoms: O_14  and  C_15
REMARK    9  A    between atoms: C_15  and  C_17
REMARK   10  A    between atoms: C_18  and  C_19
REMARK                            x       y       z     vdW  Elec       q    Type
REMARK                         _______ _______ _______ _____ _____    ______ ____
ROOT
ATOM      1  C   UNL     1       4.068   6.386  17.418  0.00  0.00    +0.000 C 
ENDROOT
BRANCH   1   2
ATOM      2  C   UNL     1       3.129   7.401  18.073  0.00  0.00    +0.000 A 
ATOM      3  C   UNL     1       2.694   8.544  17.390  0.00  0.00    +0.000 A 
ATOM      4  C   UNL     1       1.745   9.399  17.958  0.00  0.00    +0.000 A 
ATOM      5  C   UNL     1       1.199   9.133  19.222  0.00  0.00    +0.000 A 
ATOM      6  C   UNL     1       0.161   9.921  19.748  0.00  0.00    +0.000 A 
ATOM      7  C   UNL     1      -0.372   9.653  21.008  0.00  0.00    +0.000 A 
ATOM      8  C   UNL     1       0.173   8.637  21.787  0.00  0.00    +0.000 A 
ATOM      9  C   UNL     1       1.196   7.835  21.271  0.00  0.00    +0.000 A 
ATOM     10  C   UNL     1       1.687   8.039  19.968  0.00  0.00    +0.000 A 
ATOM     11  C   UNL     1       2.632   7.175  19.374  0.00  0.00    +0.000 A 
ENDBRANCH   1   2
BRANCH   1  12
ATOM     12  C   UNL     1       5.455   6.390  18.100  0.00  0.00    +0.000 C 
BRANCH  12  13
ATOM     13  O   UNL     1       6.177   7.621  17.922  0.00  0.00    +0.000 OA
BRANCH  13  15
ATOM     14  O   UNL     1       7.843   6.786  16.585  0.00  0.00    +0.000 OA
ATOM     15  C   UNL     1       7.452   7.518  17.475  0.00  0.00    +0.000 C 
BRANCH  15  16
ATOM     16  C   UNL     1       8.354   8.433  18.204  0.00  0.00    +0.000 C 
ATOM     17  C   UNL     1       8.518   9.727  17.890  0.00  0.00    +0.000 C 
BRANCH  17  18
ATOM     18  C   UNL     1       9.407  10.651  18.609  0.00  0.00    +0.000 A 
ATOM     19  C   UNL     1       9.304  10.734  20.005  0.00  0.00    +0.000 A 
ATOM     20  C   UNL     1      10.157  11.568  20.732  0.00  0.00    +0.000 A 
ATOM     21  C   UNL     1      11.127  12.320  20.073  0.00  0.00    +0.000 A 
ATOM     22  C   UNL     1      11.248  12.235  18.689  0.00  0.00    +0.000 A 
ATOM     23  C   UNL     1      10.397  11.401  17.961  0.00  0.00    +0.000 A 
ENDBRANCH  17  18
ENDBRANCH  15  16
ENDBRANCH  13  15
ENDBRANCH  12  13
ENDBRANCH   1  12
BRANCH   1  24
ATOM     24  O   UNL     1       3.462   5.070  17.522  0.00  0.00    +0.000 OA
BRANCH  24  25
ATOM     25  C   UNL     1       4.334   4.043  17.663  0.00  0.00    +0.000 C 
ATOM     26  O   UNL     1       4.654   3.511  18.709  0.00  0.00    +0.000 OA
BRANCH  25  27
ATOM     27  C   UNL     1       4.862   3.661  16.336  0.00  0.00    +0.000 C 
ATOM     28  C   UNL     1       5.431   4.593  15.550  0.00  0.00    +0.000 C 
BRANCH  28  29
ATOM     29  C   UNL     1       5.936   4.331  14.196  0.00  0.00    +0.000 A 
ATOM     30  C   UNL     1       7.144   4.882  13.744  0.00  0.00    +0.000 A 
ATOM     31  C   UNL     1       7.617   4.614  12.458  0.00  0.00    +0.000 A 
ATOM     32  C   UNL     1       6.896   3.776  11.610  0.00  0.00    +0.000 A 
ATOM     33  C   UNL     1       5.714   3.190  12.057  0.00  0.00    +0.000 A 
ATOM     34  C   UNL     1       5.240   3.457  13.345  0.00  0.00    +0.000 A 
ENDBRANCH  28  29
ENDBRANCH  25  27
ENDBRANCH  24  25
ENDBRANCH   1  24
TORSDOF 10
ENDMDL
