MODEL 1
REMARK VINA RESULT:      -8.7      0.000      0.000
REMARK  Name = 
REMARK  7 active torsions:
REMARK  status: ('A' for Active; 'I' for Inactive)
REMARK    1  A    between atoms: C_2  and  C_3
REMARK    2  A    between atoms: C_3  and  N_4
REMARK    3  A    between atoms: C_6  and  C_7
REMARK    4  A    between atoms: C_12  and  C_13
REMARK    5  A    between atoms: N_27  and  C_28
REMARK    6  A    between atoms: C_28  and  C_29
REMARK    7  A    between atoms: C_29  and  N_30
REMARK                            x       y       z     vdW  Elec       q    Type
REMARK                         _______ _______ _______ _____ _____    ______ ____
ROOT
ATOM      1  N   UNL     1       4.636   6.043  16.881  0.00  0.00    +0.000 N 
ATOM      2  N   UNL     1       4.438   4.702  16.897  0.00  0.00    +0.000 NA
ATOM      3  C   UNL     1       3.271   4.541  17.501  0.00  0.00    +0.000 A 
ATOM      4  C   UNL     1       3.023   5.675  18.304  0.00  0.00    +0.000 A 
ATOM      5  C   UNL     1       2.335   5.924  19.504  0.00  0.00    +0.000 A 
ATOM      6  C   UNL     1       1.935   7.224  19.773  0.00  0.00    +0.000 A 
ATOM      7  C   UNL     1       1.086   7.523  20.880  0.00  0.00    +0.000 A 
ATOM      8  C   UNL     1       0.417   8.726  20.982  0.00  0.00    +0.000 A 
ATOM      9  C   UNL     1       0.646   9.678  20.018  0.00  0.00    +0.000 A 
ATOM     10  C   UNL     1       1.628   9.449  19.018  0.00  0.00    +0.000 A 
ATOM     11  C   UNL     1       2.339   8.233  18.853  0.00  0.00    +0.000 A 
ATOM     12  N   UNL     1       3.343   8.030  17.887  0.00  0.00    +0.000 NA
ATOM     13  C   UNL     1       3.680   6.718  17.669  0.00  0.00    +0.000 A 
ENDROOT
BRANCH   5  14
ATOM     14  C   UNL     1       2.203   4.743  20.367  0.00  0.00    +0.000 A 
ATOM     15  C   UNL     1       3.397   4.100  20.781  0.00  0.00    +0.000 A 
ATOM     16  C   UNL     1       3.374   2.827  21.307  0.00  0.00    +0.000 A 
ATOM     17  C   UNL     1       2.149   2.218  21.570  0.00  0.00    +0.000 A 
ATOM     18  C   UNL     1       0.959   2.896  21.292  0.00  0.00    +0.000 A 
ATOM     19  C   UNL     1       0.981   4.136  20.664  0.00  0.00    +0.000 A 
ENDBRANCH   5  14
BRANCH   3  20
ATOM     20  C   UNL     1       2.459   3.324  17.228  0.00  0.00    +0.000 C 
ATOM     21  F   UNL     1       1.140   3.521  17.503  0.00  0.00    +0.000 F 
ATOM     22  F   UNL     1       2.535   2.859  15.947  0.00  0.00    +0.000 F 
ATOM     23  F   UNL     1       2.866   2.300  18.035  0.00  0.00    +0.000 F 
ENDBRANCH   3  20
BRANCH   1  24
ATOM     24  C   UNL     1       5.862   6.367  16.164  0.00  0.00    +0.000 C 
BRANCH  24  26
ATOM     25  O   UNL     1       7.454   5.880  17.951  0.00  0.00    +0.000 OA
ATOM     26  C   UNL     1       7.036   6.723  17.154  0.00  0.00    +0.000 C 
ATOM     27  N   UNL     1       7.618   7.998  17.107  0.00  0.00    +0.000 N 
ATOM     28  H   UNL     1       6.977   8.665  16.684  0.00  0.00    +0.000 HD
BRANCH  27  29
ATOM     29  C   UNL     1       8.405   8.571  18.235  0.00  0.00    +0.000 C 
BRANCH  29  30
ATOM     30  C   UNL     1       8.520  10.128  18.358  0.00  0.00    +0.000 C 
BRANCH  30  31
ATOM     31  N   UNL     1       9.840  10.623  18.855  0.00  0.00    +0.000 NA
ATOM     32  C   UNL     1      10.552  11.512  17.910  0.00  0.00    +0.000 C 
ATOM     33  C   UNL     1       9.904  12.899  17.709  0.00  0.00    +0.000 C 
ATOM     34  N   UNL     1       9.632  13.639  18.948  0.00  0.00    +0.000 NA
ATOM     35  C   UNL     1       9.092  12.787  20.015  0.00  0.00    +0.000 C 
ATOM     36  C   UNL     1       9.737  11.383  20.128  0.00  0.00    +0.000 C 
ATOM     37  H   UNL     1       8.965  14.385  18.748  0.00  0.00    +0.000 HD
ENDBRANCH  30  31
ENDBRANCH  29  30
ENDBRANCH  27  29
ENDBRANCH  24  26
ENDBRANCH   1  24
TORSDOF 7
ENDMDL
MODEL 2
REMARK VINA RESULT:      -8.5      0.623      1.138
REMARK  Name = 
REMARK  7 active torsions:
REMARK  status: ('A' for Active; 'I' for Inactive)
REMARK    1  A    between atoms: C_2  and  C_3
REMARK    2  A    between atoms: C_3  and  N_4
REMARK    3  A    between atoms: C_6  and  C_7
REMARK    4  A    between atoms: C_12  and  C_13
REMARK    5  A    between atoms: N_27  and  C_28
REMARK    6  A    between atoms: C_28  and  C_29
REMARK    7  A    between atoms: C_29  and  N_30
REMARK                            x       y       z     vdW  Elec       q    Type
REMARK                         _______ _______ _______ _____ _____    ______ ____
ROOT
ATOM      1  N   UNL     1       4.781   5.974  16.894  0.00  0.00    +0.000 N 
ATOM      2  N   UNL     1       4.565   4.637  16.923  0.00  0.00    +0.000 NA
ATOM      3  C   UNL     1       3.374   4.500  17.486  0.00  0.00    +0.000 A 
ATOM      4  C   UNL     1       3.113   5.650  18.262  0.00  0.00    +0.000 A 
ATOM      5  C   UNL     1       2.385   5.927  19.432  0.00  0.00    +0.000 A 
ATOM      6  C   UNL     1       1.992   7.235  19.665  0.00  0.00    +0.000 A 
ATOM      7  C   UNL     1       1.107   7.563  20.735  0.00  0.00    +0.000 A 
ATOM      8  C   UNL     1       0.451   8.776  20.794  0.00  0.00    +0.000 A 
ATOM      9  C   UNL     1       0.727   9.709  19.824  0.00  0.00    +0.000 A 
ATOM     10  C   UNL     1       1.742   9.452  18.864  0.00  0.00    +0.000 A 
ATOM     11  C   UNL     1       2.443   8.225  18.745  0.00  0.00    +0.000 A 
ATOM     12  N   UNL     1       3.479   7.993  17.820  0.00  0.00    +0.000 NA
ATOM     13  C   UNL     1       3.806   6.674  17.635  0.00  0.00    +0.000 A 
ENDROOT
BRANCH   5  14
ATOM     14  C   UNL     1       2.205   4.762  20.307  0.00  0.00    +0.000 A 
ATOM     15  C   UNL     1       3.375   4.107  20.771  0.00  0.00    +0.000 A 
ATOM     16  C   UNL     1       3.314   2.843  21.315  0.00  0.00    +0.000 A 
ATOM     17  C   UNL     1       2.071   2.256  21.545  0.00  0.00    +0.000 A 
ATOM     18  C   UNL     1       0.902   2.948  21.217  0.00  0.00    +0.000 A 
ATOM     19  C   UNL     1       0.964   4.178  20.572  0.00  0.00    +0.000 A 
ENDBRANCH   5  14
BRANCH   3  20
ATOM     20  C   UNL     1       2.557   3.289  17.202  0.00  0.00    +0.000 C 
ATOM     21  F   UNL     1       2.637   2.917  15.895  0.00  0.00    +0.000 F 
ATOM     22  F   UNL     1       2.876   2.193  17.951  0.00  0.00    +0.000 F 
ATOM     23  F   UNL     1       1.238   3.549  17.442  0.00  0.00    +0.000 F 
ENDBRANCH   3  20
BRANCH   1  24
ATOM     24  C   UNL     1       6.037   6.272  16.217  0.00  0.00    +0.000 C 
BRANCH  24  26
ATOM     25  O   UNL     1       7.615   6.109  18.075  0.00  0.00    +0.000 OA
ATOM     26  C   UNL     1       7.114   6.841  17.217  0.00  0.00    +0.000 C 
ATOM     27  N   UNL     1       7.515   8.181  17.113  0.00  0.00    +0.000 N 
ATOM     28  H   UNL     1       6.804   8.727  16.634  0.00  0.00    +0.000 HD
BRANCH  27  29
ATOM     29  C   UNL     1       8.174   8.919  18.228  0.00  0.00    +0.000 C 
BRANCH  29  30
ATOM     30  C   UNL     1       9.124  10.113  17.882  0.00  0.00    +0.000 C 
BRANCH  30  31
ATOM     31  N   UNL     1       9.079  11.253  18.849  0.00  0.00    +0.000 NA
ATOM     32  C   UNL     1      10.210  11.287  19.803  0.00  0.00    +0.000 C 
ATOM     33  C   UNL     1      11.578  11.637  19.177  0.00  0.00    +0.000 C 
ATOM     34  N   UNL     1      11.593  12.866  18.373  0.00  0.00    +0.000 NA
ATOM     35  C   UNL     1      10.404  13.009  17.524  0.00  0.00    +0.000 C 
ATOM     36  C   UNL     1       9.068  12.582  18.184  0.00  0.00    +0.000 C 
ATOM     37  H   UNL     1      12.425  12.864  17.783  0.00  0.00    +0.000 HD
ENDBRANCH  30  31
ENDBRANCH  29  30
ENDBRANCH  27  29
ENDBRANCH  24  26
ENDBRANCH   1  24
TORSDOF 7
ENDMDL
MODEL 3
REMARK VINA RESULT:      -8.4      4.863      8.228
REMARK  Name = 
REMARK  7 active torsions:
REMARK  status: ('A' for Active; 'I' for Inactive)
REMARK    1  A    between atoms: C_2  and  C_3
REMARK    2  A    between atoms: C_3  and  N_4
REMARK    3  A    between atoms: C_6  and  C_7
REMARK    4  A    between atoms: C_12  and  C_13
REMARK    5  A    between atoms: N_27  and  C_28
REMARK    6  A    between atoms: C_28  and  C_29
REMARK    7  A    between atoms: C_29  and  N_30
REMARK                            x       y       z     vdW  Elec       q    Type
REMARK                         _______ _______ _______ _____ _____    ______ ____
ROOT
ATOM      1  N   UNL     1       0.990   9.519  18.562  0.00  0.00    +0.000 N 
ATOM      2  N   UNL     1       1.442   9.482  19.839  0.00  0.00    +0.000 NA
ATOM      3  C   UNL     1       0.372   9.720  20.583  0.00  0.00    +0.000 A 
ATOM      4  C   UNL     1      -0.573  10.412  19.795  0.00  0.00    +0.000 A 
ATOM      5  C   UNL     1      -1.583  11.358  20.040  0.00  0.00    +0.000 A 
ATOM      6  C   UNL     1      -2.596  11.493  19.104  0.00  0.00    +0.000 A 
ATOM      7  C   UNL     1      -3.742  12.303  19.364  0.00  0.00    +0.000 A 
ATOM      8  C   UNL     1      -4.894  12.200  18.610  0.00  0.00    +0.000 A 
ATOM      9  C   UNL     1      -4.892  11.341  17.538  0.00  0.00    +0.000 A 
ATOM     10  C   UNL     1      -3.695  10.672  17.171  0.00  0.00    +0.000 A 
ATOM     11  C   UNL     1      -2.485  10.726  17.908  0.00  0.00    +0.000 A 
ATOM     12  N   UNL     1      -1.290  10.096  17.513  0.00  0.00    +0.000 NA
ATOM     13  C   UNL     1      -0.338   9.991  18.495  0.00  0.00    +0.000 A 
ENDROOT
BRANCH   5  14
ATOM     14  C   UNL     1      -1.371  12.149  21.259  0.00  0.00    +0.000 A 
ATOM     15  C   UNL     1      -2.262  11.933  22.341  0.00  0.00    +0.000 A 
ATOM     16  C   UNL     1      -2.350  12.832  23.381  0.00  0.00    +0.000 A 
ATOM     17  C   UNL     1      -1.451  13.895  23.443  0.00  0.00    +0.000 A 
ATOM     18  C   UNL     1      -0.478  14.044  22.452  0.00  0.00    +0.000 A 
ATOM     19  C   UNL     1      -0.455  13.200  21.348  0.00  0.00    +0.000 A 
ENDBRANCH   5  14
BRANCH   3  20
ATOM     20  C   UNL     1       0.322   9.227  21.986  0.00  0.00    +0.000 C 
ATOM     21  F   UNL     1       0.493  10.235  22.885  0.00  0.00    +0.000 F 
ATOM     22  F   UNL     1      -0.830   8.578  22.325  0.00  0.00    +0.000 F 
ATOM     23  F   UNL     1       1.341   8.344  22.207  0.00  0.00    +0.000 F 
ENDBRANCH   3  20
BRANCH   1  24
ATOM     24  C   UNL     1       2.063   9.189  17.634  0.00  0.00    +0.000 C 
BRANCH  24  26
ATOM     25  O   UNL     1       3.864   7.543  17.516  0.00  0.00    +0.000 OA
ATOM     26  C   UNL     1       2.791   7.852  18.041  0.00  0.00    +0.000 C 
ATOM     27  N   UNL     1       2.223   7.024  19.020  0.00  0.00    +0.000 N 
ATOM     28  H   UNL     1       1.225   7.203  19.099  0.00  0.00    +0.000 HD
BRANCH  27  29
ATOM     29  C   UNL     1       2.577   5.584  19.170  0.00  0.00    +0.000 C 
BRANCH  29  30
ATOM     30  C   UNL     1       1.975   4.552  18.159  0.00  0.00    +0.000 C 
BRANCH  30  31
ATOM     31  N   UNL     1       2.986   3.768  17.385  0.00  0.00    +0.000 NA
ATOM     32  C   UNL     1       4.385   4.199  17.601  0.00  0.00    +0.000 C 
ATOM     33  C   UNL     1       4.952   3.888  19.003  0.00  0.00    +0.000 C 
ATOM     34  N   UNL     1       4.811   2.490  19.431  0.00  0.00    +0.000 NA
ATOM     35  C   UNL     1       3.504   1.916  19.085  0.00  0.00    +0.000 C 
ATOM     36  C   UNL     1       2.957   2.315  17.692  0.00  0.00    +0.000 C 
ATOM     37  H   UNL     1       4.941   2.438  20.442  0.00  0.00    +0.000 HD
ENDBRANCH  30  31
ENDBRANCH  29  30
ENDBRANCH  27  29
ENDBRANCH  24  26
ENDBRANCH   1  24
TORSDOF 7
ENDMDL
MODEL 4
REMARK VINA RESULT:      -8.3      4.909      8.529
REMARK  Name = 
REMARK  7 active torsions:
REMARK  status: ('A' for Active; 'I' for Inactive)
REMARK    1  A    between atoms: C_2  and  C_3
REMARK    2  A    between atoms: C_3  and  N_4
REMARK    3  A    between atoms: C_6  and  C_7
REMARK    4  A    between atoms: C_12  and  C_13
REMARK    5  A    between atoms: N_27  and  C_28
REMARK    6  A    between atoms: C_28  and  C_29
REMARK    7  A    between atoms: C_29  and  N_30
REMARK                            x       y       z     vdW  Elec       q    Type
REMARK                         _______ _______ _______ _____ _____    ______ ____
ROOT
ATOM      1  N   UNL     1       0.867   9.580  18.602  0.00  0.00    +0.000 N 
ATOM      2  N   UNL     1       1.343   9.543  19.870  0.00  0.00    +0.000 NA
ATOM      3  C   UNL     1       0.291   9.797  20.632  0.00  0.00    +0.000 A 
ATOM      4  C   UNL     1      -0.662  10.496  19.860  0.00  0.00    +0.000 A 
ATOM      5  C   UNL     1      -1.656  11.455  20.120  0.00  0.00    +0.000 A 
ATOM      6  C   UNL     1      -2.685  11.598  19.203  0.00  0.00    +0.000 A 
ATOM      7  C   UNL     1      -3.816  12.423  19.481  0.00  0.00    +0.000 A 
ATOM      8  C   UNL     1      -4.984  12.330  18.751  0.00  0.00    +0.000 A 
ATOM      9  C   UNL     1      -5.013  11.466  17.684  0.00  0.00    +0.000 A 
ATOM     10  C   UNL     1      -3.831  10.781  17.297  0.00  0.00    +0.000 A 
ATOM     11  C   UNL     1      -2.606  10.825  18.009  0.00  0.00    +0.000 A 
ATOM     12  N   UNL     1      -1.426  10.179  17.594  0.00  0.00    +0.000 NA
ATOM     13  C   UNL     1      -0.457  10.067  18.558  0.00  0.00    +0.000 A 
ENDROOT
BRANCH   5  14
ATOM     14  C   UNL     1      -1.410  12.250  21.330  0.00  0.00    +0.000 A 
ATOM     15  C   UNL     1      -2.283  12.050  22.431  0.00  0.00    +0.000 A 
ATOM     16  C   UNL     1      -2.340  12.956  23.467  0.00  0.00    +0.000 A 
ATOM     17  C   UNL     1      -1.426  14.007  23.507  0.00  0.00    +0.000 A 
ATOM     18  C   UNL     1      -0.470  14.139  22.497  0.00  0.00    +0.000 A 
ATOM     19  C   UNL     1      -0.479  13.289  21.397  0.00  0.00    +0.000 A 
ENDBRANCH   5  14
BRANCH   3  20
ATOM     20  C   UNL     1       0.263   9.311  22.038  0.00  0.00    +0.000 C 
ATOM     21  F   UNL     1      -0.907   8.681  22.336  0.00  0.00    +0.000 F 
ATOM     22  F   UNL     1       1.273   8.456  22.370  0.00  0.00    +0.000 F 
ATOM     23  F   UNL     1       0.354  10.367  22.899  0.00  0.00    +0.000 F 
ENDBRANCH   3  20
BRANCH   1  24
ATOM     24  C   UNL     1       1.917   9.233  17.654  0.00  0.00    +0.000 C 
BRANCH  24  26
ATOM     25  O   UNL     1       3.806   7.685  17.583  0.00  0.00    +0.000 OA
ATOM     26  C   UNL     1       2.744   7.981  18.137  0.00  0.00    +0.000 C 
ATOM     27  N   UNL     1       2.277   7.218  19.217  0.00  0.00    +0.000 N 
ATOM     28  H   UNL     1       1.275   7.348  19.335  0.00  0.00    +0.000 HD
BRANCH  27  29
ATOM     29  C   UNL     1       2.724   5.819  19.475  0.00  0.00    +0.000 C 
BRANCH  29  30
ATOM     30  C   UNL     1       2.150   4.669  18.582  0.00  0.00    +0.000 C 
BRANCH  30  31
ATOM     31  N   UNL     1       1.841   3.401  19.313  0.00  0.00    +0.000 NA
ATOM     32  C   UNL     1       1.836   2.192  18.459  0.00  0.00    +0.000 C 
ATOM     33  C   UNL     1       3.223   1.762  17.934  0.00  0.00    +0.000 C 
ATOM     34  N   UNL     1       4.257   1.615  18.966  0.00  0.00    +0.000 NA
ATOM     35  C   UNL     1       4.216   2.682  19.974  0.00  0.00    +0.000 C 
ATOM     36  C   UNL     1       2.795   3.116  20.416  0.00  0.00    +0.000 C 
ATOM     37  H   UNL     1       5.174   1.615  18.519  0.00  0.00    +0.000 HD
ENDBRANCH  30  31
ENDBRANCH  29  30
ENDBRANCH  27  29
ENDBRANCH  24  26
ENDBRANCH   1  24
TORSDOF 7
ENDMDL
MODEL 5
REMARK VINA RESULT:      -8.2      4.726      8.509
REMARK  Name = 
REMARK  7 active torsions:
REMARK  status: ('A' for Active; 'I' for Inactive)
REMARK    1  A    between atoms: C_2  and  C_3
REMARK    2  A    between atoms: C_3  and  N_4
REMARK    3  A    between atoms: C_6  and  C_7
REMARK    4  A    between atoms: C_12  and  C_13
REMARK    5  A    between atoms: N_27  and  C_28
REMARK    6  A    between atoms: C_28  and  C_29
REMARK    7  A    between atoms: C_29  and  N_30
REMARK                            x       y       z     vdW  Elec       q    Type
REMARK                         _______ _______ _______ _____ _____    ______ ____
ROOT
ATOM      1  N   UNL     1       0.931   9.749  18.825  0.00  0.00    +0.000 N 
ATOM      2  N   UNL     1       1.281   9.832  20.131  0.00  0.00    +0.000 NA
ATOM      3  C   UNL     1       0.143  10.052  20.772  0.00  0.00    +0.000 A 
ATOM      4  C   UNL     1      -0.776  10.622  19.865  0.00  0.00    +0.000 A 
ATOM      5  C   UNL     1      -1.857  11.516  19.960  0.00  0.00    +0.000 A 
ATOM      6  C   UNL     1      -2.798  11.517  18.942  0.00  0.00    +0.000 A 
ATOM      7  C   UNL     1      -4.007  12.266  19.053  0.00  0.00    +0.000 A 
ATOM      8  C   UNL     1      -5.087  12.035  18.225  0.00  0.00    +0.000 A 
ATOM      9  C   UNL     1      -4.949  11.104  17.225  0.00  0.00    +0.000 A 
ATOM     10  C   UNL     1      -3.688  10.489  17.001  0.00  0.00    +0.000 A 
ATOM     11  C   UNL     1      -2.546  10.676  17.821  0.00  0.00    +0.000 A 
ATOM     12  N   UNL     1      -1.288  10.099  17.566  0.00  0.00    +0.000 NA
ATOM     13  C   UNL     1      -0.413  10.127  18.622  0.00  0.00    +0.000 A 
ENDROOT
BRANCH   5  14
ATOM     14  C   UNL     1      -1.791  12.404  21.127  0.00  0.00    +0.000 A 
ATOM     15  C   UNL     1      -0.731  13.346  21.170  0.00  0.00    +0.000 A 
ATOM     16  C   UNL     1      -0.395  13.987  22.343  0.00  0.00    +0.000 A 
ATOM     17  C   UNL     1      -1.198  13.815  23.469  0.00  0.00    +0.000 A 
ATOM     18  C   UNL     1      -2.325  12.993  23.403  0.00  0.00    +0.000 A 
ATOM     19  C   UNL     1      -2.605  12.265  22.252  0.00  0.00    +0.000 A 
ENDBRANCH   5  14
BRANCH   3  20
ATOM     20  C   UNL     1       0.010   9.658  22.200  0.00  0.00    +0.000 C 
ATOM     21  F   UNL     1       0.020  10.739  23.029  0.00  0.00    +0.000 F 
ATOM     22  F   UNL     1      -1.111   8.938  22.495  0.00  0.00    +0.000 F 
ATOM     23  F   UNL     1       1.074   8.886  22.573  0.00  0.00    +0.000 F 
ENDBRANCH   3  20
BRANCH   1  24
ATOM     24  C   UNL     1       2.093   9.424  18.007  0.00  0.00    +0.000 C 
BRANCH  24  26
ATOM     25  O   UNL     1       2.225   7.347  19.288  0.00  0.00    +0.000 OA
ATOM     26  C   UNL     1       2.610   7.962  18.290  0.00  0.00    +0.000 C 
ATOM     27  N   UNL     1       3.495   7.354  17.388  0.00  0.00    +0.000 N 
ATOM     28  H   UNL     1       3.982   8.059  16.840  0.00  0.00    +0.000 HD
BRANCH  27  29
ATOM     29  C   UNL     1       4.356   6.194  17.753  0.00  0.00    +0.000 C 
BRANCH  29  30
ATOM     30  C   UNL     1       3.744   4.755  17.699  0.00  0.00    +0.000 C 
BRANCH  30  31
ATOM     31  N   UNL     1       3.470   4.138  19.033  0.00  0.00    +0.000 NA
ATOM     32  C   UNL     1       2.033   3.963  19.339  0.00  0.00    +0.000 C 
ATOM     33  C   UNL     1       1.314   2.888  18.495  0.00  0.00    +0.000 C 
ATOM     34  N   UNL     1       1.965   1.572  18.486  0.00  0.00    +0.000 NA
ATOM     35  C   UNL     1       3.427   1.658  18.372  0.00  0.00    +0.000 C 
ATOM     36  C   UNL     1       4.086   2.795  19.192  0.00  0.00    +0.000 C 
ATOM     37  H   UNL     1       1.602   1.028  17.702  0.00  0.00    +0.000 HD
ENDBRANCH  30  31
ENDBRANCH  29  30
ENDBRANCH  27  29
ENDBRANCH  24  26
ENDBRANCH   1  24
TORSDOF 7
ENDMDL
MODEL 6
REMARK VINA RESULT:      -8.1      4.864      8.339
REMARK  Name = 
REMARK  7 active torsions:
REMARK  status: ('A' for Active; 'I' for Inactive)
REMARK    1  A    between atoms: C_2  and  C_3
REMARK    2  A    between atoms: C_3  and  N_4
REMARK    3  A    between atoms: C_6  and  C_7
REMARK    4  A    between atoms: C_12  and  C_13
REMARK    5  A    between atoms: N_27  and  C_28
REMARK    6  A    between atoms: C_28  and  C_29
REMARK    7  A    between atoms: C_29  and  N_30
REMARK                            x       y       z     vdW  Elec       q    Type
REMARK                         _______ _______ _______ _____ _____    ______ ____
ROOT
ATOM      1  N   UNL     1       1.030   9.577  18.622  0.00  0.00    +0.000 N 
ATOM      2  N   UNL     1       1.465   9.535  19.905  0.00  0.00    +0.000 NA
ATOM      3  C   UNL     1       0.384   9.758  20.636  0.00  0.00    +0.000 A 
ATOM      4  C   UNL     1      -0.558  10.446  19.840  0.00  0.00    +0.000 A 
ATOM      5  C   UNL     1      -1.580  11.382  20.078  0.00  0.00    +0.000 A 
ATOM      6  C   UNL     1      -2.581  11.514  19.129  0.00  0.00    +0.000 A 
ATOM      7  C   UNL     1      -3.737  12.311  19.379  0.00  0.00    +0.000 A 
ATOM      8  C   UNL     1      -4.879  12.203  18.610  0.00  0.00    +0.000 A 
ATOM      9  C   UNL     1      -4.855  11.351  17.532  0.00  0.00    +0.000 A 
ATOM     10  C   UNL     1      -3.647  10.696  17.177  0.00  0.00    +0.000 A 
ATOM     11  C   UNL     1      -2.447  10.756  17.930  0.00  0.00    +0.000 A 
ATOM     12  N   UNL     1      -1.241  10.140  17.547  0.00  0.00    +0.000 NA
ATOM     13  C   UNL     1      -0.301  10.037  18.540  0.00  0.00    +0.000 A 
ENDROOT
BRANCH   5  14
ATOM     14  C   UNL     1      -1.391  12.167  21.304  0.00  0.00    +0.000 A 
ATOM     15  C   UNL     1      -2.297  11.938  22.371  0.00  0.00    +0.000 A 
ATOM     16  C   UNL     1      -2.406  12.831  23.415  0.00  0.00    +0.000 A 
ATOM     17  C   UNL     1      -1.515  13.899  23.498  0.00  0.00    +0.000 A 
ATOM     18  C   UNL     1      -0.527  14.060  22.523  0.00  0.00    +0.000 A 
ATOM     19  C   UNL     1      -0.482  13.222  21.414  0.00  0.00    +0.000 A 
ENDBRANCH   5  14
BRANCH   3  20
ATOM     20  C   UNL     1       0.320   9.255  22.034  0.00  0.00    +0.000 C 
ATOM     21  F   UNL     1       0.475  10.258  22.943  0.00  0.00    +0.000 F 
ATOM     22  F   UNL     1      -0.833   8.599  22.356  0.00  0.00    +0.000 F 
ATOM     23  F   UNL     1       1.340   8.376  22.262  0.00  0.00    +0.000 F 
ENDBRANCH   3  20
BRANCH   1  24
ATOM     24  C   UNL     1       2.118   9.263  17.706  0.00  0.00    +0.000 C 
BRANCH  24  26
ATOM     25  O   UNL     1       3.748   7.465  17.417  0.00  0.00    +0.000 OA
ATOM     26  C   UNL     1       2.713   7.829  17.982  0.00  0.00    +0.000 C 
ATOM     27  N   UNL     1       2.071   6.977  18.892  0.00  0.00    +0.000 N 
ATOM     28  H   UNL     1       1.096   7.244  19.001  0.00  0.00    +0.000 HD
BRANCH  27  29
ATOM     29  C   UNL     1       2.283   5.501  18.908  0.00  0.00    +0.000 C 
BRANCH  29  30
ATOM     30  C   UNL     1       3.454   4.918  19.768  0.00  0.00    +0.000 C 
BRANCH  30  31
ATOM     31  N   UNL     1       4.338   3.950  19.050  0.00  0.00    +0.000 NA
ATOM     32  C   UNL     1       4.244   2.558  19.544  0.00  0.00    +0.000 C 
ATOM     33  C   UNL     1       2.909   1.846  19.232  0.00  0.00    +0.000 C 
ATOM     34  N   UNL     1       2.505   1.881  17.821  0.00  0.00    +0.000 NA
ATOM     35  C   UNL     1       2.740   3.187  17.191  0.00  0.00    +0.000 C 
ATOM     36  C   UNL     1       4.066   3.882  17.591  0.00  0.00    +0.000 C 
ATOM     37  H   UNL     1       1.513   1.654  17.755  0.00  0.00    +0.000 HD
ENDBRANCH  30  31
ENDBRANCH  29  30
ENDBRANCH  27  29
ENDBRANCH  24  26
ENDBRANCH   1  24
TORSDOF 7
ENDMDL
MODEL 7
REMARK VINA RESULT:      -8.1      4.933      8.374
REMARK  Name = 
REMARK  7 active torsions:
REMARK  status: ('A' for Active; 'I' for Inactive)
REMARK    1  A    between atoms: C_2  and  C_3
REMARK    2  A    between atoms: C_3  and  N_4
REMARK    3  A    between atoms: C_6  and  C_7
REMARK    4  A    between atoms: C_12  and  C_13
REMARK    5  A    between atoms: N_27  and  C_28
REMARK    6  A    between atoms: C_28  and  C_29
REMARK    7  A    between atoms: C_29  and  N_30
REMARK                            x       y       z     vdW  Elec       q    Type
REMARK                         _______ _______ _______ _____ _____    ______ ____
ROOT
ATOM      1  N   UNL     1       0.943   9.857  18.720  0.00  0.00    +0.000 N 
ATOM      2  N   UNL     1       1.311   9.919  20.022  0.00  0.00    +0.000 NA
ATOM      3  C   UNL     1       0.179  10.103  20.684  0.00  0.00    +0.000 A 
ATOM      4  C   UNL     1      -0.765  10.674  19.803  0.00  0.00    +0.000 A 
ATOM      5  C   UNL     1      -1.862  11.543  19.933  0.00  0.00    +0.000 A 
ATOM      6  C   UNL     1      -2.818  11.547  18.930  0.00  0.00    +0.000 A 
ATOM      7  C   UNL     1      -4.040  12.270  19.075  0.00  0.00    +0.000 A 
ATOM      8  C   UNL     1      -5.128  12.035  18.258  0.00  0.00    +0.000 A 
ATOM      9  C   UNL     1      -4.986  11.128  17.236  0.00  0.00    +0.000 A 
ATOM     10  C   UNL     1      -3.717  10.544  16.981  0.00  0.00    +0.000 A 
ATOM     11  C   UNL     1      -2.567  10.735  17.787  0.00  0.00    +0.000 A 
ATOM     12  N   UNL     1      -1.302  10.189  17.501  0.00  0.00    +0.000 NA
ATOM     13  C   UNL     1      -0.412  10.212  18.545  0.00  0.00    +0.000 A 
ENDROOT
BRANCH   5  14
ATOM     14  C   UNL     1      -1.795  12.408  21.118  0.00  0.00    +0.000 A 
ATOM     15  C   UNL     1      -0.749  13.365  21.169  0.00  0.00    +0.000 A 
ATOM     16  C   UNL     1      -0.410  13.985  22.351  0.00  0.00    +0.000 A 
ATOM     17  C   UNL     1      -1.196  13.778  23.483  0.00  0.00    +0.000 A 
ATOM     18  C   UNL     1      -2.312  12.941  23.412  0.00  0.00    +0.000 A 
ATOM     19  C   UNL     1      -2.595  12.232  22.250  0.00  0.00    +0.000 A 
ENDBRANCH   5  14
BRANCH   3  20
ATOM     20  C   UNL     1       0.076   9.676  22.106  0.00  0.00    +0.000 C 
ATOM     21  F   UNL     1       1.129   8.900  22.481  0.00  0.00    +0.000 F 
ATOM     22  F   UNL     1      -0.010  10.698  23.006  0.00  0.00    +0.000 F 
ATOM     23  F   UNL     1      -1.042   8.911  22.284  0.00  0.00    +0.000 F 
ENDBRANCH   3  20
BRANCH   1  24
ATOM     24  C   UNL     1       2.098   9.572  17.878  0.00  0.00    +0.000 C 
BRANCH  24  26
ATOM     25  O   UNL     1       3.470   7.631  17.317  0.00  0.00    +0.000 OA
ATOM     26  C   UNL     1       2.589   8.084  18.051  0.00  0.00    +0.000 C 
ATOM     27  N   UNL     1       2.033   7.285  19.060  0.00  0.00    +0.000 N 
ATOM     28  H   UNL     1       1.122   7.644  19.334  0.00  0.00    +0.000 HD
BRANCH  27  29
ATOM     29  C   UNL     1       2.099   5.796  19.043  0.00  0.00    +0.000 C 
BRANCH  29  30
ATOM     30  C   UNL     1       3.305   5.088  19.745  0.00  0.00    +0.000 C 
BRANCH  30  31
ATOM     31  N   UNL     1       4.328   4.519  18.815  0.00  0.00    +0.000 NA
ATOM     32  C   UNL     1       5.173   3.461  19.413  0.00  0.00    +0.000 C 
ATOM     33  C   UNL     1       4.440   2.133  19.707  0.00  0.00    +0.000 C 
ATOM     34  N   UNL     1       3.701   1.570  18.570  0.00  0.00    +0.000 NA
ATOM     35  C   UNL     1       2.976   2.587  17.799  0.00  0.00    +0.000 C 
ATOM     36  C   UNL     1       3.735   3.922  17.590  0.00  0.00    +0.000 C 
ATOM     37  H   UNL     1       3.036   0.878  18.918  0.00  0.00    +0.000 HD
ENDBRANCH  30  31
ENDBRANCH  29  30
ENDBRANCH  27  29
ENDBRANCH  24  26
ENDBRANCH   1  24
TORSDOF 7
ENDMDL
MODEL 8
REMARK VINA RESULT:      -8.1      4.798      8.066
REMARK  Name = 
REMARK  7 active torsions:
REMARK  status: ('A' for Active; 'I' for Inactive)
REMARK    1  A    between atoms: C_2  and  C_3
REMARK    2  A    between atoms: C_3  and  N_4
REMARK    3  A    between atoms: C_6  and  C_7
REMARK    4  A    between atoms: C_12  and  C_13
REMARK    5  A    between atoms: N_27  and  C_28
REMARK    6  A    between atoms: C_28  and  C_29
REMARK    7  A    between atoms: C_29  and  N_30
REMARK                            x       y       z     vdW  Elec       q    Type
REMARK                         _______ _______ _______ _____ _____    ______ ____
ROOT
ATOM      1  N   UNL     1       0.887   9.611  18.579  0.00  0.00    +0.000 N 
ATOM      2  N   UNL     1       1.300   9.704  19.867  0.00  0.00    +0.000 NA
ATOM      3  C   UNL     1       0.199   9.964  20.556  0.00  0.00    +0.000 A 
ATOM      4  C   UNL     1      -0.746  10.546  19.684  0.00  0.00    +0.000 A 
ATOM      5  C   UNL     1      -1.797  11.470  19.814  0.00  0.00    +0.000 A 
ATOM      6  C   UNL     1      -2.784  11.482  18.842  0.00  0.00    +0.000 A 
ATOM      7  C   UNL     1      -3.967  12.266  18.996  0.00  0.00    +0.000 A 
ATOM      8  C   UNL     1      -5.090  12.052  18.223  0.00  0.00    +0.000 A 
ATOM      9  C   UNL     1      -5.023  11.103  17.232  0.00  0.00    +0.000 A 
ATOM     10  C   UNL     1      -3.791  10.451  16.960  0.00  0.00    +0.000 A 
ATOM     11  C   UNL     1      -2.607  10.618  17.723  0.00  0.00    +0.000 A 
ATOM     12  N   UNL     1      -1.378  10.004  17.419  0.00  0.00    +0.000 NA
ATOM     13  C   UNL     1      -0.455  10.023  18.433  0.00  0.00    +0.000 A 
ENDROOT
BRANCH   5  14
ATOM     14  C   UNL     1      -1.652  12.374  20.963  0.00  0.00    +0.000 A 
ATOM     15  C   UNL     1      -0.591  13.314  20.923  0.00  0.00    +0.000 A 
ATOM     16  C   UNL     1      -0.178  13.969  22.063  0.00  0.00    +0.000 A 
ATOM     17  C   UNL     1      -0.904  13.813  23.242  0.00  0.00    +0.000 A 
ATOM     18  C   UNL     1      -2.035  12.993  23.262  0.00  0.00    +0.000 A 
ATOM     19  C   UNL     1      -2.391  12.250  22.141  0.00  0.00    +0.000 A 
ENDBRANCH   5  14
BRANCH   3  20
ATOM     20  C   UNL     1       0.123   9.595  21.995  0.00  0.00    +0.000 C 
ATOM     21  F   UNL     1       0.291  10.676  22.807  0.00  0.00    +0.000 F 
ATOM     22  F   UNL     1      -1.040   8.989  22.371  0.00  0.00    +0.000 F 
ATOM     23  F   UNL     1       1.129   8.727  22.308  0.00  0.00    +0.000 F 
ENDBRANCH   3  20
BRANCH   1  24
ATOM     24  C   UNL     1       2.000   9.243  17.714  0.00  0.00    +0.000 C 
BRANCH  24  26
ATOM     25  O   UNL     1       3.767   7.556  17.692  0.00  0.00    +0.000 OA
ATOM     26  C   UNL     1       2.715   7.931  18.216  0.00  0.00    +0.000 C 
ATOM     27  N   UNL     1       2.160   7.204  19.279  0.00  0.00    +0.000 N 
ATOM     28  H   UNL     1       1.169   7.409  19.369  0.00  0.00    +0.000 HD
BRANCH  27  29
ATOM     29  C   UNL     1       2.492   5.775  19.544  0.00  0.00    +0.000 C 
BRANCH  29  30
ATOM     30  C   UNL     1       2.341   4.739  18.381  0.00  0.00    +0.000 C 
BRANCH  30  31
ATOM     31  N   UNL     1       3.165   3.500  18.532  0.00  0.00    +0.000 NA
ATOM     32  C   UNL     1       3.742   2.995  17.266  0.00  0.00    +0.000 C 
ATOM     33  C   UNL     1       4.856   3.877  16.662  0.00  0.00    +0.000 C 
ATOM     34  N   UNL     1       5.948   4.213  17.585  0.00  0.00    +0.000 NA
ATOM     35  C   UNL     1       5.473   4.550  18.933  0.00  0.00    +0.000 C 
ATOM     36  C   UNL     1       4.311   3.671  19.462  0.00  0.00    +0.000 C 
ATOM     37  H   UNL     1       6.468   5.006  17.208  0.00  0.00    +0.000 HD
ENDBRANCH  30  31
ENDBRANCH  29  30
ENDBRANCH  27  29
ENDBRANCH  24  26
ENDBRANCH   1  24
TORSDOF 7
ENDMDL
MODEL 9
REMARK VINA RESULT:      -8.1      5.063      8.650
REMARK  Name = 
REMARK  7 active torsions:
REMARK  status: ('A' for Active; 'I' for Inactive)
REMARK    1  A    between atoms: C_2  and  C_3
REMARK    2  A    between atoms: C_3  and  N_4
REMARK    3  A    between atoms: C_6  and  C_7
REMARK    4  A    between atoms: C_12  and  C_13
REMARK    5  A    between atoms: N_27  and  C_28
REMARK    6  A    between atoms: C_28  and  C_29
REMARK    7  A    between atoms: C_29  and  N_30
REMARK                            x       y       z     vdW  Elec       q    Type
REMARK                         _______ _______ _______ _____ _____    ______ ____
ROOT
ATOM      1  N   UNL     1       1.006   9.639  18.966  0.00  0.00    +0.000 N 
ATOM      2  N   UNL     1       1.324   9.757  20.278  0.00  0.00    +0.000 NA
ATOM      3  C   UNL     1       0.174  10.023  20.880  0.00  0.00    +0.000 A 
ATOM      4  C   UNL     1      -0.707  10.584  19.932  0.00  0.00    +0.000 A 
ATOM      5  C   UNL     1      -1.769  11.504  19.969  0.00  0.00    +0.000 A 
ATOM      6  C   UNL     1      -2.683  11.493  18.927  0.00  0.00    +0.000 A 
ATOM      7  C   UNL     1      -3.877  12.273  18.981  0.00  0.00    +0.000 A 
ATOM      8  C   UNL     1      -4.940  12.040  18.133  0.00  0.00    +0.000 A 
ATOM      9  C   UNL     1      -4.797  11.074  17.167  0.00  0.00    +0.000 A 
ATOM     10  C   UNL     1      -3.545  10.424  16.996  0.00  0.00    +0.000 A 
ATOM     11  C   UNL     1      -2.421  10.611  17.840  0.00  0.00    +0.000 A 
ATOM     12  N   UNL     1      -1.171   9.998  17.637  0.00  0.00    +0.000 NA
ATOM     13  C   UNL     1      -0.323  10.041  18.715  0.00  0.00    +0.000 A 
ENDROOT
BRANCH   5  14
ATOM     14  C   UNL     1      -1.712  12.428  21.109  0.00  0.00    +0.000 A 
ATOM     15  C   UNL     1      -0.638  13.354  21.145  0.00  0.00    +0.000 A 
ATOM     16  C   UNL     1      -0.317  14.025  22.305  0.00  0.00    +0.000 A 
ATOM     17  C   UNL     1      -1.146  13.903  23.418  0.00  0.00    +0.000 A 
ATOM     18  C   UNL     1      -2.285  13.097  23.353  0.00  0.00    +0.000 A 
ATOM     19  C   UNL     1      -2.553  12.337  22.220  0.00  0.00    +0.000 A 
ENDBRANCH   5  14
BRANCH   3  20
ATOM     20  C   UNL     1      -0.004   9.678  22.317  0.00  0.00    +0.000 C 
ATOM     21  F   UNL     1      -1.170   9.009  22.538  0.00  0.00    +0.000 F 
ATOM     22  F   UNL     1       0.998   8.925  22.855  0.00  0.00    +0.000 F 
ATOM     23  F   UNL     1      -0.074  10.819  23.065  0.00  0.00    +0.000 F 
ENDBRANCH   3  20
BRANCH   1  24
ATOM     24  C   UNL     1       2.180   9.262  18.191  0.00  0.00    +0.000 C 
BRANCH  24  26
ATOM     25  O   UNL     1       2.988   7.096  17.401  0.00  0.00    +0.000 OA
ATOM     26  C   UNL     1       2.510   7.728  18.346  0.00  0.00    +0.000 C 
ATOM     27  N   UNL     1       2.276   7.091  19.572  0.00  0.00    +0.000 N 
ATOM     28  H   UNL     1       1.586   7.606  20.114  0.00  0.00    +0.000 HD
BRANCH  27  29
ATOM     29  C   UNL     1       2.143   5.612  19.706  0.00  0.00    +0.000 C 
BRANCH  29  30
ATOM     30  C   UNL     1       3.442   4.738  19.716  0.00  0.00    +0.000 C 
BRANCH  30  31
ATOM     31  N   UNL     1       3.280   3.380  20.320  0.00  0.00    +0.000 NA
ATOM     32  C   UNL     1       1.890   2.870  20.306  0.00  0.00    +0.000 C 
ATOM     33  C   UNL     1       1.343   2.511  18.907  0.00  0.00    +0.000 C 
ATOM     34  N   UNL     1       2.193   1.604  18.125  0.00  0.00    +0.000 NA
ATOM     35  C   UNL     1       3.622   1.925  18.232  0.00  0.00    +0.000 C 
ATOM     36  C   UNL     1       4.100   2.340  19.646  0.00  0.00    +0.000 C 
ATOM     37  H   UNL     1       1.913   1.651  17.145  0.00  0.00    +0.000 HD
ENDBRANCH  30  31
ENDBRANCH  29  30
ENDBRANCH  27  29
ENDBRANCH  24  26
ENDBRANCH   1  24
TORSDOF 7
ENDMDL
