MODEL 1
REMARK VINA RESULT:      -7.8      0.000      0.000
REMARK  Name = 
REMARK  19 active torsions:
REMARK  status: ('A' for Active; 'I' for Inactive)
REMARK    1  A    between atoms: C_1  and  C_2
REMARK    2  A    between atoms: C_2  and  N_3
REMARK    3  A    between atoms: C_5  and  C_6
REMARK    4  A    between atoms: C_6  and  C_7
REMARK    5  A    between atoms: C_6  and  C_9
REMARK    6  A    between atoms: C_6  and  C_11
REMARK    7  A    between atoms: C_7  and  C_8
REMARK    8  A    between atoms: C_9  and  C_10
REMARK    9  A    between atoms: C_14  and  O_15
REMARK   10  A    between atoms: O_15  and  C_16
REMARK   11  A    between atoms: C_16  and  C_17
REMARK   12  A    between atoms: C_17  and  C_18
REMARK   13  A    between atoms: C_17  and  O_19
REMARK   14  A    between atoms: C_20  and  C_21
REMARK   15  A    between atoms: C_24  and  C_25
REMARK   16  A    between atoms: N_27  and  C_28
REMARK   17  A    between atoms: C_28  and  O_29
REMARK   18  A    between atoms: C_28  and  C_30
REMARK   19  A    between atoms: C_30  and  O_31
REMARK                            x       y       z     vdW  Elec       q    Type
REMARK                         _______ _______ _______ _____ _____    ______ ____
ROOT
ATOM      1  C   UNL     1       3.031   4.362  18.743  0.00  0.00    +0.000 C 
ENDROOT
BRANCH   1   2
ATOM      2  C   UNL     1       2.447   5.714  19.222  0.00  0.00    +0.000 A 
ATOM      3  C   UNL     1       2.054   5.966  20.544  0.00  0.00    +0.000 A 
ATOM      4  C   UNL     1       1.527   7.210  20.922  0.00  0.00    +0.000 A 
ATOM      5  C   UNL     1       1.420   8.274  20.016  0.00  0.00    +0.000 A 
ATOM      6  C   UNL     1       1.899   8.092  18.716  0.00  0.00    +0.000 A 
ATOM      7  C   UNL     1       2.081   9.145  17.659  0.00  0.00    +0.000 C 
ATOM      8  C   UNL     1       2.373   6.808  18.342  0.00  0.00    +0.000 A 
BRANCH   5   9
ATOM      9  O   UNL     1       0.891   9.400  20.589  0.00  0.00    +0.000 OA
BRANCH   9  10
ATOM     10  C   UNL     1      -0.181   9.241  21.520  0.00  0.00    +0.000 C 
BRANCH  10  11
ATOM     11  C   UNL     1       0.016  10.162  22.734  0.00  0.00    +0.000 C 
ATOM     12  C   UNL     1      -0.897  11.377  22.717  0.00  0.00    +0.000 C 
BRANCH  11  13
ATOM     13  O   UNL     1      -0.207   9.439  23.947  0.00  0.00    +0.000 OA
ATOM     14  H   UNL     1      -0.715   8.643  23.704  0.00  0.00    +0.000 HD
ENDBRANCH  11  13
ENDBRANCH  10  11
ENDBRANCH   9  10
ENDBRANCH   5   9
ENDBRANCH   1   2
BRANCH   1  17
ATOM     15  N   UNL     1       6.236   5.447  17.103  0.00  0.00    +0.000 N 
ATOM     16  C   UNL     1       5.374   5.420  18.174  0.00  0.00    +0.000 A 
ATOM     17  C   UNL     1       4.244   4.690  17.846  0.00  0.00    +0.000 A 
ATOM     18  C   UNL     1       4.438   4.317  16.483  0.00  0.00    +0.000 A 
ATOM     19  C   UNL     1       5.665   4.790  16.031  0.00  0.00    +0.000 A 
BRANCH  19  20
ATOM     20  C   UNL     1       6.231   4.671  14.709  0.00  0.00    +0.000 C 
ATOM     21  O   UNL     1       7.293   5.177  14.362  0.00  0.00    +0.000 OA
ATOM     22  N   UNL     1       5.467   3.928  13.833  0.00  0.00    +0.000 N 
ATOM     23  H   UNL     1       4.625   3.486  14.173  0.00  0.00    +0.000 HD
BRANCH  22  24
ATOM     24  C   UNL     1       5.818   3.691  12.455  0.00  0.00    +0.000 C 
BRANCH  24  25
ATOM     25  O   UNL     1       7.071   3.044  12.440  0.00  0.00    +0.000 OA
ATOM     26  H   UNL     1       7.691   3.693  12.062  0.00  0.00    +0.000 HD
ENDBRANCH  24  25
BRANCH  24  27
ATOM     27  C   UNL     1       4.744   2.914  11.674  0.00  0.00    +0.000 C 
BRANCH  27  28
ATOM     28  O   UNL     1       3.962   3.800  10.871  0.00  0.00    +0.000 OA
ATOM     29  H   UNL     1       4.025   3.470   9.956  0.00  0.00    +0.000 HD
ENDBRANCH  27  28
ENDBRANCH  24  27
ENDBRANCH  22  24
ENDBRANCH  19  20
BRANCH  15  31
ATOM     30  C   UNL     1       7.565   7.482  17.577  0.00  0.00    +0.000 C 
ATOM     31  C   UNL     1       7.570   6.014  17.191  0.00  0.00    +0.000 C 
ENDBRANCH  15  31
ENDBRANCH   1  17
BRANCH   1  32
ATOM     32  C   UNL     1       3.498   3.406  19.904  0.00  0.00    +0.000 C 
ATOM     33  C   UNL     1       4.141   2.076  19.506  0.00  0.00    +0.000 C 
ENDBRANCH   1  32
BRANCH   1  34
ATOM     34  C   UNL     1       1.947   3.607  17.888  0.00  0.00    +0.000 C 
ATOM     35  C   UNL     1       0.821   2.893  18.627  0.00  0.00    +0.000 C 
ENDBRANCH   1  34
TORSDOF 14
ENDMDL
MODEL 2
REMARK VINA RESULT:      -7.5      2.229      8.802
REMARK  Name = 
REMARK  19 active torsions:
REMARK  status: ('A' for Active; 'I' for Inactive)
REMARK    1  A    between atoms: C_1  and  C_2
REMARK    2  A    between atoms: C_2  and  N_3
REMARK    3  A    between atoms: C_5  and  C_6
REMARK    4  A    between atoms: C_6  and  C_7
REMARK    5  A    between atoms: C_6  and  C_9
REMARK    6  A    between atoms: C_6  and  C_11
REMARK    7  A    between atoms: C_7  and  C_8
REMARK    8  A    between atoms: C_9  and  C_10
REMARK    9  A    between atoms: C_14  and  O_15
REMARK   10  A    between atoms: O_15  and  C_16
REMARK   11  A    between atoms: C_16  and  C_17
REMARK   12  A    between atoms: C_17  and  C_18
REMARK   13  A    between atoms: C_17  and  O_19
REMARK   14  A    between atoms: C_20  and  C_21
REMARK   15  A    between atoms: C_24  and  C_25
REMARK   16  A    between atoms: N_27  and  C_28
REMARK   17  A    between atoms: C_28  and  O_29
REMARK   18  A    between atoms: C_28  and  C_30
REMARK   19  A    between atoms: C_30  and  O_31
REMARK                            x       y       z     vdW  Elec       q    Type
REMARK                         _______ _______ _______ _____ _____    ______ ____
ROOT
ATOM      1  C   UNL     1       2.610   4.467  19.078  0.00  0.00    +0.000 C 
ENDROOT
BRANCH   1   2
ATOM      2  C   UNL     1       3.888   4.481  18.203  0.00  0.00    +0.000 A 
ATOM      3  C   UNL     1       3.923   4.036  16.873  0.00  0.00    +0.000 A 
ATOM      4  C   UNL     1       5.110   4.069  16.127  0.00  0.00    +0.000 A 
ATOM      5  C   UNL     1       6.299   4.595  16.650  0.00  0.00    +0.000 A 
ATOM      6  C   UNL     1       6.275   5.143  17.936  0.00  0.00    +0.000 A 
ATOM      7  C   UNL     1       7.359   5.942  18.603  0.00  0.00    +0.000 C 
ATOM      8  C   UNL     1       5.079   5.046  18.692  0.00  0.00    +0.000 A 
BRANCH   5   9
ATOM      9  O   UNL     1       7.336   4.542  15.757  0.00  0.00    +0.000 OA
BRANCH   9  10
ATOM     10  C   UNL     1       7.348   5.488  14.684  0.00  0.00    +0.000 C 
BRANCH  10  11
ATOM     11  C   UNL     1       7.694   4.795  13.357  0.00  0.00    +0.000 C 
ATOM     12  C   UNL     1       6.568   3.924  12.825  0.00  0.00    +0.000 C 
BRANCH  11  13
ATOM     13  O   UNL     1       8.030   5.765  12.363  0.00  0.00    +0.000 OA
ATOM     14  H   UNL     1       7.850   5.348  11.500  0.00  0.00    +0.000 HD
ENDBRANCH  11  13
ENDBRANCH  10  11
ENDBRANCH   9  10
ENDBRANCH   5   9
ENDBRANCH   1   2
BRANCH   1  17
ATOM     15  N   UNL     1       1.939   8.162  19.264  0.00  0.00    +0.000 N 
ATOM     16  C   UNL     1       2.351   7.039  18.584  0.00  0.00    +0.000 A 
ATOM     17  C   UNL     1       2.284   5.936  19.419  0.00  0.00    +0.000 A 
ATOM     18  C   UNL     1       1.859   6.460  20.675  0.00  0.00    +0.000 A 
ATOM     19  C   UNL     1       1.652   7.831  20.574  0.00  0.00    +0.000 A 
BRANCH  19  20
ATOM     20  C   UNL     1       1.261   8.751  21.615  0.00  0.00    +0.000 C 
ATOM     21  O   UNL     1       2.046   9.364  22.329  0.00  0.00    +0.000 OA
ATOM     22  N   UNL     1      -0.104   8.893  21.758  0.00  0.00    +0.000 N 
ATOM     23  H   UNL     1      -0.716   8.410  21.116  0.00  0.00    +0.000 HD
BRANCH  22  24
ATOM     24  C   UNL     1      -0.731   9.738  22.744  0.00  0.00    +0.000 C 
BRANCH  24  25
ATOM     25  O   UNL     1      -0.089   9.500  23.977  0.00  0.00    +0.000 OA
ATOM     26  H   UNL     1       0.449  10.295  24.144  0.00  0.00    +0.000 HD
ENDBRANCH  24  25
BRANCH  24  27
ATOM     27  C   UNL     1      -0.737  11.228  22.360  0.00  0.00    +0.000 C 
BRANCH  27  28
ATOM     28  O   UNL     1      -1.146  11.399  21.001  0.00  0.00    +0.000 OA
ATOM     29  H   UNL     1      -1.889  12.028  21.015  0.00  0.00    +0.000 HD
ENDBRANCH  27  28
ENDBRANCH  24  27
ENDBRANCH  22  24
ENDBRANCH  19  20
BRANCH  15  31
ATOM     30  C   UNL     1       0.336   9.685  18.151  0.00  0.00    +0.000 C 
ATOM     31  C   UNL     1       1.762   9.447  18.612  0.00  0.00    +0.000 C 
ENDBRANCH  15  31
ENDBRANCH   1  17
BRANCH   1  32
ATOM     32  C   UNL     1       1.355   3.810  18.390  0.00  0.00    +0.000 C 
ATOM     33  C   UNL     1       0.579   2.765  19.192  0.00  0.00    +0.000 C 
ENDBRANCH   1  32
BRANCH   1  34
ATOM     34  C   UNL     1       2.908   3.683  20.411  0.00  0.00    +0.000 C 
ATOM     35  C   UNL     1       3.856   2.491  20.345  0.00  0.00    +0.000 C 
ENDBRANCH   1  34
TORSDOF 14
ENDMDL
MODEL 3
REMARK VINA RESULT:      -7.5      1.954      2.776
REMARK  Name = 
REMARK  19 active torsions:
REMARK  status: ('A' for Active; 'I' for Inactive)
REMARK    1  A    between atoms: C_1  and  C_2
REMARK    2  A    between atoms: C_2  and  N_3
REMARK    3  A    between atoms: C_5  and  C_6
REMARK    4  A    between atoms: C_6  and  C_7
REMARK    5  A    between atoms: C_6  and  C_9
REMARK    6  A    between atoms: C_6  and  C_11
REMARK    7  A    between atoms: C_7  and  C_8
REMARK    8  A    between atoms: C_9  and  C_10
REMARK    9  A    between atoms: C_14  and  O_15
REMARK   10  A    between atoms: O_15  and  C_16
REMARK   11  A    between atoms: C_16  and  C_17
REMARK   12  A    between atoms: C_17  and  C_18
REMARK   13  A    between atoms: C_17  and  O_19
REMARK   14  A    between atoms: C_20  and  C_21
REMARK   15  A    between atoms: C_24  and  C_25
REMARK   16  A    between atoms: N_27  and  C_28
REMARK   17  A    between atoms: C_28  and  O_29
REMARK   18  A    between atoms: C_28  and  C_30
REMARK   19  A    between atoms: C_30  and  O_31
REMARK                            x       y       z     vdW  Elec       q    Type
REMARK                         _______ _______ _______ _____ _____    ______ ____
ROOT
ATOM      1  C   UNL     1       2.641   5.366  19.001  0.00  0.00    +0.000 C 
ENDROOT
BRANCH   1   2
ATOM      2  C   UNL     1       2.186   6.835  19.189  0.00  0.00    +0.000 A 
ATOM      3  C   UNL     1       2.077   7.755  18.137  0.00  0.00    +0.000 A 
ATOM      4  C   UNL     1       1.662   9.075  18.366  0.00  0.00    +0.000 A 
ATOM      5  C   UNL     1       1.285   9.522  19.640  0.00  0.00    +0.000 A 
ATOM      6  C   UNL     1       1.282   8.604  20.694  0.00  0.00    +0.000 A 
ATOM      7  C   UNL     1       0.719   8.806  22.072  0.00  0.00    +0.000 C 
ATOM      8  C   UNL     1       1.761   7.291  20.450  0.00  0.00    +0.000 A 
BRANCH   5   9
ATOM      9  O   UNL     1       0.904  10.838  19.644  0.00  0.00    +0.000 OA
BRANCH   9  10
ATOM     10  C   UNL     1       0.640  11.465  18.387  0.00  0.00    +0.000 C 
BRANCH  10  11
ATOM     11  C   UNL     1      -0.449  12.538  18.536  0.00  0.00    +0.000 C 
ATOM     12  C   UNL     1       0.112  13.935  18.747  0.00  0.00    +0.000 C 
BRANCH  11  13
ATOM     13  O   UNL     1      -1.293  12.554  17.383  0.00  0.00    +0.000 OA
ATOM     14  H   UNL     1      -2.174  12.837  17.691  0.00  0.00    +0.000 HD
ENDBRANCH  11  13
ENDBRANCH  10  11
ENDBRANCH   9  10
ENDBRANCH   5   9
ENDBRANCH   1   2
BRANCH   1  17
ATOM     15  N   UNL     1       6.326   5.700  18.328  0.00  0.00    +0.000 N 
ATOM     16  C   UNL     1       5.221   5.872  19.130  0.00  0.00    +0.000 A 
ATOM     17  C   UNL     1       4.092   5.410  18.475  0.00  0.00    +0.000 A 
ATOM     18  C   UNL     1       4.562   4.994  17.195  0.00  0.00    +0.000 A 
ATOM     19  C   UNL     1       5.937   5.179  17.109  0.00  0.00    +0.000 A 
BRANCH  19  20
ATOM     20  C   UNL     1       6.800   4.928  15.980  0.00  0.00    +0.000 C 
ATOM     21  O   UNL     1       7.896   4.386  16.053  0.00  0.00    +0.000 OA
ATOM     22  N   UNL     1       6.288   5.359  14.773  0.00  0.00    +0.000 N 
ATOM     23  H   UNL     1       5.359   5.755  14.749  0.00  0.00    +0.000 HD
BRANCH  22  24
ATOM     24  C   UNL     1       6.978   5.237  13.513  0.00  0.00    +0.000 C 
BRANCH  24  25
ATOM     25  O   UNL     1       8.311   5.651  13.715  0.00  0.00    +0.000 OA
ATOM     26  H   UNL     1       8.248   6.480  14.223  0.00  0.00    +0.000 HD
ENDBRANCH  24  25
BRANCH  24  27
ATOM     27  C   UNL     1       6.885   3.830  12.897  0.00  0.00    +0.000 C 
BRANCH  27  28
ATOM     28  O   UNL     1       5.534   3.519  12.549  0.00  0.00    +0.000 OA
ATOM     29  H   UNL     1       5.321   2.681  12.996  0.00  0.00    +0.000 HD
ENDBRANCH  27  28
ENDBRANCH  24  27
ENDBRANCH  22  24
ENDBRANCH  19  20
BRANCH  15  31
ATOM     30  C   UNL     1       8.164   7.352  18.456  0.00  0.00    +0.000 C 
ATOM     31  C   UNL     1       7.676   5.956  18.796  0.00  0.00    +0.000 C 
ENDBRANCH  15  31
ENDBRANCH   1  17
BRANCH   1  32
ATOM     32  C   UNL     1       2.599   4.497  20.313  0.00  0.00    +0.000 C 
ATOM     33  C   UNL     1       1.236   3.973  20.767  0.00  0.00    +0.000 C 
ENDBRANCH   1  32
BRANCH   1  34
ATOM     34  C   UNL     1       1.723   4.677  17.924  0.00  0.00    +0.000 C 
ATOM     35  C   UNL     1       1.885   3.179  17.696  0.00  0.00    +0.000 C 
ENDBRANCH   1  34
TORSDOF 14
ENDMDL
MODEL 4
REMARK VINA RESULT:      -7.4      1.226      1.588
REMARK  Name = 
REMARK  19 active torsions:
REMARK  status: ('A' for Active; 'I' for Inactive)
REMARK    1  A    between atoms: C_1  and  C_2
REMARK    2  A    between atoms: C_2  and  N_3
REMARK    3  A    between atoms: C_5  and  C_6
REMARK    4  A    between atoms: C_6  and  C_7
REMARK    5  A    between atoms: C_6  and  C_9
REMARK    6  A    between atoms: C_6  and  C_11
REMARK    7  A    between atoms: C_7  and  C_8
REMARK    8  A    between atoms: C_9  and  C_10
REMARK    9  A    between atoms: C_14  and  O_15
REMARK   10  A    between atoms: O_15  and  C_16
REMARK   11  A    between atoms: C_16  and  C_17
REMARK   12  A    between atoms: C_17  and  C_18
REMARK   13  A    between atoms: C_17  and  O_19
REMARK   14  A    between atoms: C_20  and  C_21
REMARK   15  A    between atoms: C_24  and  C_25
REMARK   16  A    between atoms: N_27  and  C_28
REMARK   17  A    between atoms: C_28  and  O_29
REMARK   18  A    between atoms: C_28  and  C_30
REMARK   19  A    between atoms: C_30  and  O_31
REMARK                            x       y       z     vdW  Elec       q    Type
REMARK                         _______ _______ _______ _____ _____    ______ ____
ROOT
ATOM      1  C   UNL     1       2.775   4.520  19.235  0.00  0.00    +0.000 C 
ENDROOT
BRANCH   1   2
ATOM      2  C   UNL     1       2.203   5.925  19.548  0.00  0.00    +0.000 A 
ATOM      3  C   UNL     1       1.642   6.278  20.783  0.00  0.00    +0.000 A 
ATOM      4  C   UNL     1       1.136   7.567  21.010  0.00  0.00    +0.000 A 
ATOM      5  C   UNL     1       1.215   8.574  20.040  0.00  0.00    +0.000 A 
ATOM      6  C   UNL     1       1.862   8.288  18.834  0.00  0.00    +0.000 A 
ATOM      7  C   UNL     1       2.246   9.262  17.756  0.00  0.00    +0.000 C 
ATOM      8  C   UNL     1       2.313   6.963  18.605  0.00  0.00    +0.000 A 
BRANCH   5   9
ATOM      9  O   UNL     1       0.673   9.758  20.465  0.00  0.00    +0.000 OA
BRANCH   9  10
ATOM     10  C   UNL     1       0.648  10.019  21.870  0.00  0.00    +0.000 C 
BRANCH  10  11
ATOM     11  C   UNL     1      -0.354  11.138  22.195  0.00  0.00    +0.000 C 
ATOM     12  C   UNL     1      -1.122  11.625  20.977  0.00  0.00    +0.000 C 
BRANCH  11  13
ATOM     13  O   UNL     1      -1.291  10.695  23.178  0.00  0.00    +0.000 OA
ATOM     14  H   UNL     1      -0.987   9.816  23.472  0.00  0.00    +0.000 HD
ENDBRANCH  11  13
ENDBRANCH  10  11
ENDBRANCH   9  10
ENDBRANCH   5   9
ENDBRANCH   1   2
BRANCH   1  17
ATOM     15  N   UNL     1       6.337   5.349  18.359  0.00  0.00    +0.000 N 
ATOM     16  C   UNL     1       5.242   5.436  19.189  0.00  0.00    +0.000 A 
ATOM     17  C   UNL     1       4.183   4.731  18.641  0.00  0.00    +0.000 A 
ATOM     18  C   UNL     1       4.677   4.252  17.392  0.00  0.00    +0.000 A 
ATOM     19  C   UNL     1       6.001   4.639  17.223  0.00  0.00    +0.000 A 
BRANCH  19  20
ATOM     20  C   UNL     1       6.860   4.401  16.088  0.00  0.00    +0.000 C 
ATOM     21  O   UNL     1       8.084   4.368  16.140  0.00  0.00    +0.000 OA
ATOM     22  N   UNL     1       6.184   4.210  14.900  0.00  0.00    +0.000 N 
ATOM     23  H   UNL     1       5.175   4.194  14.909  0.00  0.00    +0.000 HD
BRANCH  22  24
ATOM     24  C   UNL     1       6.829   3.978  13.631  0.00  0.00    +0.000 C 
BRANCH  24  25
ATOM     25  O   UNL     1       5.960   3.186  12.852  0.00  0.00    +0.000 OA
ATOM     26  H   UNL     1       6.407   3.086  11.992  0.00  0.00    +0.000 HD
ENDBRANCH  24  25
BRANCH  24  27
ATOM     27  C   UNL     1       7.253   5.270  12.913  0.00  0.00    +0.000 C 
BRANCH  27  28
ATOM     28  O   UNL     1       8.493   5.754  13.431  0.00  0.00    +0.000 OA
ATOM     29  H   UNL     1       8.376   5.833  14.395  0.00  0.00    +0.000 HD
ENDBRANCH  27  28
ENDBRANCH  24  27
ENDBRANCH  22  24
ENDBRANCH  19  20
BRANCH  15  31
ATOM     30  C   UNL     1       7.898   7.263  18.203  0.00  0.00    +0.000 C 
ATOM     31  C   UNL     1       7.641   5.865  18.733  0.00  0.00    +0.000 C 
ENDBRANCH  15  31
ENDBRANCH   1  17
BRANCH   1  32
ATOM     32  C   UNL     1       2.884   3.568  20.485  0.00  0.00    +0.000 C 
ATOM     33  C   UNL     1       3.860   2.394  20.392  0.00  0.00    +0.000 C 
ENDBRANCH   1  32
BRANCH   1  34
ATOM     34  C   UNL     1       1.862   3.820  18.161  0.00  0.00    +0.000 C 
ATOM     35  C   UNL     1       0.735   2.921  18.654  0.00  0.00    +0.000 C 
ENDBRANCH   1  34
TORSDOF 14
ENDMDL
MODEL 5
REMARK VINA RESULT:      -7.4      1.990      2.812
REMARK  Name = 
REMARK  19 active torsions:
REMARK  status: ('A' for Active; 'I' for Inactive)
REMARK    1  A    between atoms: C_1  and  C_2
REMARK    2  A    between atoms: C_2  and  N_3
REMARK    3  A    between atoms: C_5  and  C_6
REMARK    4  A    between atoms: C_6  and  C_7
REMARK    5  A    between atoms: C_6  and  C_9
REMARK    6  A    between atoms: C_6  and  C_11
REMARK    7  A    between atoms: C_7  and  C_8
REMARK    8  A    between atoms: C_9  and  C_10
REMARK    9  A    between atoms: C_14  and  O_15
REMARK   10  A    between atoms: O_15  and  C_16
REMARK   11  A    between atoms: C_16  and  C_17
REMARK   12  A    between atoms: C_17  and  C_18
REMARK   13  A    between atoms: C_17  and  O_19
REMARK   14  A    between atoms: C_20  and  C_21
REMARK   15  A    between atoms: C_24  and  C_25
REMARK   16  A    between atoms: N_27  and  C_28
REMARK   17  A    between atoms: C_28  and  O_29
REMARK   18  A    between atoms: C_28  and  C_30
REMARK   19  A    between atoms: C_30  and  O_31
REMARK                            x       y       z     vdW  Elec       q    Type
REMARK                         _______ _______ _______ _____ _____    ______ ____
ROOT
ATOM      1  C   UNL     1       2.744   5.240  18.880  0.00  0.00    +0.000 C 
ENDROOT
BRANCH   1   2
ATOM      2  C   UNL     1       2.310   6.727  18.918  0.00  0.00    +0.000 A 
ATOM      3  C   UNL     1       2.203   7.535  17.778  0.00  0.00    +0.000 A 
ATOM      4  C   UNL     1       1.807   8.877  17.872  0.00  0.00    +0.000 A 
ATOM      5  C   UNL     1       1.448   9.458  19.096  0.00  0.00    +0.000 A 
ATOM      6  C   UNL     1       1.442   8.654  20.239  0.00  0.00    +0.000 A 
ATOM      7  C   UNL     1       0.893   9.005  21.593  0.00  0.00    +0.000 C 
ATOM      8  C   UNL     1       1.901   7.316  20.128  0.00  0.00    +0.000 A 
BRANCH   5   9
ATOM      9  O   UNL     1       1.084  10.773  18.967  0.00  0.00    +0.000 OA
BRANCH   9  10
ATOM     10  C   UNL     1      -0.308  11.077  18.850  0.00  0.00    +0.000 C 
BRANCH  10  11
ATOM     11  C   UNL     1      -0.512  12.569  18.548  0.00  0.00    +0.000 C 
ATOM     12  C   UNL     1       0.785  13.361  18.543  0.00  0.00    +0.000 C 
BRANCH  11  13
ATOM     13  O   UNL     1      -1.155  12.737  17.283  0.00  0.00    +0.000 OA
ATOM     14  H   UNL     1      -0.901  13.622  16.961  0.00  0.00    +0.000 HD
ENDBRANCH  11  13
ENDBRANCH  10  11
ENDBRANCH   9  10
ENDBRANCH   5   9
ENDBRANCH   1   2
BRANCH   1  17
ATOM     15  N   UNL     1       6.418   5.185  18.080  0.00  0.00    +0.000 N 
ATOM     16  C   UNL     1       5.374   5.301  18.969  0.00  0.00    +0.000 A 
ATOM     17  C   UNL     1       4.170   5.206  18.291  0.00  0.00    +0.000 A 
ATOM     18  C   UNL     1       4.538   5.081  16.918  0.00  0.00    +0.000 A 
ATOM     19  C   UNL     1       5.923   5.074  16.795  0.00  0.00    +0.000 A 
BRANCH  19  20
ATOM     20  C   UNL     1       6.708   5.008  15.587  0.00  0.00    +0.000 C 
ATOM     21  O   UNL     1       7.689   5.706  15.358  0.00  0.00    +0.000 OA
ATOM     22  N   UNL     1       6.259   4.075  14.673  0.00  0.00    +0.000 N 
ATOM     23  H   UNL     1       5.478   3.485  14.921  0.00  0.00    +0.000 HD
BRANCH  22  24
ATOM     24  C   UNL     1       6.868   3.845  13.387  0.00  0.00    +0.000 C 
BRANCH  24  25
ATOM     25  O   UNL     1       6.136   2.824  12.746  0.00  0.00    +0.000 OA
ATOM     26  H   UNL     1       6.377   2.887  11.805  0.00  0.00    +0.000 HD
ENDBRANCH  24  25
BRANCH  24  27
ATOM     27  C   UNL     1       6.984   5.116  12.527  0.00  0.00    +0.000 C 
BRANCH  27  28
ATOM     28  O   UNL     1       8.263   5.728  12.701  0.00  0.00    +0.000 OA
ATOM     29  H   UNL     1       8.133   6.683  12.555  0.00  0.00    +0.000 HD
ENDBRANCH  27  28
ENDBRANCH  24  27
ENDBRANCH  22  24
ENDBRANCH  19  20
BRANCH  15  31
ATOM     30  C   UNL     1       8.034   5.716  19.878  0.00  0.00    +0.000 C 
ATOM     31  C   UNL     1       7.802   5.102  18.510  0.00  0.00    +0.000 C 
ENDBRANCH  15  31
ENDBRANCH   1  17
BRANCH   1  32
ATOM     32  C   UNL     1       2.752   4.526  20.283  0.00  0.00    +0.000 C 
ATOM     33  C   UNL     1       1.435   3.922  20.773  0.00  0.00    +0.000 C 
ENDBRANCH   1  32
BRANCH   1  34
ATOM     34  C   UNL     1       1.774   4.446  17.928  0.00  0.00    +0.000 C 
ATOM     35  C   UNL     1       2.159   3.025  17.536  0.00  0.00    +0.000 C 
ENDBRANCH   1  34
TORSDOF 14
ENDMDL
MODEL 6
REMARK VINA RESULT:      -7.3      1.230      1.746
REMARK  Name = 
REMARK  19 active torsions:
REMARK  status: ('A' for Active; 'I' for Inactive)
REMARK    1  A    between atoms: C_1  and  C_2
REMARK    2  A    between atoms: C_2  and  N_3
REMARK    3  A    between atoms: C_5  and  C_6
REMARK    4  A    between atoms: C_6  and  C_7
REMARK    5  A    between atoms: C_6  and  C_9
REMARK    6  A    between atoms: C_6  and  C_11
REMARK    7  A    between atoms: C_7  and  C_8
REMARK    8  A    between atoms: C_9  and  C_10
REMARK    9  A    between atoms: C_14  and  O_15
REMARK   10  A    between atoms: O_15  and  C_16
REMARK   11  A    between atoms: C_16  and  C_17
REMARK   12  A    between atoms: C_17  and  C_18
REMARK   13  A    between atoms: C_17  and  O_19
REMARK   14  A    between atoms: C_20  and  C_21
REMARK   15  A    between atoms: C_24  and  C_25
REMARK   16  A    between atoms: N_27  and  C_28
REMARK   17  A    between atoms: C_28  and  O_29
REMARK   18  A    between atoms: C_28  and  C_30
REMARK   19  A    between atoms: C_30  and  O_31
REMARK                            x       y       z     vdW  Elec       q    Type
REMARK                         _______ _______ _______ _____ _____    ______ ____
ROOT
ATOM      1  C   UNL     1       3.121   5.280  18.469  0.00  0.00    +0.000 C 
ENDROOT
BRANCH   1   2
ATOM      2  C   UNL     1       2.521   6.685  18.717  0.00  0.00    +0.000 A 
ATOM      3  C   UNL     1       2.176   7.575  17.690  0.00  0.00    +0.000 A 
ATOM      4  C   UNL     1       1.638   8.840  17.973  0.00  0.00    +0.000 A 
ATOM      5  C   UNL     1       1.368   9.252  19.285  0.00  0.00    +0.000 A 
ATOM      6  C   UNL     1       1.601   8.350  20.327  0.00  0.00    +0.000 A 
ATOM      7  C   UNL     1       1.188   8.498  21.765  0.00  0.00    +0.000 C 
ATOM      8  C   UNL     1       2.199   7.101  20.022  0.00  0.00    +0.000 A 
BRANCH   5   9
ATOM      9  O   UNL     1       0.836  10.513  19.341  0.00  0.00    +0.000 OA
BRANCH   9  10
ATOM     10  C   UNL     1      -0.444  10.676  19.956  0.00  0.00    +0.000 C 
BRANCH  10  11
ATOM     11  C   UNL     1      -0.387  11.762  21.042  0.00  0.00    +0.000 C 
ATOM     12  C   UNL     1      -1.129  11.379  22.312  0.00  0.00    +0.000 C 
BRANCH  11  13
ATOM     13  O   UNL     1       0.971  12.058  21.377  0.00  0.00    +0.000 OA
ATOM     14  H   UNL     1       1.324  12.598  20.646  0.00  0.00    +0.000 HD
ENDBRANCH  11  13
ENDBRANCH  10  11
ENDBRANCH   9  10
ENDBRANCH   5   9
ENDBRANCH   1   2
BRANCH   1  17
ATOM     15  N   UNL     1       6.376   6.148  16.797  0.00  0.00    +0.000 N 
ATOM     16  C   UNL     1       5.461   6.293  17.814  0.00  0.00    +0.000 A 
ATOM     17  C   UNL     1       4.368   5.475  17.581  0.00  0.00    +0.000 A 
ATOM     18  C   UNL     1       4.642   4.858  16.324  0.00  0.00    +0.000 A 
ATOM     19  C   UNL     1       5.877   5.281  15.845  0.00  0.00    +0.000 A 
BRANCH  19  20
ATOM     20  C   UNL     1       6.513   4.934  14.597  0.00  0.00    +0.000 C 
ATOM     21  O   UNL     1       7.643   5.283  14.275  0.00  0.00    +0.000 OA
ATOM     22  N   UNL     1       5.731   4.162  13.762  0.00  0.00    +0.000 N 
ATOM     23  H   UNL     1       4.826   3.853  14.086  0.00  0.00    +0.000 HD
BRANCH  22  24
ATOM     24  C   UNL     1       6.144   3.713  12.455  0.00  0.00    +0.000 C 
BRANCH  24  25
ATOM     25  O   UNL     1       7.383   3.056  12.603  0.00  0.00    +0.000 OA
ATOM     26  H   UNL     1       7.265   2.451  13.358  0.00  0.00    +0.000 HD
ENDBRANCH  24  25
BRANCH  24  27
ATOM     27  C   UNL     1       5.094   2.839  11.748  0.00  0.00    +0.000 C 
BRANCH  27  28
ATOM     28  O   UNL     1       5.616   1.536  11.483  0.00  0.00    +0.000 OA
ATOM     29  H   UNL     1       5.499   1.021  12.301  0.00  0.00    +0.000 HD
ENDBRANCH  27  28
ENDBRANCH  24  27
ENDBRANCH  22  24
ENDBRANCH  19  20
BRANCH  15  31
ATOM     30  C   UNL     1       7.730   8.011  17.705  0.00  0.00    +0.000 C 
ATOM     31  C   UNL     1       7.688   6.769  16.835  0.00  0.00    +0.000 C 
ENDBRANCH  15  31
ENDBRANCH   1  17
BRANCH   1  32
ATOM     32  C   UNL     1       3.541   4.509  19.777  0.00  0.00    +0.000 C 
ATOM     33  C   UNL     1       4.409   3.262  19.611  0.00  0.00    +0.000 C 
ENDBRANCH   1  32
BRANCH   1  34
ATOM     34  C   UNL     1       2.070   4.400  17.694  0.00  0.00    +0.000 C 
ATOM     35  C   UNL     1       1.035   3.636  18.510  0.00  0.00    +0.000 C 
ENDBRANCH   1  34
TORSDOF 14
ENDMDL
MODEL 7
REMARK VINA RESULT:      -7.3      1.166      1.522
REMARK  Name = 
REMARK  19 active torsions:
REMARK  status: ('A' for Active; 'I' for Inactive)
REMARK    1  A    between atoms: C_1  and  C_2
REMARK    2  A    between atoms: C_2  and  N_3
REMARK    3  A    between atoms: C_5  and  C_6
REMARK    4  A    between atoms: C_6  and  C_7
REMARK    5  A    between atoms: C_6  and  C_9
REMARK    6  A    between atoms: C_6  and  C_11
REMARK    7  A    between atoms: C_7  and  C_8
REMARK    8  A    between atoms: C_9  and  C_10
REMARK    9  A    between atoms: C_14  and  O_15
REMARK   10  A    between atoms: O_15  and  C_16
REMARK   11  A    between atoms: C_16  and  C_17
REMARK   12  A    between atoms: C_17  and  C_18
REMARK   13  A    between atoms: C_17  and  O_19
REMARK   14  A    between atoms: C_20  and  C_21
REMARK   15  A    between atoms: C_24  and  C_25
REMARK   16  A    between atoms: N_27  and  C_28
REMARK   17  A    between atoms: C_28  and  O_29
REMARK   18  A    between atoms: C_28  and  C_30
REMARK   19  A    between atoms: C_30  and  O_31
REMARK                            x       y       z     vdW  Elec       q    Type
REMARK                         _______ _______ _______ _____ _____    ______ ____
ROOT
ATOM      1  C   UNL     1       2.867   4.468  18.825  0.00  0.00    +0.000 C 
ENDROOT
BRANCH   1   2
ATOM      2  C   UNL     1       2.338   5.848  19.289  0.00  0.00    +0.000 A 
ATOM      3  C   UNL     1       1.885   6.108  20.590  0.00  0.00    +0.000 A 
ATOM      4  C   UNL     1       1.413   7.378  20.955  0.00  0.00    +0.000 A 
ATOM      5  C   UNL     1       1.423   8.457  20.060  0.00  0.00    +0.000 A 
ATOM      6  C   UNL     1       1.966   8.260  18.787  0.00  0.00    +0.000 A 
ATOM      7  C   UNL     1       2.272   9.312  17.758  0.00  0.00    +0.000 C 
ATOM      8  C   UNL     1       2.383   6.955  18.422  0.00  0.00    +0.000 A 
BRANCH   5   9
ATOM      9  O   UNL     1       0.931   9.607  20.617  0.00  0.00    +0.000 OA
BRANCH   9  10
ATOM     10  C   UNL     1      -0.459   9.895  20.446  0.00  0.00    +0.000 C 
BRANCH  10  11
ATOM     11  C   UNL     1      -0.672  10.850  19.261  0.00  0.00    +0.000 C 
ATOM     12  C   UNL     1      -1.250  10.162  18.035  0.00  0.00    +0.000 C 
BRANCH  11  13
ATOM     13  O   UNL     1      -1.540  11.921  19.636  0.00  0.00    +0.000 OA
ATOM     14  H   UNL     1      -1.078  12.416  20.339  0.00  0.00    +0.000 HD
ENDBRANCH  11  13
ENDBRANCH  10  11
ENDBRANCH   9  10
ENDBRANCH   5   9
ENDBRANCH   1   2
BRANCH   1  17
ATOM     15  N   UNL     1       6.180   5.318  17.261  0.00  0.00    +0.000 N 
ATOM     16  C   UNL     1       5.320   5.288  18.335  0.00  0.00    +0.000 A 
ATOM     17  C   UNL     1       4.110   4.736  17.950  0.00  0.00    +0.000 A 
ATOM     18  C   UNL     1       4.258   4.479  16.555  0.00  0.00    +0.000 A 
ATOM     19  C   UNL     1       5.533   4.844  16.136  0.00  0.00    +0.000 A 
BRANCH  19  20
ATOM     20  C   UNL     1       6.080   4.790  14.802  0.00  0.00    +0.000 C 
ATOM     21  O   UNL     1       7.025   5.467  14.413  0.00  0.00    +0.000 OA
ATOM     22  N   UNL     1       5.442   3.896  13.967  0.00  0.00    +0.000 N 
ATOM     23  H   UNL     1       4.702   3.320  14.341  0.00  0.00    +0.000 HD
BRANCH  22  24
ATOM     24  C   UNL     1       5.798   3.684  12.586  0.00  0.00    +0.000 C 
BRANCH  24  25
ATOM     25  O   UNL     1       6.424   2.424  12.496  0.00  0.00    +0.000 OA
ATOM     26  H   UNL     1       5.701   1.788  12.349  0.00  0.00    +0.000 HD
ENDBRANCH  24  25
BRANCH  24  27
ATOM     27  C   UNL     1       4.609   3.823  11.619  0.00  0.00    +0.000 C 
BRANCH  27  28
ATOM     28  O   UNL     1       4.199   2.542  11.135  0.00  0.00    +0.000 OA
ATOM     29  H   UNL     1       3.706   2.705  10.311  0.00  0.00    +0.000 HD
ENDBRANCH  27  28
ENDBRANCH  24  27
ENDBRANCH  22  24
ENDBRANCH  19  20
BRANCH  15  31
ATOM     30  C   UNL     1       7.875   6.397  18.705  0.00  0.00    +0.000 C 
ATOM     31  C   UNL     1       7.572   5.709  17.387  0.00  0.00    +0.000 C 
ENDBRANCH  15  31
ENDBRANCH   1  17
BRANCH   1  32
ATOM     32  C   UNL     1       3.267   3.495  19.997  0.00  0.00    +0.000 C 
ATOM     33  C   UNL     1       4.170   2.311  19.652  0.00  0.00    +0.000 C 
ENDBRANCH   1  32
BRANCH   1  34
ATOM     34  C   UNL     1       1.764   3.762  17.952  0.00  0.00    +0.000 C 
ATOM     35  C   UNL     1       0.790   2.821  18.651  0.00  0.00    +0.000 C 
ENDBRANCH   1  34
TORSDOF 14
ENDMDL
MODEL 8
REMARK VINA RESULT:      -7.3      1.716      2.443
REMARK  Name = 
REMARK  19 active torsions:
REMARK  status: ('A' for Active; 'I' for Inactive)
REMARK    1  A    between atoms: C_1  and  C_2
REMARK    2  A    between atoms: C_2  and  N_3
REMARK    3  A    between atoms: C_5  and  C_6
REMARK    4  A    between atoms: C_6  and  C_7
REMARK    5  A    between atoms: C_6  and  C_9
REMARK    6  A    between atoms: C_6  and  C_11
REMARK    7  A    between atoms: C_7  and  C_8
REMARK    8  A    between atoms: C_9  and  C_10
REMARK    9  A    between atoms: C_14  and  O_15
REMARK   10  A    between atoms: O_15  and  C_16
REMARK   11  A    between atoms: C_16  and  C_17
REMARK   12  A    between atoms: C_17  and  C_18
REMARK   13  A    between atoms: C_17  and  O_19
REMARK   14  A    between atoms: C_20  and  C_21
REMARK   15  A    between atoms: C_24  and  C_25
REMARK   16  A    between atoms: N_27  and  C_28
REMARK   17  A    between atoms: C_28  and  O_29
REMARK   18  A    between atoms: C_28  and  C_30
REMARK   19  A    between atoms: C_30  and  O_31
REMARK                            x       y       z     vdW  Elec       q    Type
REMARK                         _______ _______ _______ _____ _____    ______ ____
ROOT
ATOM      1  C   UNL     1       2.978   5.333  18.501  0.00  0.00    +0.000 C 
ENDROOT
BRANCH   1   2
ATOM      2  C   UNL     1       2.420   6.754  18.758  0.00  0.00    +0.000 A 
ATOM      3  C   UNL     1       2.154   7.680  17.739  0.00  0.00    +0.000 A 
ATOM      4  C   UNL     1       1.651   8.957  18.031  0.00  0.00    +0.000 A 
ATOM      5  C   UNL     1       1.339   9.349  19.340  0.00  0.00    +0.000 A 
ATOM      6  C   UNL     1       1.493   8.415  20.368  0.00  0.00    +0.000 A 
ATOM      7  C   UNL     1       1.023   8.545  21.790  0.00  0.00    +0.000 C 
ATOM      8  C   UNL     1       2.057   7.151  20.058  0.00  0.00    +0.000 A 
BRANCH   5   9
ATOM      9  O   UNL     1       0.853  10.627  19.404  0.00  0.00    +0.000 OA
BRANCH   9  10
ATOM     10  C   UNL     1       1.599  11.664  18.761  0.00  0.00    +0.000 C 
BRANCH  10  11
ATOM     11  C   UNL     1       0.824  12.990  18.798  0.00  0.00    +0.000 C 
ATOM     12  C   UNL     1       1.703  14.204  18.545  0.00  0.00    +0.000 C 
BRANCH  11  13
ATOM     13  O   UNL     1      -0.227  12.978  17.830  0.00  0.00    +0.000 OA
ATOM     14  H   UNL     1       0.056  13.570  17.108  0.00  0.00    +0.000 HD
ENDBRANCH  11  13
ENDBRANCH  10  11
ENDBRANCH   9  10
ENDBRANCH   5   9
ENDBRANCH   1   2
BRANCH   1  17
ATOM     15  N   UNL     1       6.207   6.123  16.741  0.00  0.00    +0.000 N 
ATOM     16  C   UNL     1       5.317   6.300  17.776  0.00  0.00    +0.000 A 
ATOM     17  C   UNL     1       4.208   5.494  17.582  0.00  0.00    +0.000 A 
ATOM     18  C   UNL     1       4.444   4.850  16.331  0.00  0.00    +0.000 A 
ATOM     19  C   UNL     1       5.674   5.245  15.817  0.00  0.00    +0.000 A 
BRANCH  19  20
ATOM     20  C   UNL     1       6.277   4.866  14.562  0.00  0.00    +0.000 C 
ATOM     21  O   UNL     1       7.418   5.161  14.225  0.00  0.00    +0.000 OA
ATOM     22  N   UNL     1       5.451   4.128  13.740  0.00  0.00    +0.000 N 
ATOM     23  H   UNL     1       4.537   3.862  14.077  0.00  0.00    +0.000 HD
BRANCH  22  24
ATOM     24  C   UNL     1       5.825   3.656  12.430  0.00  0.00    +0.000 C 
BRANCH  24  25
ATOM     25  O   UNL     1       6.969   2.845  12.581  0.00  0.00    +0.000 OA
ATOM     26  H   UNL     1       7.430   3.195  13.365  0.00  0.00    +0.000 HD
ENDBRANCH  24  25
BRANCH  24  27
ATOM     27  C   UNL     1       4.685   2.936  11.689  0.00  0.00    +0.000 C 
BRANCH  27  28
ATOM     28  O   UNL     1       3.963   3.851  10.862  0.00  0.00    +0.000 OA
ATOM     29  H   UNL     1       3.228   3.345  10.470  0.00  0.00    +0.000 HD
ENDBRANCH  27  28
ENDBRANCH  24  27
ENDBRANCH  22  24
ENDBRANCH  19  20
BRANCH  15  31
ATOM     30  C   UNL     1       7.778   7.609  17.946  0.00  0.00    +0.000 C 
ATOM     31  C   UNL     1       7.528   6.724  16.738  0.00  0.00    +0.000 C 
ENDBRANCH  15  31
ENDBRANCH   1  17
BRANCH   1  32
ATOM     32  C   UNL     1       3.409   4.556  19.801  0.00  0.00    +0.000 C 
ATOM     33  C   UNL     1       4.389   3.394  19.635  0.00  0.00    +0.000 C 
ENDBRANCH   1  32
BRANCH   1  34
ATOM     34  C   UNL     1       1.886   4.478  17.755  0.00  0.00    +0.000 C 
ATOM     35  C   UNL     1       1.083   3.473  18.571  0.00  0.00    +0.000 C 
ENDBRANCH   1  34
TORSDOF 14
ENDMDL
MODEL 9
REMARK VINA RESULT:      -7.2      1.756      2.450
REMARK  Name = 
REMARK  19 active torsions:
REMARK  status: ('A' for Active; 'I' for Inactive)
REMARK    1  A    between atoms: C_1  and  C_2
REMARK    2  A    between atoms: C_2  and  N_3
REMARK    3  A    between atoms: C_5  and  C_6
REMARK    4  A    between atoms: C_6  and  C_7
REMARK    5  A    between atoms: C_6  and  C_9
REMARK    6  A    between atoms: C_6  and  C_11
REMARK    7  A    between atoms: C_7  and  C_8
REMARK    8  A    between atoms: C_9  and  C_10
REMARK    9  A    between atoms: C_14  and  O_15
REMARK   10  A    between atoms: O_15  and  C_16
REMARK   11  A    between atoms: C_16  and  C_17
REMARK   12  A    between atoms: C_17  and  C_18
REMARK   13  A    between atoms: C_17  and  O_19
REMARK   14  A    between atoms: C_20  and  C_21
REMARK   15  A    between atoms: C_24  and  C_25
REMARK   16  A    between atoms: N_27  and  C_28
REMARK   17  A    between atoms: C_28  and  O_29
REMARK   18  A    between atoms: C_28  and  C_30
REMARK   19  A    between atoms: C_30  and  O_31
REMARK                            x       y       z     vdW  Elec       q    Type
REMARK                         _______ _______ _______ _____ _____    ______ ____
ROOT
ATOM      1  C   UNL     1       2.670   5.326  19.038  0.00  0.00    +0.000 C 
ENDROOT
BRANCH   1   2
ATOM      2  C   UNL     1       2.189   6.794  19.159  0.00  0.00    +0.000 A 
ATOM      3  C   UNL     1       2.102   7.675  18.072  0.00  0.00    +0.000 A 
ATOM      4  C   UNL     1       1.662   8.996  18.241  0.00  0.00    +0.000 A 
ATOM      5  C   UNL     1       1.237   9.482  19.485  0.00  0.00    +0.000 A 
ATOM      6  C   UNL     1       1.211   8.601  20.570  0.00  0.00    +0.000 A 
ATOM      7  C   UNL     1       0.600   8.842  21.921  0.00  0.00    +0.000 C 
ATOM      8  C   UNL     1       1.715   7.287  20.388  0.00  0.00    +0.000 A 
BRANCH   5   9
ATOM      9  O   UNL     1       0.839  10.791  19.430  0.00  0.00    +0.000 OA
BRANCH   9  10
ATOM     10  C   UNL     1       1.721  11.737  18.820  0.00  0.00    +0.000 C 
BRANCH  10  11
ATOM     11  C   UNL     1       1.781  13.030  19.647  0.00  0.00    +0.000 C 
ATOM     12  C   UNL     1       0.530  13.883  19.518  0.00  0.00    +0.000 C 
BRANCH  11  13
ATOM     13  O   UNL     1       1.987  12.727  21.029  0.00  0.00    +0.000 OA
ATOM     14  H   UNL     1       2.907  12.413  21.108  0.00  0.00    +0.000 HD
ENDBRANCH  11  13
ENDBRANCH  10  11
ENDBRANCH   9  10
ENDBRANCH   5   9
ENDBRANCH   1   2
BRANCH   1  17
ATOM     15  N   UNL     1       6.344   5.666  18.312  0.00  0.00    +0.000 N 
ATOM     16  C   UNL     1       5.250   5.841  19.128  0.00  0.00    +0.000 A 
ATOM     17  C   UNL     1       4.113   5.371  18.492  0.00  0.00    +0.000 A 
ATOM     18  C   UNL     1       4.566   4.948  17.208  0.00  0.00    +0.000 A 
ATOM     19  C   UNL     1       5.940   5.137  17.102  0.00  0.00    +0.000 A 
BRANCH  19  20
ATOM     20  C   UNL     1       6.787   4.881  15.963  0.00  0.00    +0.000 C 
ATOM     21  O   UNL     1       7.906   4.384  16.029  0.00  0.00    +0.000 OA
ATOM     22  N   UNL     1       6.234   5.251  14.754  0.00  0.00    +0.000 N 
ATOM     23  H   UNL     1       5.290   5.610  14.738  0.00  0.00    +0.000 HD
BRANCH  22  24
ATOM     24  C   UNL     1       6.901   5.113  13.483  0.00  0.00    +0.000 C 
BRANCH  24  25
ATOM     25  O   UNL     1       8.224   5.575  13.645  0.00  0.00    +0.000 OA
ATOM     26  H   UNL     1       8.634   5.493  12.765  0.00  0.00    +0.000 HD
ENDBRANCH  24  25
BRANCH  24  27
ATOM     27  C   UNL     1       6.840   3.687  12.911  0.00  0.00    +0.000 C 
BRANCH  27  28
ATOM     28  O   UNL     1       5.623   3.482  12.191  0.00  0.00    +0.000 OA
ATOM     29  H   UNL     1       5.832   3.625  11.251  0.00  0.00    +0.000 HD
ENDBRANCH  27  28
ENDBRANCH  24  27
ENDBRANCH  22  24
ENDBRANCH  19  20
BRANCH  15  31
ATOM     30  C   UNL     1       8.164   7.339  18.444  0.00  0.00    +0.000 C 
ATOM     31  C   UNL     1       7.700   5.929  18.760  0.00  0.00    +0.000 C 
ENDBRANCH  15  31
ENDBRANCH   1  17
BRANCH   1  32
ATOM     32  C   UNL     1       2.660   4.523  20.393  0.00  0.00    +0.000 C 
ATOM     33  C   UNL     1       3.385   3.177  20.418  0.00  0.00    +0.000 C 
ENDBRANCH   1  32
BRANCH   1  34
ATOM     34  C   UNL     1       1.753   4.568  18.008  0.00  0.00    +0.000 C 
ATOM     35  C   UNL     1       0.886   3.426  18.525  0.00  0.00    +0.000 C 
ENDBRANCH   1  34
TORSDOF 14
ENDMDL
