MODEL 1
REMARK VINA RESULT:      -7.3      0.000      0.000
REMARK  Name = 
REMARK  14 active torsions:
REMARK  status: ('A' for Active; 'I' for Inactive)
REMARK    1  A    between atoms: C_1  and  C_2
REMARK    2  A    between atoms: C_2  and  C_3
REMARK    3  A    between atoms: C_3  and  N_4
REMARK    4  A    between atoms: C_5  and  C_7
REMARK    5  A    between atoms: C_7  and  C_8
REMARK    6  A    between atoms: C_8  and  C_9
REMARK    7  A    between atoms: C_9  and  N_10
REMARK    8  A    between atoms: N_10  and  C_11
REMARK    9  A    between atoms: N_10  and  C_12
REMARK   10  A    between atoms: N_10  and  C_13
REMARK   11  A    between atoms: C_13  and  C_14
REMARK   12  A    between atoms: C_16  and  N_17
REMARK   13  A    between atoms: C_27  and  O_28
REMARK   14  A    between atoms: C_29  and  O_30
REMARK                            x       y       z     vdW  Elec       q    Type
REMARK                         _______ _______ _______ _____ _____    ______ ____
ROOT
ATOM      1  C   UNL     1       4.530   4.683  19.010  0.00  0.00    +0.000 C 
ATOM      2  O   UNL     1       4.187   6.003  19.474  0.00  0.00    +0.000 OA
ATOM      3  C   UNL     1       2.775   6.095  19.711  0.00  0.00    +0.000 C 
ATOM      4  C   UNL     1       2.130   4.850  19.124  0.00  0.00    +0.000 C 
ATOM      5  C   UNL     1       3.266   3.840  19.170  0.00  0.00    +0.000 C 
ENDROOT
BRANCH   3   6
ATOM      6  N   UNL     1       2.280   7.344  19.173  0.00  0.00    +0.000 N 
ATOM      7  C   UNL     1       2.470   7.763  17.882  0.00  0.00    +0.000 A 
ATOM      8  N   UNL     1       1.978   8.965  17.680  0.00  0.00    +0.000 NA
ATOM      9  C   UNL     1       1.453   9.344  18.896  0.00  0.00    +0.000 A 
ATOM     10  C   UNL     1       0.814  10.520  19.318  0.00  0.00    +0.000 A 
ATOM     11  N   UNL     1       0.566  11.591  18.475  0.00  0.00    +0.000 N 
ATOM     12  N   UNL     1       0.427  10.609  20.611  0.00  0.00    +0.000 NA
ATOM     13  C   UNL     1       0.655   9.559  21.424  0.00  0.00    +0.000 A 
ATOM     14  N   UNL     1       1.229   8.369  21.129  0.00  0.00    +0.000 NA
ATOM     15  C   UNL     1       1.618   8.342  19.839  0.00  0.00    +0.000 A 
ATOM     16  H   UNL     1       1.138  11.605  17.635  0.00  0.00    +0.000 HD
ATOM     17  H   UNL     1       0.420  12.468  18.956  0.00  0.00    +0.000 HD
ENDBRANCH   3   6
BRANCH   4  18
ATOM     18  O   UNL     1       1.005   4.435  19.891  0.00  0.00    +0.000 OA
ATOM     19  H   UNL     1       0.392   3.960  19.294  0.00  0.00    +0.000 HD
ENDBRANCH   4  18
BRANCH   5  20
ATOM     20  O   UNL     1       3.262   3.194  20.455  0.00  0.00    +0.000 OA
ATOM     21  H   UNL     1       3.551   3.811  21.153  0.00  0.00    +0.000 HD
ENDBRANCH   5  20
BRANCH   1  22
ATOM     22  C   UNL     1       5.096   4.739  17.568  0.00  0.00    +0.000 C 
BRANCH  22  23
ATOM     23  N   UNL     1       6.561   5.313  17.483  0.00  0.00    +0.000 N 
ATOM     24  C   UNL     1       7.234   5.234  18.853  0.00  0.00    +0.000 C 
ATOM     25  C   UNL     1       6.529   6.774  17.008  0.00  0.00    +0.000 C 
BRANCH  23  26
ATOM     26  C   UNL     1       7.345   4.447  16.444  0.00  0.00    +0.000 C 
BRANCH  26  27
ATOM     27  C   UNL     1       6.631   4.384  15.100  0.00  0.00    +0.000 C 
BRANCH  27  28
ATOM     28  C   UNL     1       7.402   4.985  13.929  0.00  0.00    +0.000 C 
BRANCH  28  30
ATOM     29  N   UNL     1       5.850   3.448  12.858  0.00  0.00    +0.000 N 
ATOM     30  C   UNL     1       6.878   4.334  12.657  0.00  0.00    +0.000 C 
ATOM     31  O   UNL     1       7.342   4.586  11.556  0.00  0.00    +0.000 OA
ATOM     32  H   UNL     1       5.474   3.277  13.780  0.00  0.00    +0.000 HD
BRANCH  29  33
ATOM     33  C   UNL     1       5.265   2.767  11.721  0.00  0.00    +0.000 C 
BRANCH  33  35
ATOM     34  C   UNL     1       3.618   3.765  10.121  0.00  0.00    +0.000 C 
ATOM     35  C   UNL     1       3.811   3.168  11.505  0.00  0.00    +0.000 C 
ENDBRANCH  33  35
ENDBRANCH  29  33
ENDBRANCH  28  30
ENDBRANCH  27  28
ENDBRANCH  26  27
ENDBRANCH  23  26
ENDBRANCH  22  23
ENDBRANCH   1  22
TORSDOF 11
ENDMDL
MODEL 2
REMARK VINA RESULT:      -7.2      0.854      1.243
REMARK  Name = 
REMARK  14 active torsions:
REMARK  status: ('A' for Active; 'I' for Inactive)
REMARK    1  A    between atoms: C_1  and  C_2
REMARK    2  A    between atoms: C_2  and  C_3
REMARK    3  A    between atoms: C_3  and  N_4
REMARK    4  A    between atoms: C_5  and  C_7
REMARK    5  A    between atoms: C_7  and  C_8
REMARK    6  A    between atoms: C_8  and  C_9
REMARK    7  A    between atoms: C_9  and  N_10
REMARK    8  A    between atoms: N_10  and  C_11
REMARK    9  A    between atoms: N_10  and  C_12
REMARK   10  A    between atoms: N_10  and  C_13
REMARK   11  A    between atoms: C_13  and  C_14
REMARK   12  A    between atoms: C_16  and  N_17
REMARK   13  A    between atoms: C_27  and  O_28
REMARK   14  A    between atoms: C_29  and  O_30
REMARK                            x       y       z     vdW  Elec       q    Type
REMARK                         _______ _______ _______ _____ _____    ______ ____
ROOT
ATOM      1  C   UNL     1       4.503   4.443  19.288  0.00  0.00    +0.000 C 
ATOM      2  O   UNL     1       4.165   5.776  19.715  0.00  0.00    +0.000 OA
ATOM      3  C   UNL     1       2.750   5.887  19.924  0.00  0.00    +0.000 C 
ATOM      4  C   UNL     1       2.103   4.635  19.354  0.00  0.00    +0.000 C 
ATOM      5  C   UNL     1       3.229   3.616  19.444  0.00  0.00    +0.000 C 
ENDROOT
BRANCH   3   6
ATOM      6  N   UNL     1       2.277   7.128  19.349  0.00  0.00    +0.000 N 
ATOM      7  C   UNL     1       2.465   7.500  18.043  0.00  0.00    +0.000 A 
ATOM      8  N   UNL     1       1.997   8.705  17.805  0.00  0.00    +0.000 NA
ATOM      9  C   UNL     1       1.490   9.135  19.011  0.00  0.00    +0.000 A 
ATOM     10  C   UNL     1       0.880  10.338  19.400  0.00  0.00    +0.000 A 
ATOM     11  N   UNL     1       0.648  11.385  18.522  0.00  0.00    +0.000 N 
ATOM     12  N   UNL     1       0.505  10.478  20.692  0.00  0.00    +0.000 NA
ATOM     13  C   UNL     1       0.717   9.450  21.537  0.00  0.00    +0.000 A 
ATOM     14  N   UNL     1       1.264   8.239  21.278  0.00  0.00    +0.000 NA
ATOM     15  C   UNL     1       1.642   8.161  19.986  0.00  0.00    +0.000 A 
ATOM     16  H   UNL     1       1.212  11.359  17.679  0.00  0.00    +0.000 HD
ATOM     17  H   UNL     1       0.524  12.281  18.975  0.00  0.00    +0.000 HD
ENDBRANCH   3   6
BRANCH   4  18
ATOM     18  O   UNL     1       0.961   4.248  20.109  0.00  0.00    +0.000 OA
ATOM     19  H   UNL     1       0.236   4.052  19.481  0.00  0.00    +0.000 HD
ENDBRANCH   4  18
BRANCH   5  20
ATOM     20  O   UNL     1       3.195   3.000  20.742  0.00  0.00    +0.000 OA
ATOM     21  H   UNL     1       2.452   2.370  20.808  0.00  0.00    +0.000 HD
ENDBRANCH   5  20
BRANCH   1  22
ATOM     22  C   UNL     1       5.096   4.460  17.855  0.00  0.00    +0.000 C 
BRANCH  22  23
ATOM     23  N   UNL     1       6.402   5.331  17.719  0.00  0.00    +0.000 N 
ATOM     24  C   UNL     1       7.072   5.486  19.084  0.00  0.00    +0.000 C 
ATOM     25  C   UNL     1       6.056   6.718  17.155  0.00  0.00    +0.000 C 
BRANCH  23  26
ATOM     26  C   UNL     1       7.358   4.593  16.728  0.00  0.00    +0.000 C 
BRANCH  26  27
ATOM     27  C   UNL     1       6.960   4.820  15.275  0.00  0.00    +0.000 C 
BRANCH  27  28
ATOM     28  C   UNL     1       5.978   3.800  14.705  0.00  0.00    +0.000 C 
BRANCH  28  30
ATOM     29  N   UNL     1       5.622   2.617  12.609  0.00  0.00    +0.000 N 
ATOM     30  C   UNL     1       6.294   3.643  13.225  0.00  0.00    +0.000 C 
ATOM     31  O   UNL     1       7.083   4.372  12.645  0.00  0.00    +0.000 OA
ATOM     32  H   UNL     1       4.959   2.045  13.112  0.00  0.00    +0.000 HD
BRANCH  29  33
ATOM     33  C   UNL     1       5.837   2.371  11.198  0.00  0.00    +0.000 C 
BRANCH  33  35
ATOM     34  C   UNL     1       6.154  -0.110  11.320  0.00  0.00    +0.000 C 
ATOM     35  C   UNL     1       6.803   1.216  10.962  0.00  0.00    +0.000 C 
ENDBRANCH  33  35
ENDBRANCH  29  33
ENDBRANCH  28  30
ENDBRANCH  27  28
ENDBRANCH  26  27
ENDBRANCH  23  26
ENDBRANCH  22  23
ENDBRANCH   1  22
TORSDOF 11
ENDMDL
MODEL 3
REMARK VINA RESULT:      -7.1      2.801      5.407
REMARK  Name = 
REMARK  14 active torsions:
REMARK  status: ('A' for Active; 'I' for Inactive)
REMARK    1  A    between atoms: C_1  and  C_2
REMARK    2  A    between atoms: C_2  and  C_3
REMARK    3  A    between atoms: C_3  and  N_4
REMARK    4  A    between atoms: C_5  and  C_7
REMARK    5  A    between atoms: C_7  and  C_8
REMARK    6  A    between atoms: C_8  and  C_9
REMARK    7  A    between atoms: C_9  and  N_10
REMARK    8  A    between atoms: N_10  and  C_11
REMARK    9  A    between atoms: N_10  and  C_12
REMARK   10  A    between atoms: N_10  and  C_13
REMARK   11  A    between atoms: C_13  and  C_14
REMARK   12  A    between atoms: C_16  and  N_17
REMARK   13  A    between atoms: C_27  and  O_28
REMARK   14  A    between atoms: C_29  and  O_30
REMARK                            x       y       z     vdW  Elec       q    Type
REMARK                         _______ _______ _______ _____ _____    ______ ____
ROOT
ATOM      1  C   UNL     1       4.526   4.600  18.644  0.00  0.00    +0.000 C 
ATOM      2  O   UNL     1       4.247   5.888  19.226  0.00  0.00    +0.000 OA
ATOM      3  C   UNL     1       2.868   5.967  19.618  0.00  0.00    +0.000 C 
ATOM      4  C   UNL     1       2.153   4.763  19.025  0.00  0.00    +0.000 C 
ATOM      5  C   UNL     1       3.280   3.751  18.884  0.00  0.00    +0.000 C 
ENDROOT
BRANCH   3   6
ATOM      6  N   UNL     1       2.330   7.248  19.218  0.00  0.00    +0.000 N 
ATOM      7  C   UNL     1       2.495   7.807  17.978  0.00  0.00    +0.000 A 
ATOM      8  N   UNL     1       1.964   9.007  17.906  0.00  0.00    +0.000 NA
ATOM      9  C   UNL     1       1.437   9.239  19.158  0.00  0.00    +0.000 A 
ATOM     10  C   UNL     1       0.765  10.343  19.706  0.00  0.00    +0.000 A 
ATOM     11  N   UNL     1       0.476  11.488  18.981  0.00  0.00    +0.000 N 
ATOM     12  N   UNL     1       0.387  10.282  21.003  0.00  0.00    +0.000 NA
ATOM     13  C   UNL     1       0.654   9.160  21.699  0.00  0.00    +0.000 A 
ATOM     14  N   UNL     1       1.263   8.026  21.277  0.00  0.00    +0.000 NA
ATOM     15  C   UNL     1       1.642   8.148  19.989  0.00  0.00    +0.000 A 
ATOM     16  H   UNL     1       1.040  11.608  18.145  0.00  0.00    +0.000 HD
ATOM     17  H   UNL     1       0.307  12.304  19.553  0.00  0.00    +0.000 HD
ENDBRANCH   3   6
BRANCH   4  18
ATOM     18  O   UNL     1       1.114   4.301  19.879  0.00  0.00    +0.000 OA
ATOM     19  H   UNL     1       1.515   3.719  20.556  0.00  0.00    +0.000 HD
ENDBRANCH   4  18
BRANCH   5  20
ATOM     20  O   UNL     1       3.407   3.023  20.117  0.00  0.00    +0.000 OA
ATOM     21  H   UNL     1       2.787   3.367  20.788  0.00  0.00    +0.000 HD
ENDBRANCH   5  20
BRANCH   1  22
ATOM     22  C   UNL     1       4.935   4.749  17.156  0.00  0.00    +0.000 C 
BRANCH  22  23
ATOM     23  N   UNL     1       6.388   5.324  16.951  0.00  0.00    +0.000 N 
ATOM     24  C   UNL     1       6.853   5.071  15.517  0.00  0.00    +0.000 C 
ATOM     25  C   UNL     1       7.363   4.658  17.933  0.00  0.00    +0.000 C 
BRANCH  23  26
ATOM     26  C   UNL     1       6.331   6.858  17.239  0.00  0.00    +0.000 C 
BRANCH  26  27
ATOM     27  C   UNL     1       7.714   7.496  17.215  0.00  0.00    +0.000 C 
BRANCH  27  28
ATOM     28  C   UNL     1       8.244   7.943  18.574  0.00  0.00    +0.000 C 
BRANCH  28  30
ATOM     29  N   UNL     1       9.467   9.873  19.410  0.00  0.00    +0.000 N 
ATOM     30  C   UNL     1       8.577   9.424  18.467  0.00  0.00    +0.000 C 
ATOM     31  O   UNL     1       8.087  10.143  17.610  0.00  0.00    +0.000 OA
ATOM     32  H   UNL     1       9.872   9.248  20.093  0.00  0.00    +0.000 HD
BRANCH  29  33
ATOM     33  C   UNL     1       9.865  11.266  19.407  0.00  0.00    +0.000 C 
BRANCH  33  35
ATOM     34  C   UNL     1       8.840  11.631  21.662  0.00  0.00    +0.000 C 
ATOM     35  C   UNL     1      10.092  11.796  20.817  0.00  0.00    +0.000 C 
ENDBRANCH  33  35
ENDBRANCH  29  33
ENDBRANCH  28  30
ENDBRANCH  27  28
ENDBRANCH  26  27
ENDBRANCH  23  26
ENDBRANCH  22  23
ENDBRANCH   1  22
TORSDOF 11
ENDMDL
MODEL 4
REMARK VINA RESULT:      -7.0      3.171      5.444
REMARK  Name = 
REMARK  14 active torsions:
REMARK  status: ('A' for Active; 'I' for Inactive)
REMARK    1  A    between atoms: C_1  and  C_2
REMARK    2  A    between atoms: C_2  and  C_3
REMARK    3  A    between atoms: C_3  and  N_4
REMARK    4  A    between atoms: C_5  and  C_7
REMARK    5  A    between atoms: C_7  and  C_8
REMARK    6  A    between atoms: C_8  and  C_9
REMARK    7  A    between atoms: C_9  and  N_10
REMARK    8  A    between atoms: N_10  and  C_11
REMARK    9  A    between atoms: N_10  and  C_12
REMARK   10  A    between atoms: N_10  and  C_13
REMARK   11  A    between atoms: C_13  and  C_14
REMARK   12  A    between atoms: C_16  and  N_17
REMARK   13  A    between atoms: C_27  and  O_28
REMARK   14  A    between atoms: C_29  and  O_30
REMARK                            x       y       z     vdW  Elec       q    Type
REMARK                         _______ _______ _______ _____ _____    ______ ____
ROOT
ATOM      1  C   UNL     1       4.672   4.959  19.063  0.00  0.00    +0.000 C 
ATOM      2  O   UNL     1       4.148   6.200  19.572  0.00  0.00    +0.000 OA
ATOM      3  C   UNL     1       2.714   6.164  19.588  0.00  0.00    +0.000 C 
ATOM      4  C   UNL     1       2.277   4.934  18.808  0.00  0.00    +0.000 C 
ATOM      5  C   UNL     1       3.479   4.012  18.952  0.00  0.00    +0.000 C 
ENDROOT
BRANCH   3   6
ATOM      6  N   UNL     1       2.197   7.416  19.082  0.00  0.00    +0.000 N 
ATOM      7  C   UNL     1       2.314   7.836  17.782  0.00  0.00    +0.000 A 
ATOM      8  N   UNL     1       1.820   9.041  17.609  0.00  0.00    +0.000 NA
ATOM      9  C   UNL     1       1.370   9.423  18.854  0.00  0.00    +0.000 A 
ATOM     10  C   UNL     1       0.767  10.604  19.315  0.00  0.00    +0.000 A 
ATOM     11  N   UNL     1       0.477  11.677  18.488  0.00  0.00    +0.000 N 
ATOM     12  N   UNL     1       0.457  10.694  20.628  0.00  0.00    +0.000 NA
ATOM     13  C   UNL     1       0.724   9.641  21.426  0.00  0.00    +0.000 A 
ATOM     14  N   UNL     1       1.271   8.447  21.097  0.00  0.00    +0.000 NA
ATOM     15  C   UNL     1       1.583   8.419  19.786  0.00  0.00    +0.000 A 
ATOM     16  H   UNL     1       0.998  11.688  17.616  0.00  0.00    +0.000 HD
ATOM     17  H   UNL     1       0.366  12.555  18.977  0.00  0.00    +0.000 HD
ENDBRANCH   3   6
BRANCH   4  18
ATOM     18  O   UNL     1       1.091   4.366  19.351  0.00  0.00    +0.000 OA
ATOM     19  H   UNL     1       0.659   3.840  18.648  0.00  0.00    +0.000 HD
ENDBRANCH   4  18
BRANCH   5  20
ATOM     20  O   UNL     1       3.338   3.251  20.163  0.00  0.00    +0.000 OA
ATOM     21  H   UNL     1       2.405   3.001  20.308  0.00  0.00    +0.000 HD
ENDBRANCH   5  20
BRANCH   1  22
ATOM     22  C   UNL     1       5.443   5.192  17.738  0.00  0.00    +0.000 C 
BRANCH  22  23
ATOM     23  N   UNL     1       6.956   5.582  17.943  0.00  0.00    +0.000 N 
ATOM     24  C   UNL     1       7.858   4.558  17.253  0.00  0.00    +0.000 C 
ATOM     25  C   UNL     1       7.289   5.634  19.442  0.00  0.00    +0.000 C 
BRANCH  23  26
ATOM     26  C   UNL     1       7.165   6.998  17.316  0.00  0.00    +0.000 C 
BRANCH  26  27
ATOM     27  C   UNL     1       8.057   7.879  18.180  0.00  0.00    +0.000 C 
BRANCH  27  28
ATOM     28  C   UNL     1       8.023   9.366  17.841  0.00  0.00    +0.000 C 
BRANCH  28  30
ATOM     29  N   UNL     1       9.984  10.791  18.046  0.00  0.00    +0.000 N 
ATOM     30  C   UNL     1       9.046  10.059  18.729  0.00  0.00    +0.000 C 
ATOM     31  O   UNL     1       9.026   9.962  19.946  0.00  0.00    +0.000 OA
ATOM     32  H   UNL     1       9.961  10.869  17.038  0.00  0.00    +0.000 HD
BRANCH  29  33
ATOM     33  C   UNL     1      11.009  11.501  18.784  0.00  0.00    +0.000 C 
BRANCH  33  35
ATOM     34  C   UNL     1      10.881  13.123  16.881  0.00  0.00    +0.000 C 
ATOM     35  C   UNL     1      11.795  12.454  17.893  0.00  0.00    +0.000 C 
ENDBRANCH  33  35
ENDBRANCH  29  33
ENDBRANCH  28  30
ENDBRANCH  27  28
ENDBRANCH  26  27
ENDBRANCH  23  26
ENDBRANCH  22  23
ENDBRANCH   1  22
TORSDOF 11
ENDMDL
MODEL 5
REMARK VINA RESULT:      -6.9      1.477      2.428
REMARK  Name = 
REMARK  14 active torsions:
REMARK  status: ('A' for Active; 'I' for Inactive)
REMARK    1  A    between atoms: C_1  and  C_2
REMARK    2  A    between atoms: C_2  and  C_3
REMARK    3  A    between atoms: C_3  and  N_4
REMARK    4  A    between atoms: C_5  and  C_7
REMARK    5  A    between atoms: C_7  and  C_8
REMARK    6  A    between atoms: C_8  and  C_9
REMARK    7  A    between atoms: C_9  and  N_10
REMARK    8  A    between atoms: N_10  and  C_11
REMARK    9  A    between atoms: N_10  and  C_12
REMARK   10  A    between atoms: N_10  and  C_13
REMARK   11  A    between atoms: C_13  and  C_14
REMARK   12  A    between atoms: C_16  and  N_17
REMARK   13  A    between atoms: C_27  and  O_28
REMARK   14  A    between atoms: C_29  and  O_30
REMARK                            x       y       z     vdW  Elec       q    Type
REMARK                         _______ _______ _______ _____ _____    ______ ____
ROOT
ATOM      1  C   UNL     1       4.790   3.720  17.746  0.00  0.00    +0.000 C 
ATOM      2  O   UNL     1       4.567   4.516  18.925  0.00  0.00    +0.000 OA
ATOM      3  C   UNL     1       3.264   4.249  19.465  0.00  0.00    +0.000 C 
ATOM      4  C   UNL     1       2.501   3.428  18.437  0.00  0.00    +0.000 C 
ATOM      5  C   UNL     1       3.621   2.740  17.672  0.00  0.00    +0.000 C 
ENDROOT
BRANCH   3   6
ATOM      6  N   UNL     1       2.632   5.498  19.831  0.00  0.00    +0.000 N 
ATOM      7  C   UNL     1       1.893   5.689  20.970  0.00  0.00    +0.000 A 
ATOM      8  N   UNL     1       1.375   6.896  21.020  0.00  0.00    +0.000 NA
ATOM      9  C   UNL     1       1.791   7.511  19.860  0.00  0.00    +0.000 A 
ATOM     10  C   UNL     1       1.549   8.790  19.335  0.00  0.00    +0.000 A 
ATOM     11  N   UNL     1       0.789   9.745  19.990  0.00  0.00    +0.000 N 
ATOM     12  N   UNL     1       2.084   9.100  18.131  0.00  0.00    +0.000 NA
ATOM     13  C   UNL     1       2.838   8.175  17.506  0.00  0.00    +0.000 A 
ATOM     14  N   UNL     1       3.165   6.928  17.920  0.00  0.00    +0.000 NA
ATOM     15  C   UNL     1       2.588   6.661  19.109  0.00  0.00    +0.000 A 
ATOM     16  H   UNL     1       0.171   9.372  20.704  0.00  0.00    +0.000 HD
ATOM     17  H   UNL     1       0.421  10.465  19.383  0.00  0.00    +0.000 HD
ENDBRANCH   3   6
BRANCH   4  18
ATOM     18  O   UNL     1       1.621   2.501  19.060  0.00  0.00    +0.000 OA
ATOM     19  H   UNL     1       0.966   2.212  18.393  0.00  0.00    +0.000 HD
ENDBRANCH   4  18
BRANCH   5  20
ATOM     20  O   UNL     1       3.960   1.516  18.346  0.00  0.00    +0.000 OA
ATOM     21  H   UNL     1       3.292   1.298  19.024  0.00  0.00    +0.000 HD
ENDBRANCH   5  20
BRANCH   1  22
ATOM     22  C   UNL     1       4.959   4.625  16.498  0.00  0.00    +0.000 C 
BRANCH  22  23
ATOM     23  N   UNL     1       6.416   5.200  16.323  0.00  0.00    +0.000 N 
ATOM     24  C   UNL     1       7.403   4.387  17.161  0.00  0.00    +0.000 C 
ATOM     25  C   UNL     1       6.459   6.672  16.762  0.00  0.00    +0.000 C 
BRANCH  23  26
ATOM     26  C   UNL     1       6.782   5.100  14.808  0.00  0.00    +0.000 C 
BRANCH  26  27
ATOM     27  C   UNL     1       5.880   4.122  14.066  0.00  0.00    +0.000 C 
BRANCH  27  28
ATOM     28  C   UNL     1       6.580   3.262  13.018  0.00  0.00    +0.000 C 
BRANCH  28  30
ATOM     29  N   UNL     1       4.520   3.742  11.815  0.00  0.00    +0.000 N 
ATOM     30  C   UNL     1       5.527   2.830  12.008  0.00  0.00    +0.000 C 
ATOM     31  O   UNL     1       5.583   1.758  11.425  0.00  0.00    +0.000 OA
ATOM     32  H   UNL     1       4.514   4.630  12.297  0.00  0.00    +0.000 HD
BRANCH  29  33
ATOM     33  C   UNL     1       3.461   3.444  10.873  0.00  0.00    +0.000 C 
BRANCH  33  35
ATOM     34  C   UNL     1       2.049   4.388   9.033  0.00  0.00    +0.000 C 
ATOM     35  C   UNL     1       3.377   4.485   9.764  0.00  0.00    +0.000 C 
ENDBRANCH  33  35
ENDBRANCH  29  33
ENDBRANCH  28  30
ENDBRANCH  27  28
ENDBRANCH  26  27
ENDBRANCH  23  26
ENDBRANCH  22  23
ENDBRANCH   1  22
TORSDOF 11
ENDMDL
MODEL 6
REMARK VINA RESULT:      -6.8      1.253      1.946
REMARK  Name = 
REMARK  14 active torsions:
REMARK  status: ('A' for Active; 'I' for Inactive)
REMARK    1  A    between atoms: C_1  and  C_2
REMARK    2  A    between atoms: C_2  and  C_3
REMARK    3  A    between atoms: C_3  and  N_4
REMARK    4  A    between atoms: C_5  and  C_7
REMARK    5  A    between atoms: C_7  and  C_8
REMARK    6  A    between atoms: C_8  and  C_9
REMARK    7  A    between atoms: C_9  and  N_10
REMARK    8  A    between atoms: N_10  and  C_11
REMARK    9  A    between atoms: N_10  and  C_12
REMARK   10  A    between atoms: N_10  and  C_13
REMARK   11  A    between atoms: C_13  and  C_14
REMARK   12  A    between atoms: C_16  and  N_17
REMARK   13  A    between atoms: C_27  and  O_28
REMARK   14  A    between atoms: C_29  and  O_30
REMARK                            x       y       z     vdW  Elec       q    Type
REMARK                         _______ _______ _______ _____ _____    ______ ____
ROOT
ATOM      1  C   UNL     1       4.718   4.771  18.125  0.00  0.00    +0.000 C 
ATOM      2  O   UNL     1       4.256   5.406  19.332  0.00  0.00    +0.000 OA
ATOM      3  C   UNL     1       2.847   5.191  19.498  0.00  0.00    +0.000 C 
ATOM      4  C   UNL     1       2.316   4.604  18.199  0.00  0.00    +0.000 C 
ATOM      5  C   UNL     1       3.549   3.929  17.618  0.00  0.00    +0.000 C 
ENDROOT
BRANCH   3   6
ATOM      6  N   UNL     1       2.218   6.428  19.904  0.00  0.00    +0.000 N 
ATOM      7  C   UNL     1       1.502   6.592  21.061  0.00  0.00    +0.000 A 
ATOM      8  N   UNL     1       0.980   7.796  21.149  0.00  0.00    +0.000 NA
ATOM      9  C   UNL     1       1.369   8.437  19.993  0.00  0.00    +0.000 A 
ATOM     10  C   UNL     1       1.111   9.726  19.501  0.00  0.00    +0.000 A 
ATOM     11  N   UNL     1       0.361  10.663  20.192  0.00  0.00    +0.000 N 
ATOM     12  N   UNL     1       1.620  10.063  18.294  0.00  0.00    +0.000 NA
ATOM     13  C   UNL     1       2.364   9.155  17.633  0.00  0.00    +0.000 A 
ATOM     14  N   UNL     1       2.705   7.901  18.014  0.00  0.00    +0.000 NA
ATOM     15  C   UNL     1       2.154   7.607  19.208  0.00  0.00    +0.000 A 
ATOM     16  H   UNL     1      -0.241  10.272  20.911  0.00  0.00    +0.000 HD
ATOM     17  H   UNL     1      -0.023  11.394  19.608  0.00  0.00    +0.000 HD
ENDBRANCH   3   6
BRANCH   4  18
ATOM     18  O   UNL     1       1.256   3.686  18.437  0.00  0.00    +0.000 OA
ATOM     19  H   UNL     1       0.413   4.182  18.401  0.00  0.00    +0.000 HD
ENDBRANCH   4  18
BRANCH   5  20
ATOM     20  O   UNL     1       3.638   2.593  18.144  0.00  0.00    +0.000 OA
ATOM     21  H   UNL     1       4.178   2.576  18.957  0.00  0.00    +0.000 HD
ENDBRANCH   5  20
BRANCH   1  22
ATOM     22  C   UNL     1       5.244   5.825  17.117  0.00  0.00    +0.000 C 
BRANCH  22  23
ATOM     23  N   UNL     1       6.812   5.824  16.956  0.00  0.00    +0.000 N 
ATOM     24  C   UNL     1       7.394   4.529  17.524  0.00  0.00    +0.000 C 
ATOM     25  C   UNL     1       7.419   7.028  17.692  0.00  0.00    +0.000 C 
BRANCH  23  26
ATOM     26  C   UNL     1       7.128   5.936  15.430  0.00  0.00    +0.000 C 
BRANCH  26  27
ATOM     27  C   UNL     1       6.961   4.602  14.714  0.00  0.00    +0.000 C 
BRANCH  27  28
ATOM     28  C   UNL     1       5.538   4.278  14.270  0.00  0.00    +0.000 C 
BRANCH  28  30
ATOM     29  N   UNL     1       4.443   3.723  12.169  0.00  0.00    +0.000 N 
ATOM     30  C   UNL     1       5.621   3.685  12.871  0.00  0.00    +0.000 C 
ATOM     31  O   UNL     1       6.655   3.214  12.423  0.00  0.00    +0.000 OA
ATOM     32  H   UNL     1       3.610   4.139  12.561  0.00  0.00    +0.000 HD
BRANCH  29  33
ATOM     33  C   UNL     1       4.399   3.191  10.823  0.00  0.00    +0.000 C 
BRANCH  33  35
ATOM     34  C   UNL     1       2.805   4.525   9.427  0.00  0.00    +0.000 C 
ATOM     35  C   UNL     1       2.996   3.251  10.232  0.00  0.00    +0.000 C 
ENDBRANCH  33  35
ENDBRANCH  29  33
ENDBRANCH  28  30
ENDBRANCH  27  28
ENDBRANCH  26  27
ENDBRANCH  23  26
ENDBRANCH  22  23
ENDBRANCH   1  22
TORSDOF 11
ENDMDL
MODEL 7
REMARK VINA RESULT:      -6.8      2.770      5.368
REMARK  Name = 
REMARK  14 active torsions:
REMARK  status: ('A' for Active; 'I' for Inactive)
REMARK    1  A    between atoms: C_1  and  C_2
REMARK    2  A    between atoms: C_2  and  C_3
REMARK    3  A    between atoms: C_3  and  N_4
REMARK    4  A    between atoms: C_5  and  C_7
REMARK    5  A    between atoms: C_7  and  C_8
REMARK    6  A    between atoms: C_8  and  C_9
REMARK    7  A    between atoms: C_9  and  N_10
REMARK    8  A    between atoms: N_10  and  C_11
REMARK    9  A    between atoms: N_10  and  C_12
REMARK   10  A    between atoms: N_10  and  C_13
REMARK   11  A    between atoms: C_13  and  C_14
REMARK   12  A    between atoms: C_16  and  N_17
REMARK   13  A    between atoms: C_27  and  O_28
REMARK   14  A    between atoms: C_29  and  O_30
REMARK                            x       y       z     vdW  Elec       q    Type
REMARK                         _______ _______ _______ _____ _____    ______ ____
ROOT
ATOM      1  C   UNL     1       3.832   4.625  18.697  0.00  0.00    +0.000 C 
ATOM      2  O   UNL     1       3.689   5.667  19.682  0.00  0.00    +0.000 OA
ATOM      3  C   UNL     1       2.395   5.593  20.299  0.00  0.00    +0.000 C 
ATOM      4  C   UNL     1       1.558   4.613  19.492  0.00  0.00    +0.000 C 
ATOM      5  C   UNL     1       2.616   3.716  18.867  0.00  0.00    +0.000 C 
ENDROOT
BRANCH   3   6
ATOM      6  N   UNL     1       1.837   6.923  20.402  0.00  0.00    +0.000 N 
ATOM      7  C   UNL     1       1.055   7.359  21.439  0.00  0.00    +0.000 A 
ATOM      8  N   UNL     1       0.624   8.586  21.246  0.00  0.00    +0.000 NA
ATOM      9  C   UNL     1       1.144   8.958  20.026  0.00  0.00    +0.000 A 
ATOM     10  C   UNL     1       1.024  10.137  19.273  0.00  0.00    +0.000 A 
ATOM     11  N   UNL     1       0.301  11.238  19.702  0.00  0.00    +0.000 N 
ATOM     12  N   UNL     1       1.642  10.194  18.071  0.00  0.00    +0.000 NA
ATOM     13  C   UNL     1       2.358   9.127  17.665  0.00  0.00    +0.000 A 
ATOM     14  N   UNL     1       2.573   7.956  18.310  0.00  0.00    +0.000 NA
ATOM     15  C   UNL     1       1.916   7.941  19.487  0.00  0.00    +0.000 A 
ATOM     16  H   UNL     1      -0.380  11.036  20.429  0.00  0.00    +0.000 HD
ATOM     17  H   UNL     1       0.018  11.860  18.957  0.00  0.00    +0.000 HD
ENDBRANCH   3   6
BRANCH   4  18
ATOM     18  O   UNL     1       0.657   3.890  20.323  0.00  0.00    +0.000 OA
ATOM     19  H   UNL     1       0.070   3.362  19.744  0.00  0.00    +0.000 HD
ENDBRANCH   4  18
BRANCH   5  20
ATOM     20  O   UNL     1       2.919   2.649  19.782  0.00  0.00    +0.000 OA
ATOM     21  H   UNL     1       3.792   2.787  20.197  0.00  0.00    +0.000 HD
ENDBRANCH   5  20
BRANCH   1  22
ATOM     22  C   UNL     1       3.999   5.229  17.280  0.00  0.00    +0.000 C 
BRANCH  22  23
ATOM     23  N   UNL     1       5.501   5.419  16.843  0.00  0.00    +0.000 N 
ATOM     24  C   UNL     1       5.631   5.244  15.330  0.00  0.00    +0.000 C 
ATOM     25  C   UNL     1       6.392   4.392  17.558  0.00  0.00    +0.000 C 
BRANCH  23  26
ATOM     26  C   UNL     1       5.933   6.861  17.261  0.00  0.00    +0.000 C 
BRANCH  26  27
ATOM     27  C   UNL     1       7.441   7.055  17.163  0.00  0.00    +0.000 C 
BRANCH  27  28
ATOM     28  C   UNL     1       8.115   7.541  18.443  0.00  0.00    +0.000 C 
BRANCH  28  30
ATOM     29  N   UNL     1       9.203   9.575  19.218  0.00  0.00    +0.000 N 
ATOM     30  C   UNL     1       8.330   9.041  18.303  0.00  0.00    +0.000 C 
ATOM     31  O   UNL     1       7.767   9.704  17.446  0.00  0.00    +0.000 OA
ATOM     32  H   UNL     1       9.669   8.995  19.902  0.00  0.00    +0.000 HD
BRANCH  29  33
ATOM     33  C   UNL     1       9.492  10.994  19.182  0.00  0.00    +0.000 C 
BRANCH  33  35
ATOM     34  C   UNL     1      11.283  12.340  18.066  0.00  0.00    +0.000 C 
ATOM     35  C   UNL     1      10.988  11.268  19.101  0.00  0.00    +0.000 C 
ENDBRANCH  33  35
ENDBRANCH  29  33
ENDBRANCH  28  30
ENDBRANCH  27  28
ENDBRANCH  26  27
ENDBRANCH  23  26
ENDBRANCH  22  23
ENDBRANCH   1  22
TORSDOF 11
ENDMDL
MODEL 8
REMARK VINA RESULT:      -6.8      1.079      1.809
REMARK  Name = 
REMARK  14 active torsions:
REMARK  status: ('A' for Active; 'I' for Inactive)
REMARK    1  A    between atoms: C_1  and  C_2
REMARK    2  A    between atoms: C_2  and  C_3
REMARK    3  A    between atoms: C_3  and  N_4
REMARK    4  A    between atoms: C_5  and  C_7
REMARK    5  A    between atoms: C_7  and  C_8
REMARK    6  A    between atoms: C_8  and  C_9
REMARK    7  A    between atoms: C_9  and  N_10
REMARK    8  A    between atoms: N_10  and  C_11
REMARK    9  A    between atoms: N_10  and  C_12
REMARK   10  A    between atoms: N_10  and  C_13
REMARK   11  A    between atoms: C_13  and  C_14
REMARK   12  A    between atoms: C_16  and  N_17
REMARK   13  A    between atoms: C_27  and  O_28
REMARK   14  A    between atoms: C_29  and  O_30
REMARK                            x       y       z     vdW  Elec       q    Type
REMARK                         _______ _______ _______ _____ _____    ______ ____
ROOT
ATOM      1  C   UNL     1       3.700   4.495  18.753  0.00  0.00    +0.000 C 
ATOM      2  O   UNL     1       3.618   5.585  19.692  0.00  0.00    +0.000 OA
ATOM      3  C   UNL     1       2.364   5.545  20.389  0.00  0.00    +0.000 C 
ATOM      4  C   UNL     1       1.479   4.530  19.684  0.00  0.00    +0.000 C 
ATOM      5  C   UNL     1       2.496   3.600  19.040  0.00  0.00    +0.000 C 
ENDROOT
BRANCH   3   6
ATOM      6  N   UNL     1       1.814   6.881  20.460  0.00  0.00    +0.000 N 
ATOM      7  C   UNL     1       1.049   7.352  21.495  0.00  0.00    +0.000 A 
ATOM      8  N   UNL     1       0.621   8.575  21.272  0.00  0.00    +0.000 NA
ATOM      9  C   UNL     1       1.125   8.908  20.034  0.00  0.00    +0.000 A 
ATOM     10  C   UNL     1       0.999  10.064  19.248  0.00  0.00    +0.000 A 
ATOM     11  N   UNL     1       0.288  11.181  19.654  0.00  0.00    +0.000 N 
ATOM     12  N   UNL     1       1.601  10.082  18.036  0.00  0.00    +0.000 NA
ATOM     13  C   UNL     1       2.306   9.000  17.652  0.00  0.00    +0.000 A 
ATOM     14  N   UNL     1       2.524   7.847  18.328  0.00  0.00    +0.000 NA
ATOM     15  C   UNL     1       1.884   7.871  19.515  0.00  0.00    +0.000 A 
ATOM     16  H   UNL     1      -0.382  11.005  20.396  0.00  0.00    +0.000 HD
ATOM     17  H   UNL     1      -0.002  11.783  18.895  0.00  0.00    +0.000 HD
ENDBRANCH   3   6
BRANCH   4  18
ATOM     18  O   UNL     1       0.629   3.852  20.601  0.00  0.00    +0.000 OA
ATOM     19  H   UNL     1       1.050   3.886  21.484  0.00  0.00    +0.000 HD
ENDBRANCH   4  18
BRANCH   5  20
ATOM     20  O   UNL     1       2.854   2.578  19.986  0.00  0.00    +0.000 OA
ATOM     21  H   UNL     1       2.437   2.746  20.852  0.00  0.00    +0.000 HD
ENDBRANCH   5  20
BRANCH   1  22
ATOM     22  C   UNL     1       3.781   5.029  17.300  0.00  0.00    +0.000 C 
BRANCH  22  23
ATOM     23  N   UNL     1       5.248   5.089  16.726  0.00  0.00    +0.000 N 
ATOM     24  C   UNL     1       6.225   4.468  17.725  0.00  0.00    +0.000 C 
ATOM     25  C   UNL     1       5.649   6.547  16.452  0.00  0.00    +0.000 C 
BRANCH  23  26
ATOM     26  C   UNL     1       5.261   4.287  15.386  0.00  0.00    +0.000 C 
BRANCH  26  27
ATOM     27  C   UNL     1       6.666   4.160  14.811  0.00  0.00    +0.000 C 
BRANCH  27  28
ATOM     28  C   UNL     1       6.854   4.760  13.421  0.00  0.00    +0.000 C 
BRANCH  28  30
ATOM     29  N   UNL     1       5.053   3.659  12.210  0.00  0.00    +0.000 N 
ATOM     30  C   UNL     1       6.410   3.713  12.409  0.00  0.00    +0.000 C 
ATOM     31  O   UNL     1       7.203   2.986  11.832  0.00  0.00    +0.000 OA
ATOM     32  H   UNL     1       4.425   4.289  12.687  0.00  0.00    +0.000 HD
BRANCH  29  33
ATOM     33  C   UNL     1       4.511   2.704  11.266  0.00  0.00    +0.000 C 
BRANCH  33  35
ATOM     34  C   UNL     1       3.188   4.193   9.748  0.00  0.00    +0.000 C 
ATOM     35  C   UNL     1       3.115   3.096  10.797  0.00  0.00    +0.000 C 
ENDBRANCH  33  35
ENDBRANCH  29  33
ENDBRANCH  28  30
ENDBRANCH  27  28
ENDBRANCH  26  27
ENDBRANCH  23  26
ENDBRANCH  22  23
ENDBRANCH   1  22
TORSDOF 11
ENDMDL
MODEL 9
REMARK VINA RESULT:      -6.7      1.110      1.456
REMARK  Name = 
REMARK  14 active torsions:
REMARK  status: ('A' for Active; 'I' for Inactive)
REMARK    1  A    between atoms: C_1  and  C_2
REMARK    2  A    between atoms: C_2  and  C_3
REMARK    3  A    between atoms: C_3  and  N_4
REMARK    4  A    between atoms: C_5  and  C_7
REMARK    5  A    between atoms: C_7  and  C_8
REMARK    6  A    between atoms: C_8  and  C_9
REMARK    7  A    between atoms: C_9  and  N_10
REMARK    8  A    between atoms: N_10  and  C_11
REMARK    9  A    between atoms: N_10  and  C_12
REMARK   10  A    between atoms: N_10  and  C_13
REMARK   11  A    between atoms: C_13  and  C_14
REMARK   12  A    between atoms: C_16  and  N_17
REMARK   13  A    between atoms: C_27  and  O_28
REMARK   14  A    between atoms: C_29  and  O_30
REMARK                            x       y       z     vdW  Elec       q    Type
REMARK                         _______ _______ _______ _____ _____    ______ ____
ROOT
ATOM      1  C   UNL     1       4.031   4.922  18.704  0.00  0.00    +0.000 C 
ATOM      2  O   UNL     1       3.893   6.210  19.333  0.00  0.00    +0.000 OA
ATOM      3  C   UNL     1       2.628   6.301  20.006  0.00  0.00    +0.000 C 
ATOM      4  C   UNL     1       1.793   5.107  19.574  0.00  0.00    +0.000 C 
ATOM      5  C   UNL     1       2.854   4.084  19.198  0.00  0.00    +0.000 C 
ENDROOT
BRANCH   3   6
ATOM      6  N   UNL     1       2.031   7.589  19.729  0.00  0.00    +0.000 N 
ATOM      7  C   UNL     1       2.012   8.188  18.497  0.00  0.00    +0.000 A 
ATOM      8  N   UNL     1       1.469   9.384  18.541  0.00  0.00    +0.000 NA
ATOM      9  C   UNL     1       1.129   9.572  19.863  0.00  0.00    +0.000 A 
ATOM     10  C   UNL     1       0.537  10.651  20.537  0.00  0.00    +0.000 A 
ATOM     11  N   UNL     1       0.140  11.816  19.899  0.00  0.00    +0.000 N 
ATOM     12  N   UNL     1       0.351  10.547  21.873  0.00  0.00    +0.000 NA
ATOM     13  C   UNL     1       0.722   9.406  22.487  0.00  0.00    +0.000 A 
ATOM     14  N   UNL     1       1.270   8.292  21.945  0.00  0.00    +0.000 NA
ATOM     15  C   UNL     1       1.457   8.458  20.620  0.00  0.00    +0.000 A 
ATOM     16  H   UNL     1       0.576  11.968  18.995  0.00  0.00    +0.000 HD
ATOM     17  H   UNL     1       0.051  12.612  20.516  0.00  0.00    +0.000 HD
ENDBRANCH   3   6
BRANCH   4  18
ATOM     18  O   UNL     1       0.951   4.652  20.626  0.00  0.00    +0.000 OA
ATOM     19  H   UNL     1       1.479   4.634  21.450  0.00  0.00    +0.000 HD
ENDBRANCH   4  18
BRANCH   5  20
ATOM     20  O   UNL     1       3.230   3.350  20.376  0.00  0.00    +0.000 OA
ATOM     21  H   UNL     1       2.588   3.499  21.096  0.00  0.00    +0.000 HD
ENDBRANCH   5  20
BRANCH   1  22
ATOM     22  C   UNL     1       4.121   5.072  17.163  0.00  0.00    +0.000 C 
BRANCH  22  23
ATOM     23  N   UNL     1       5.557   5.465  16.646  0.00  0.00    +0.000 N 
ATOM     24  C   UNL     1       6.617   4.627  17.360  0.00  0.00    +0.000 C 
ATOM     25  C   UNL     1       5.821   6.956  16.902  0.00  0.00    +0.000 C 
BRANCH  23  26
ATOM     26  C   UNL     1       5.594   5.188  15.109  0.00  0.00    +0.000 C 
BRANCH  26  27
ATOM     27  C   UNL     1       6.825   4.387  14.702  0.00  0.00    +0.000 C 
BRANCH  27  28
ATOM     28  C   UNL     1       7.550   4.900  13.462  0.00  0.00    +0.000 C 
BRANCH  28  30
ATOM     29  N   UNL     1       6.304   3.001  12.591  0.00  0.00    +0.000 N 
ATOM     30  C   UNL     1       7.002   4.137  12.266  0.00  0.00    +0.000 C 
ATOM     31  O   UNL     1       7.175   4.512  11.116  0.00  0.00    +0.000 OA
ATOM     32  H   UNL     1       6.160   2.729  13.554  0.00  0.00    +0.000 HD
BRANCH  29  33
ATOM     33  C   UNL     1       5.730   2.191  11.537  0.00  0.00    +0.000 C 
BRANCH  33  35
ATOM     34  C   UNL     1       6.070  -0.276  11.283  0.00  0.00    +0.000 C 
ATOM     35  C   UNL     1       6.684   1.098  11.074  0.00  0.00    +0.000 C 
ENDBRANCH  33  35
ENDBRANCH  29  33
ENDBRANCH  28  30
ENDBRANCH  27  28
ENDBRANCH  26  27
ENDBRANCH  23  26
ENDBRANCH  22  23
ENDBRANCH   1  22
TORSDOF 11
ENDMDL
