MODEL 1
REMARK VINA RESULT:      -7.7      0.000      0.000
REMARK  Name = 
REMARK  11 active torsions:
REMARK  status: ('A' for Active; 'I' for Inactive)
REMARK    1  A    between atoms: C_1  and  C_2
REMARK    2  A    between atoms: C_8  and  N_9
REMARK    3  A    between atoms: N_9  and  C_10
REMARK    4  A    between atoms: C_10  and  C_11
REMARK    5  A    between atoms: C_13  and  C_14
REMARK    6  A    between atoms: C_14  and  O_16
REMARK    7  A    between atoms: C_18  and  N_19
REMARK    8  A    between atoms: N_19  and  C_20
REMARK    9  A    between atoms: N_19  and  C_21
REMARK   10  A    between atoms: C_21  and  C_22
REMARK   11  A    between atoms: C_22  and  O_23
REMARK                            x       y       z     vdW  Elec       q    Type
REMARK                         _______ _______ _______ _____ _____    ______ ____
ROOT
ATOM      1  C   UNL     1       3.416   4.184  18.210  0.00  0.00    +0.000 A 
ATOM      2  C   UNL     1       3.225   3.283  19.252  0.00  0.00    +0.000 A 
ATOM      3  C   UNL     1       2.636   3.751  20.417  0.00  0.00    +0.000 A 
ATOM      4  C   UNL     1       2.271   5.091  20.515  0.00  0.00    +0.000 A 
ATOM      5  C   UNL     1       2.492   5.952  19.446  0.00  0.00    +0.000 A 
ATOM      6  N   UNL     1       3.055   5.494  18.302  0.00  0.00    +0.000 NA
ENDROOT
BRANCH   3   7
ATOM      7  C   UNL     1       2.268   2.864  21.547  0.00  0.00    +0.000 C 
ATOM      8  O   UNL     1       1.151   2.854  22.034  0.00  0.00    +0.000 OA
BRANCH   7   9
ATOM      9  O   UNL     1       3.276   2.092  22.005  0.00  0.00    +0.000 OA
ATOM     10  H   UNL     1       3.858   1.712  21.324  0.00  0.00    +0.000 HD
ENDBRANCH   7   9
ENDBRANCH   3   7
BRANCH   5  11
ATOM     11  N   UNL     1       2.047   7.260  19.509  0.00  0.00    +0.000 N 
ATOM     12  C   UNL     1       1.568   7.838  20.756  0.00  0.00    +0.000 C 
BRANCH  11  13
ATOM     13  C   UNL     1       2.363   8.181  18.408  0.00  0.00    +0.000 C 
BRANCH  13  14
ATOM     14  C   UNL     1       1.461   9.424  18.485  0.00  0.00    +0.000 C 
BRANCH  14  15
ATOM     15  O   UNL     1       1.741  10.311  17.400  0.00  0.00    +0.000 OA
ATOM     16  H   UNL     1       1.934  11.168  17.826  0.00  0.00    +0.000 HD
ENDBRANCH  14  15
ENDBRANCH  13  14
ENDBRANCH  11  13
ENDBRANCH   5  11
BRANCH   1  17
ATOM     17  C   UNL     1       4.008   3.687  16.893  0.00  0.00    +0.000 C 
BRANCH  17  18
ATOM     18  N   UNL     1       5.474   3.693  16.944  0.00  0.00    +0.000 N 
ATOM     19  H   UNL     1       5.769   2.894  17.507  0.00  0.00    +0.000 HD
BRANCH  18  27
ATOM     20  C   UNL     1       5.368   6.415  15.470  0.00  0.00    +0.000 C 
ATOM     21  C   UNL     1       6.169   6.102  16.702  0.00  0.00    +0.000 A 
ATOM     22  C   UNL     1       6.991   7.147  17.186  0.00  0.00    +0.000 A 
ATOM     23  C   UNL     1       7.827   6.952  18.275  0.00  0.00    +0.000 A 
ATOM     24  F   UNL     1       8.611   7.957  18.693  0.00  0.00    +0.000 F 
ATOM     25  C   UNL     1       7.873   5.730  18.912  0.00  0.00    +0.000 A 
ATOM     26  C   UNL     1       7.061   4.688  18.448  0.00  0.00    +0.000 A 
ATOM     27  C   UNL     1       6.167   4.848  17.361  0.00  0.00    +0.000 A 
ENDBRANCH  18  27
ENDBRANCH  17  18
ENDBRANCH   1  17
TORSDOF 9
ENDMDL
MODEL 2
REMARK VINA RESULT:      -7.3      3.536      6.513
REMARK  Name = 
REMARK  11 active torsions:
REMARK  status: ('A' for Active; 'I' for Inactive)
REMARK    1  A    between atoms: C_1  and  C_2
REMARK    2  A    between atoms: C_8  and  N_9
REMARK    3  A    between atoms: N_9  and  C_10
REMARK    4  A    between atoms: C_10  and  C_11
REMARK    5  A    between atoms: C_13  and  C_14
REMARK    6  A    between atoms: C_14  and  O_16
REMARK    7  A    between atoms: C_18  and  N_19
REMARK    8  A    between atoms: N_19  and  C_20
REMARK    9  A    between atoms: N_19  and  C_21
REMARK   10  A    between atoms: C_21  and  C_22
REMARK   11  A    between atoms: C_22  and  O_23
REMARK                            x       y       z     vdW  Elec       q    Type
REMARK                         _______ _______ _______ _____ _____    ______ ____
ROOT
ATOM      1  C   UNL     1       4.315   6.290  17.155  0.00  0.00    +0.000 A 
ATOM      2  C   UNL     1       5.196   6.170  16.086  0.00  0.00    +0.000 A 
ATOM      3  C   UNL     1       5.675   4.906  15.776  0.00  0.00    +0.000 A 
ATOM      4  C   UNL     1       5.278   3.812  16.540  0.00  0.00    +0.000 A 
ATOM      5  C   UNL     1       4.401   3.988  17.604  0.00  0.00    +0.000 A 
ATOM      6  N   UNL     1       3.921   5.220  17.901  0.00  0.00    +0.000 NA
ENDROOT
BRANCH   3   7
ATOM      7  C   UNL     1       6.519   4.632  14.588  0.00  0.00    +0.000 C 
ATOM      8  O   UNL     1       6.241   3.770  13.773  0.00  0.00    +0.000 OA
BRANCH   7   9
ATOM      9  O   UNL     1       7.628   5.396  14.500  0.00  0.00    +0.000 OA
ATOM     10  H   UNL     1       8.399   5.078  15.001  0.00  0.00    +0.000 HD
ENDBRANCH   7   9
ENDBRANCH   3   7
BRANCH   5  11
ATOM     11  N   UNL     1       3.935   2.890  18.305  0.00  0.00    +0.000 N 
ATOM     12  C   UNL     1       4.348   2.637  19.678  0.00  0.00    +0.000 C 
BRANCH  11  13
ATOM     13  C   UNL     1       2.768   2.155  17.798  0.00  0.00    +0.000 C 
BRANCH  13  14
ATOM     14  C   UNL     1       1.476   2.754  18.376  0.00  0.00    +0.000 C 
BRANCH  14  15
ATOM     15  O   UNL     1       1.076   3.900  17.621  0.00  0.00    +0.000 OA
ATOM     16  H   UNL     1       0.658   3.533  16.819  0.00  0.00    +0.000 HD
ENDBRANCH  14  15
ENDBRANCH  13  14
ENDBRANCH  11  13
ENDBRANCH   5  11
BRANCH   1  17
ATOM     17  C   UNL     1       3.724   7.659  17.486  0.00  0.00    +0.000 C 
BRANCH  17  18
ATOM     18  N   UNL     1       2.316   7.540  17.878  0.00  0.00    +0.000 N 
ATOM     19  H   UNL     1       1.746   7.823  17.080  0.00  0.00    +0.000 HD
BRANCH  18  27
ATOM     20  C   UNL     1       1.956   6.126  20.611  0.00  0.00    +0.000 C 
ATOM     21  C   UNL     1       1.640   7.563  20.305  0.00  0.00    +0.000 A 
ATOM     22  C   UNL     1       1.070   8.308  21.363  0.00  0.00    +0.000 A 
ATOM     23  C   UNL     1       0.673   9.624  21.178  0.00  0.00    +0.000 A 
ATOM     24  F   UNL     1       0.115  10.294  22.197  0.00  0.00    +0.000 F 
ATOM     25  C   UNL     1       0.828  10.235  19.952  0.00  0.00    +0.000 A 
ATOM     26  C   UNL     1       1.395   9.512  18.896  0.00  0.00    +0.000 A 
ATOM     27  C   UNL     1       1.847   8.177  19.045  0.00  0.00    +0.000 A 
ENDBRANCH  18  27
ENDBRANCH  17  18
ENDBRANCH   1  17
TORSDOF 9
ENDMDL
MODEL 3
REMARK VINA RESULT:      -7.2      3.469      6.503
REMARK  Name = 
REMARK  11 active torsions:
REMARK  status: ('A' for Active; 'I' for Inactive)
REMARK    1  A    between atoms: C_1  and  C_2
REMARK    2  A    between atoms: C_8  and  N_9
REMARK    3  A    between atoms: N_9  and  C_10
REMARK    4  A    between atoms: C_10  and  C_11
REMARK    5  A    between atoms: C_13  and  C_14
REMARK    6  A    between atoms: C_14  and  O_16
REMARK    7  A    between atoms: C_18  and  N_19
REMARK    8  A    between atoms: N_19  and  C_20
REMARK    9  A    between atoms: N_19  and  C_21
REMARK   10  A    between atoms: C_21  and  C_22
REMARK   11  A    between atoms: C_22  and  O_23
REMARK                            x       y       z     vdW  Elec       q    Type
REMARK                         _______ _______ _______ _____ _____    ______ ____
ROOT
ATOM      1  C   UNL     1       2.279   5.795  19.607  0.00  0.00    +0.000 A 
ATOM      2  C   UNL     1       1.630   4.567  19.537  0.00  0.00    +0.000 A 
ATOM      3  C   UNL     1       2.026   3.677  18.551  0.00  0.00    +0.000 A 
ATOM      4  C   UNL     1       3.038   4.036  17.665  0.00  0.00    +0.000 A 
ATOM      5  C   UNL     1       3.649   5.280  17.773  0.00  0.00    +0.000 A 
ATOM      6  N   UNL     1       3.272   6.147  18.743  0.00  0.00    +0.000 NA
ENDROOT
BRANCH   3   7
ATOM      7  C   UNL     1       1.498   2.295  18.453  0.00  0.00    +0.000 C 
ATOM      8  O   UNL     1       0.305   2.048  18.464  0.00  0.00    +0.000 OA
BRANCH   7   9
ATOM      9  O   UNL     1       2.445   1.337  18.379  0.00  0.00    +0.000 OA
ATOM     10  H   UNL     1       2.125   0.421  18.452  0.00  0.00    +0.000 HD
ENDBRANCH   7   9
ENDBRANCH   3   7
BRANCH   5  11
ATOM     11  N   UNL     1       4.714   5.601  16.950  0.00  0.00    +0.000 N 
ATOM     12  C   UNL     1       5.295   6.936  16.949  0.00  0.00    +0.000 C 
BRANCH  11  13
ATOM     13  C   UNL     1       5.485   4.522  16.318  0.00  0.00    +0.000 C 
BRANCH  13  14
ATOM     14  C   UNL     1       6.939   4.551  16.817  0.00  0.00    +0.000 C 
BRANCH  14  15
ATOM     15  O   UNL     1       7.009   4.116  18.177  0.00  0.00    +0.000 OA
ATOM     16  H   UNL     1       6.900   3.147  18.132  0.00  0.00    +0.000 HD
ENDBRANCH  14  15
ENDBRANCH  13  14
ENDBRANCH  11  13
ENDBRANCH   5  11
BRANCH   1  17
ATOM     17  C   UNL     1       1.905   6.775  20.718  0.00  0.00    +0.000 C 
BRANCH  17  18
ATOM     18  N   UNL     1       1.616   8.104  20.168  0.00  0.00    +0.000 N 
ATOM     19  H   UNL     1       2.508   8.565  19.984  0.00  0.00    +0.000 HD
BRANCH  18  27
ATOM     20  C   UNL     1       0.147  10.489  18.846  0.00  0.00    +0.000 C 
ATOM     21  C   UNL     1       0.092  10.105  20.297  0.00  0.00    +0.000 A 
ATOM     22  C   UNL     1      -0.662  10.962  21.133  0.00  0.00    +0.000 A 
ATOM     23  C   UNL     1      -0.728  10.747  22.502  0.00  0.00    +0.000 A 
ATOM     24  F   UNL     1      -1.433  11.593  23.269  0.00  0.00    +0.000 F 
ATOM     25  C   UNL     1      -0.058   9.689  23.077  0.00  0.00    +0.000 A 
ATOM     26  C   UNL     1       0.687   8.829  22.262  0.00  0.00    +0.000 A 
ATOM     27  C   UNL     1       0.759   8.987  20.856  0.00  0.00    +0.000 A 
ENDBRANCH  18  27
ENDBRANCH  17  18
ENDBRANCH   1  17
TORSDOF 9
ENDMDL
MODEL 4
REMARK VINA RESULT:      -7.2      3.910      6.881
REMARK  Name = 
REMARK  11 active torsions:
REMARK  status: ('A' for Active; 'I' for Inactive)
REMARK    1  A    between atoms: C_1  and  C_2
REMARK    2  A    between atoms: C_8  and  N_9
REMARK    3  A    between atoms: N_9  and  C_10
REMARK    4  A    between atoms: C_10  and  C_11
REMARK    5  A    between atoms: C_13  and  C_14
REMARK    6  A    between atoms: C_14  and  O_16
REMARK    7  A    between atoms: C_18  and  N_19
REMARK    8  A    between atoms: N_19  and  C_20
REMARK    9  A    between atoms: N_19  and  C_21
REMARK   10  A    between atoms: C_21  and  C_22
REMARK   11  A    between atoms: C_22  and  O_23
REMARK                            x       y       z     vdW  Elec       q    Type
REMARK                         _______ _______ _______ _____ _____    ______ ____
ROOT
ATOM      1  C   UNL     1       4.916   4.161  16.323  0.00  0.00    +0.000 A 
ATOM      2  C   UNL     1       5.387   4.092  15.016  0.00  0.00    +0.000 A 
ATOM      3  C   UNL     1       6.492   4.859  14.680  0.00  0.00    +0.000 A 
ATOM      4  C   UNL     1       7.082   5.674  15.642  0.00  0.00    +0.000 A 
ATOM      5  C   UNL     1       6.568   5.713  16.933  0.00  0.00    +0.000 A 
ATOM      6  N   UNL     1       5.496   4.955  17.267  0.00  0.00    +0.000 NA
ENDROOT
BRANCH   3   7
ATOM      7  C   UNL     1       7.159   4.777  13.359  0.00  0.00    +0.000 C 
ATOM      8  O   UNL     1       6.775   4.028  12.477  0.00  0.00    +0.000 OA
BRANCH   7   9
ATOM      9  O   UNL     1       8.237   5.577  13.225  0.00  0.00    +0.000 OA
ATOM     10  H   UNL     1       8.312   6.043  12.374  0.00  0.00    +0.000 HD
ENDBRANCH   7   9
ENDBRANCH   3   7
BRANCH   5  11
ATOM     11  N   UNL     1       7.209   6.453  17.911  0.00  0.00    +0.000 N 
ATOM     12  C   UNL     1       7.707   7.794  17.642  0.00  0.00    +0.000 C 
BRANCH  11  13
ATOM     13  C   UNL     1       7.099   6.035  19.315  0.00  0.00    +0.000 C 
BRANCH  13  14
ATOM     14  C   UNL     1       8.368   5.279  19.741  0.00  0.00    +0.000 C 
BRANCH  14  15
ATOM     15  O   UNL     1       8.414   5.141  21.163  0.00  0.00    +0.000 OA
ATOM     16  H   UNL     1       7.962   5.938  21.502  0.00  0.00    +0.000 HD
ENDBRANCH  14  15
ENDBRANCH  13  14
ENDBRANCH  11  13
ENDBRANCH   5  11
BRANCH   1  17
ATOM     17  C   UNL     1       3.737   3.285  16.739  0.00  0.00    +0.000 C 
BRANCH  17  18
ATOM     18  N   UNL     1       2.646   4.101  17.284  0.00  0.00    +0.000 N 
ATOM     19  H   UNL     1       2.926   5.080  17.214  0.00  0.00    +0.000 HD
BRANCH  18  27
ATOM     20  C   UNL     1       2.942   6.034  19.686  0.00  0.00    +0.000 C 
ATOM     21  C   UNL     1       2.280   4.685  19.707  0.00  0.00    +0.000 A 
ATOM     22  C   UNL     1       1.805   4.250  20.966  0.00  0.00    +0.000 A 
ATOM     23  C   UNL     1       1.238   2.994  21.121  0.00  0.00    +0.000 A 
ATOM     24  F   UNL     1       0.820   2.604  22.334  0.00  0.00    +0.000 F 
ATOM     25  C   UNL     1       1.126   2.139  20.045  0.00  0.00    +0.000 A 
ATOM     26  C   UNL     1       1.587   2.558  18.791  0.00  0.00    +0.000 A 
ATOM     27  C   UNL     1       2.142   3.843  18.575  0.00  0.00    +0.000 A 
ENDBRANCH  18  27
ENDBRANCH  17  18
ENDBRANCH   1  17
TORSDOF 9
ENDMDL
MODEL 5
REMARK VINA RESULT:      -7.1      3.470      6.823
REMARK  Name = 
REMARK  11 active torsions:
REMARK  status: ('A' for Active; 'I' for Inactive)
REMARK    1  A    between atoms: C_1  and  C_2
REMARK    2  A    between atoms: C_8  and  N_9
REMARK    3  A    between atoms: N_9  and  C_10
REMARK    4  A    between atoms: C_10  and  C_11
REMARK    5  A    between atoms: C_13  and  C_14
REMARK    6  A    between atoms: C_14  and  O_16
REMARK    7  A    between atoms: C_18  and  N_19
REMARK    8  A    between atoms: N_19  and  C_20
REMARK    9  A    between atoms: N_19  and  C_21
REMARK   10  A    between atoms: C_21  and  C_22
REMARK   11  A    between atoms: C_22  and  O_23
REMARK                            x       y       z     vdW  Elec       q    Type
REMARK                         _______ _______ _______ _____ _____    ______ ____
ROOT
ATOM      1  C   UNL     1       3.730   6.486  17.815  0.00  0.00    +0.000 A 
ATOM      2  C   UNL     1       4.938   6.478  17.127  0.00  0.00    +0.000 A 
ATOM      3  C   UNL     1       5.641   5.284  17.059  0.00  0.00    +0.000 A 
ATOM      4  C   UNL     1       5.131   4.149  17.684  0.00  0.00    +0.000 A 
ATOM      5  C   UNL     1       3.921   4.213  18.366  0.00  0.00    +0.000 A 
ATOM      6  N   UNL     1       3.227   5.375  18.422  0.00  0.00    +0.000 NA
ENDROOT
BRANCH   3   7
ATOM      7  C   UNL     1       6.874   5.119  16.254  0.00  0.00    +0.000 C 
ATOM      8  O   UNL     1       6.978   5.552  15.119  0.00  0.00    +0.000 OA
BRANCH   7   9
ATOM      9  O   UNL     1       7.857   4.430  16.869  0.00  0.00    +0.000 OA
ATOM     10  H   UNL     1       7.716   4.248  17.815  0.00  0.00    +0.000 HD
ENDBRANCH   7   9
ENDBRANCH   3   7
BRANCH   5  11
ATOM     11  N   UNL     1       3.371   3.065  18.908  0.00  0.00    +0.000 N 
ATOM     12  C   UNL     1       3.373   1.806  18.177  0.00  0.00    +0.000 C 
BRANCH  11  13
ATOM     13  C   UNL     1       3.083   3.017  20.348  0.00  0.00    +0.000 C 
BRANCH  13  14
ATOM     14  C   UNL     1       1.570   2.863  20.577  0.00  0.00    +0.000 C 
BRANCH  14  15
ATOM     15  O   UNL     1       0.857   3.917  19.925  0.00  0.00    +0.000 OA
ATOM     16  H   UNL     1       0.545   3.521  19.088  0.00  0.00    +0.000 HD
ENDBRANCH  14  15
ENDBRANCH  13  14
ENDBRANCH  11  13
ENDBRANCH   5  11
BRANCH   1  17
ATOM     17  C   UNL     1       2.904   7.770  17.857  0.00  0.00    +0.000 C 
BRANCH  17  18
ATOM     18  N   UNL     1       2.251   7.929  19.161  0.00  0.00    +0.000 N 
ATOM     19  H   UNL     1       1.855   7.025  19.422  0.00  0.00    +0.000 HD
BRANCH  18  27
ATOM     20  C   UNL     1       1.189   8.811  21.934  0.00  0.00    +0.000 C 
ATOM     21  C   UNL     1       0.756   9.355  20.602  0.00  0.00    +0.000 A 
ATOM     22  C   UNL     1      -0.277  10.321  20.637  0.00  0.00    +0.000 A 
ATOM     23  C   UNL     1      -0.806  10.844  19.466  0.00  0.00    +0.000 A 
ATOM     24  F   UNL     1      -1.801  11.740  19.535  0.00  0.00    +0.000 F 
ATOM     25  C   UNL     1      -0.331  10.431  18.239  0.00  0.00    +0.000 A 
ATOM     26  C   UNL     1       0.695   9.480  18.189  0.00  0.00    +0.000 A 
ATOM     27  C   UNL     1       1.290   8.942  19.356  0.00  0.00    +0.000 A 
ENDBRANCH  18  27
ENDBRANCH  17  18
ENDBRANCH   1  17
TORSDOF 9
ENDMDL
MODEL 6
REMARK VINA RESULT:      -7.1      3.435      6.573
REMARK  Name = 
REMARK  11 active torsions:
REMARK  status: ('A' for Active; 'I' for Inactive)
REMARK    1  A    between atoms: C_1  and  C_2
REMARK    2  A    between atoms: C_8  and  N_9
REMARK    3  A    between atoms: N_9  and  C_10
REMARK    4  A    between atoms: C_10  and  C_11
REMARK    5  A    between atoms: C_13  and  C_14
REMARK    6  A    between atoms: C_14  and  O_16
REMARK    7  A    between atoms: C_18  and  N_19
REMARK    8  A    between atoms: N_19  and  C_20
REMARK    9  A    between atoms: N_19  and  C_21
REMARK   10  A    between atoms: C_21  and  C_22
REMARK   11  A    between atoms: C_22  and  O_23
REMARK                            x       y       z     vdW  Elec       q    Type
REMARK                         _______ _______ _______ _____ _____    ______ ____
ROOT
ATOM      1  C   UNL     1       4.105   6.402  17.233  0.00  0.00    +0.000 A 
ATOM      2  C   UNL     1       5.147   6.236  16.327  0.00  0.00    +0.000 A 
ATOM      3  C   UNL     1       5.549   4.943  16.029  0.00  0.00    +0.000 A 
ATOM      4  C   UNL     1       4.918   3.865  16.644  0.00  0.00    +0.000 A 
ATOM      5  C   UNL     1       3.886   4.087  17.549  0.00  0.00    +0.000 A 
ATOM      6  N   UNL     1       3.483   5.349  17.833  0.00  0.00    +0.000 NA
ENDROOT
BRANCH   3   7
ATOM      7  C   UNL     1       6.561   4.633  14.990  0.00  0.00    +0.000 C 
ATOM      8  O   UNL     1       7.525   5.349  14.781  0.00  0.00    +0.000 OA
BRANCH   7   9
ATOM      9  O   UNL     1       6.312   3.512  14.282  0.00  0.00    +0.000 OA
ATOM     10  H   UNL     1       5.696   2.882  14.694  0.00  0.00    +0.000 HD
ENDBRANCH   7   9
ENDBRANCH   3   7
BRANCH   5  11
ATOM     11  N   UNL     1       3.199   3.015  18.091  0.00  0.00    +0.000 N 
ATOM     12  C   UNL     1       3.845   2.086  19.006  0.00  0.00    +0.000 C 
BRANCH  11  13
ATOM     13  C   UNL     1       1.732   2.991  18.018  0.00  0.00    +0.000 C 
BRANCH  13  14
ATOM     14  C   UNL     1       1.157   2.226  19.221  0.00  0.00    +0.000 C 
BRANCH  14  15
ATOM     15  O   UNL     1       0.471   3.120  20.101  0.00  0.00    +0.000 OA
ATOM     16  H   UNL     1       0.875   2.962  20.976  0.00  0.00    +0.000 HD
ENDBRANCH  14  15
ENDBRANCH  13  14
ENDBRANCH  11  13
ENDBRANCH   5  11
BRANCH   1  17
ATOM     17  C   UNL     1       3.600   7.811  17.539  0.00  0.00    +0.000 C 
BRANCH  17  18
ATOM     18  N   UNL     1       2.185   7.787  17.924  0.00  0.00    +0.000 N 
ATOM     19  H   UNL     1       1.639   8.106  17.122  0.00  0.00    +0.000 HD
BRANCH  18  27
ATOM     20  C   UNL     1       1.866   6.438  20.694  0.00  0.00    +0.000 C 
ATOM     21  C   UNL     1       1.565   7.872  20.364  0.00  0.00    +0.000 A 
ATOM     22  C   UNL     1       1.032   8.648  21.419  0.00  0.00    +0.000 A 
ATOM     23  C   UNL     1       0.651   9.966  21.214  0.00  0.00    +0.000 A 
ATOM     24  F   UNL     1       0.126  10.667  22.231  0.00  0.00    +0.000 F 
ATOM     25  C   UNL     1       0.786  10.549  19.972  0.00  0.00    +0.000 A 
ATOM     26  C   UNL     1       1.318   9.794  18.920  0.00  0.00    +0.000 A 
ATOM     27  C   UNL     1       1.752   8.456  19.087  0.00  0.00    +0.000 A 
ENDBRANCH  18  27
ENDBRANCH  17  18
ENDBRANCH   1  17
TORSDOF 9
ENDMDL
MODEL 7
REMARK VINA RESULT:      -7.1      3.492      6.286
REMARK  Name = 
REMARK  11 active torsions:
REMARK  status: ('A' for Active; 'I' for Inactive)
REMARK    1  A    between atoms: C_1  and  C_2
REMARK    2  A    between atoms: C_8  and  N_9
REMARK    3  A    between atoms: N_9  and  C_10
REMARK    4  A    between atoms: C_10  and  C_11
REMARK    5  A    between atoms: C_13  and  C_14
REMARK    6  A    between atoms: C_14  and  O_16
REMARK    7  A    between atoms: C_18  and  N_19
REMARK    8  A    between atoms: N_19  and  C_20
REMARK    9  A    between atoms: N_19  and  C_21
REMARK   10  A    between atoms: C_21  and  C_22
REMARK   11  A    between atoms: C_22  and  O_23
REMARK                            x       y       z     vdW  Elec       q    Type
REMARK                         _______ _______ _______ _____ _____    ______ ____
ROOT
ATOM      1  C   UNL     1       4.787   3.706  17.583  0.00  0.00    +0.000 A 
ATOM      2  C   UNL     1       5.565   4.298  18.572  0.00  0.00    +0.000 A 
ATOM      3  C   UNL     1       6.743   4.921  18.187  0.00  0.00    +0.000 A 
ATOM      4  C   UNL     1       7.114   4.925  16.845  0.00  0.00    +0.000 A 
ATOM      5  C   UNL     1       6.303   4.311  15.897  0.00  0.00    +0.000 A 
ATOM      6  N   UNL     1       5.146   3.712  16.269  0.00  0.00    +0.000 NA
ENDROOT
BRANCH   3   7
ATOM      7  C   UNL     1       7.592   5.691  19.128  0.00  0.00    +0.000 C 
ATOM      8  O   UNL     1       7.754   5.355  20.288  0.00  0.00    +0.000 OA
BRANCH   7   9
ATOM      9  O   UNL     1       8.144   6.804  18.601  0.00  0.00    +0.000 OA
ATOM     10  H   UNL     1       7.677   7.636  18.791  0.00  0.00    +0.000 HD
ENDBRANCH   7   9
ENDBRANCH   3   7
BRANCH   5  11
ATOM     11  N   UNL     1       6.626   4.393  14.554  0.00  0.00    +0.000 N 
ATOM     12  C   UNL     1       5.792   3.772  13.535  0.00  0.00    +0.000 C 
BRANCH  11  13
ATOM     13  C   UNL     1       7.618   5.382  14.113  0.00  0.00    +0.000 C 
BRANCH  13  14
ATOM     14  C   UNL     1       7.966   5.156  12.633  0.00  0.00    +0.000 C 
BRANCH  14  15
ATOM     15  O   UNL     1       8.241   6.403  11.989  0.00  0.00    +0.000 OA
ATOM     16  H   UNL     1       9.186   6.350  11.745  0.00  0.00    +0.000 HD
ENDBRANCH  14  15
ENDBRANCH  13  14
ENDBRANCH  11  13
ENDBRANCH   5  11
BRANCH   1  17
ATOM     17  C   UNL     1       3.456   3.062  17.966  0.00  0.00    +0.000 C 
BRANCH  17  18
ATOM     18  N   UNL     1       2.353   4.019  17.825  0.00  0.00    +0.000 N 
ATOM     19  H   UNL     1       2.373   4.377  16.870  0.00  0.00    +0.000 HD
BRANCH  18  27
ATOM     20  C   UNL     1       1.181   3.756  20.681  0.00  0.00    +0.000 C 
ATOM     21  C   UNL     1       1.666   5.021  20.032  0.00  0.00    +0.000 A 
ATOM     22  C   UNL     1       1.510   6.203  20.793  0.00  0.00    +0.000 A 
ATOM     23  C   UNL     1       1.857   7.440  20.271  0.00  0.00    +0.000 A 
ATOM     24  F   UNL     1       1.674   8.544  21.011  0.00  0.00    +0.000 F 
ATOM     25  C   UNL     1       2.365   7.543  18.993  0.00  0.00    +0.000 A 
ATOM     26  C   UNL     1       2.531   6.381  18.230  0.00  0.00    +0.000 A 
ATOM     27  C   UNL     1       2.222   5.092  18.731  0.00  0.00    +0.000 A 
ENDBRANCH  18  27
ENDBRANCH  17  18
ENDBRANCH   1  17
TORSDOF 9
ENDMDL
MODEL 8
REMARK VINA RESULT:      -7.1      3.194      6.439
REMARK  Name = 
REMARK  11 active torsions:
REMARK  status: ('A' for Active; 'I' for Inactive)
REMARK    1  A    between atoms: C_1  and  C_2
REMARK    2  A    between atoms: C_8  and  N_9
REMARK    3  A    between atoms: N_9  and  C_10
REMARK    4  A    between atoms: C_10  and  C_11
REMARK    5  A    between atoms: C_13  and  C_14
REMARK    6  A    between atoms: C_14  and  O_16
REMARK    7  A    between atoms: C_18  and  N_19
REMARK    8  A    between atoms: N_19  and  C_20
REMARK    9  A    between atoms: N_19  and  C_21
REMARK   10  A    between atoms: C_21  and  C_22
REMARK   11  A    between atoms: C_22  and  O_23
REMARK                            x       y       z     vdW  Elec       q    Type
REMARK                         _______ _______ _______ _____ _____    ______ ____
ROOT
ATOM      1  C   UNL     1       3.436   6.304  17.764  0.00  0.00    +0.000 A 
ATOM      2  C   UNL     1       2.666   5.233  18.205  0.00  0.00    +0.000 A 
ATOM      3  C   UNL     1       3.211   3.961  18.123  0.00  0.00    +0.000 A 
ATOM      4  C   UNL     1       4.490   3.793  17.599  0.00  0.00    +0.000 A 
ATOM      5  C   UNL     1       5.215   4.896  17.165  0.00  0.00    +0.000 A 
ATOM      6  N   UNL     1       4.689   6.141  17.255  0.00  0.00    +0.000 NA
ENDROOT
BRANCH   3   7
ATOM      7  C   UNL     1       2.540   2.759  18.673  0.00  0.00    +0.000 C 
ATOM      8  O   UNL     1       2.249   2.653  19.851  0.00  0.00    +0.000 OA
BRANCH   7   9
ATOM      9  O   UNL     1       2.305   1.786  17.768  0.00  0.00    +0.000 OA
ATOM     10  H   UNL     1       2.337   0.875  18.111  0.00  0.00    +0.000 HD
ENDBRANCH   7   9
ENDBRANCH   3   7
BRANCH   5  11
ATOM     11  N   UNL     1       6.519   4.739  16.728  0.00  0.00    +0.000 N 
ATOM     12  C   UNL     1       6.899   5.034  15.354  0.00  0.00    +0.000 C 
BRANCH  11  13
ATOM     13  C   UNL     1       7.596   4.596  17.718  0.00  0.00    +0.000 C 
BRANCH  13  14
ATOM     14  C   UNL     1       7.607   5.808  18.663  0.00  0.00    +0.000 C 
BRANCH  14  15
ATOM     15  O   UNL     1       7.308   5.401  20.000  0.00  0.00    +0.000 OA
ATOM     16  H   UNL     1       7.005   6.217  20.444  0.00  0.00    +0.000 HD
ENDBRANCH  14  15
ENDBRANCH  13  14
ENDBRANCH  11  13
ENDBRANCH   5  11
BRANCH   1  17
ATOM     17  C   UNL     1       2.886   7.722  17.894  0.00  0.00    +0.000 C 
BRANCH  17  18
ATOM     18  N   UNL     1       2.248   7.918  19.201  0.00  0.00    +0.000 N 
ATOM     19  H   UNL     1       1.859   7.020  19.494  0.00  0.00    +0.000 HD
BRANCH  18  27
ATOM     20  C   UNL     1       1.159   8.827  21.954  0.00  0.00    +0.000 C 
ATOM     21  C   UNL     1       0.738   9.357  20.613  0.00  0.00    +0.000 A 
ATOM     22  C   UNL     1      -0.296  10.322  20.628  0.00  0.00    +0.000 A 
ATOM     23  C   UNL     1      -0.815  10.831  19.447  0.00  0.00    +0.000 A 
ATOM     24  F   UNL     1      -1.812  11.727  19.497  0.00  0.00    +0.000 F 
ATOM     25  C   UNL     1      -0.329  10.407  18.229  0.00  0.00    +0.000 A 
ATOM     26  C   UNL     1       0.698   9.457  18.198  0.00  0.00    +0.000 A 
ATOM     27  C   UNL     1       1.283   8.931  19.377  0.00  0.00    +0.000 A 
ENDBRANCH  18  27
ENDBRANCH  17  18
ENDBRANCH   1  17
TORSDOF 9
ENDMDL
MODEL 9
REMARK VINA RESULT:      -7.1      3.363      6.453
REMARK  Name = 
REMARK  11 active torsions:
REMARK  status: ('A' for Active; 'I' for Inactive)
REMARK    1  A    between atoms: C_1  and  C_2
REMARK    2  A    between atoms: C_8  and  N_9
REMARK    3  A    between atoms: N_9  and  C_10
REMARK    4  A    between atoms: C_10  and  C_11
REMARK    5  A    between atoms: C_13  and  C_14
REMARK    6  A    between atoms: C_14  and  O_16
REMARK    7  A    between atoms: C_18  and  N_19
REMARK    8  A    between atoms: N_19  and  C_20
REMARK    9  A    between atoms: N_19  and  C_21
REMARK   10  A    between atoms: C_21  and  C_22
REMARK   11  A    between atoms: C_22  and  O_23
REMARK                            x       y       z     vdW  Elec       q    Type
REMARK                         _______ _______ _______ _____ _____    ______ ____
ROOT
ATOM      1  C   UNL     1       1.984   5.720  19.998  0.00  0.00    +0.000 A 
ATOM      2  C   UNL     1       1.367   4.505  19.721  0.00  0.00    +0.000 A 
ATOM      3  C   UNL     1       1.958   3.674  18.781  0.00  0.00    +0.000 A 
ATOM      4  C   UNL     1       3.127   4.079  18.142  0.00  0.00    +0.000 A 
ATOM      5  C   UNL     1       3.699   5.308  18.450  0.00  0.00    +0.000 A 
ATOM      6  N   UNL     1       3.130   6.116  19.377  0.00  0.00    +0.000 NA
ENDROOT
BRANCH   3   7
ATOM      7  C   UNL     1       1.466   2.306  18.491  0.00  0.00    +0.000 C 
ATOM      8  O   UNL     1       0.279   2.029  18.469  0.00  0.00    +0.000 OA
BRANCH   7   9
ATOM      9  O   UNL     1       2.437   1.394  18.281  0.00  0.00    +0.000 OA
ATOM     10  H   UNL     1       2.388   0.914  17.435  0.00  0.00    +0.000 HD
ENDBRANCH   7   9
ENDBRANCH   3   7
BRANCH   5  11
ATOM     11  N   UNL     1       4.908   5.670  17.882  0.00  0.00    +0.000 N 
ATOM     12  C   UNL     1       5.053   6.911  17.136  0.00  0.00    +0.000 C 
BRANCH  11  13
ATOM     13  C   UNL     1       6.135   4.980  18.304  0.00  0.00    +0.000 C 
BRANCH  13  14
ATOM     14  C   UNL     1       7.006   4.659  17.079  0.00  0.00    +0.000 C 
BRANCH  14  15
ATOM     15  O   UNL     1       8.250   4.085  17.488  0.00  0.00    +0.000 OA
ATOM     16  H   UNL     1       8.039   3.150  17.677  0.00  0.00    +0.000 HD
ENDBRANCH  14  15
ENDBRANCH  13  14
ENDBRANCH  11  13
ENDBRANCH   5  11
BRANCH   1  17
ATOM     17  C   UNL     1       1.390   6.631  21.070  0.00  0.00    +0.000 C 
BRANCH  17  18
ATOM     18  N   UNL     1       1.935   7.989  20.963  0.00  0.00    +0.000 N 
ATOM     19  H   UNL     1       2.406   8.205  21.842  0.00  0.00    +0.000 HD
BRANCH  18  27
ATOM     20  C   UNL     1       0.066   9.488  22.926  0.00  0.00    +0.000 C 
ATOM     21  C   UNL     1       0.210   9.757  21.455  0.00  0.00    +0.000 A 
ATOM     22  C   UNL     1      -0.641  10.755  20.925  0.00  0.00    +0.000 A 
ATOM     23  C   UNL     1      -0.646  11.042  19.568  0.00  0.00    +0.000 A 
ATOM     24  F   UNL     1      -1.483  11.978  19.095  0.00  0.00    +0.000 F 
ATOM     25  C   UNL     1       0.182  10.356  18.704  0.00  0.00    +0.000 A 
ATOM     26  C   UNL     1       1.033   9.370  19.216  0.00  0.00    +0.000 A 
ATOM     27  C   UNL     1       1.099   9.064  20.597  0.00  0.00    +0.000 A 
ENDBRANCH  18  27
ENDBRANCH  17  18
ENDBRANCH   1  17
TORSDOF 9
ENDMDL
