MODEL 1
REMARK VINA RESULT:      -9.2      0.000      0.000
REMARK  Name = 
REMARK  8 active torsions:
REMARK  status: ('A' for Active; 'I' for Inactive)
REMARK    1  A    between atoms: C_2  and  C_3
REMARK    2  A    between atoms: C_3  and  C_4
REMARK    3  A    between atoms: C_7  and  N_8
REMARK    4  A    between atoms: N_8  and  C_9
REMARK    5  A    between atoms: C_18  and  N_19
REMARK    6  A    between atoms: N_19  and  C_20
REMARK    7  A    between atoms: C_23  and  C_24
REMARK    8  A    between atoms: C_24  and  C_25
REMARK                            x       y       z     vdW  Elec       q    Type
REMARK                         _______ _______ _______ _____ _____    ______ ____
ROOT
ATOM      1  C   UNL     1       5.063   3.945  18.458  0.00  0.00    +0.000 A 
ATOM      2  N   UNL     1       4.705   3.306  19.576  0.00  0.00    +0.000 NA
ATOM      3  C   UNL     1       3.376   3.108  19.709  0.00  0.00    +0.000 A 
ATOM      4  C   UNL     1       2.554   3.770  20.632  0.00  0.00    +0.000 A 
ATOM      5  C   UNL     1       1.159   3.604  20.610  0.00  0.00    +0.000 A 
ATOM      6  C   UNL     1       0.659   2.596  19.806  0.00  0.00    +0.000 A 
ATOM      7  C   UNL     1       1.496   2.136  18.805  0.00  0.00    +0.000 A 
ATOM      8  C   UNL     1       2.665   2.866  18.583  0.00  0.00    +0.000 A 
ATOM      9  N   UNL     1       2.860   3.855  17.650  0.00  0.00    +0.000 NA
ATOM     10  C   UNL     1       3.985   4.625  17.836  0.00  0.00    +0.000 A 
ENDROOT
BRANCH   1  11
ATOM     11  N   UNL     1       6.431   4.164  18.146  0.00  0.00    +0.000 N 
ATOM     12  H   UNL     1       6.988   3.499  18.656  0.00  0.00    +0.000 HD
BRANCH  11  16
ATOM     13  C   UNL     1       7.947   8.123  17.920  0.00  0.00    +0.000 A 
ATOM     14  C   UNL     1       8.341   7.290  18.982  0.00  0.00    +0.000 A 
ATOM     15  C   UNL     1       7.874   5.958  19.057  0.00  0.00    +0.000 A 
ATOM     16  C   UNL     1       7.071   5.433  18.040  0.00  0.00    +0.000 A 
ATOM     17  C   UNL     1       6.979   6.201  16.887  0.00  0.00    +0.000 A 
ATOM     18  C   UNL     1       7.240   7.557  16.877  0.00  0.00    +0.000 A 
BRANCH  13  19
ATOM     19  C   UNL     1       8.495   9.497  17.647  0.00  0.00    +0.000 C 
BRANCH  19  21
ATOM     20  N   UNL     1       9.319  10.441  20.130  0.00  0.00    +0.000 NA
ATOM     21  C   UNL     1       8.945  10.013  19.004  0.00  0.00    +0.000 C 
ENDBRANCH  19  21
ENDBRANCH  13  19
ENDBRANCH  11  16
ENDBRANCH   1  11
BRANCH  10  22
ATOM     22  N   UNL     1       3.850   5.955  18.524  0.00  0.00    +0.000 N 
ATOM     23  H   UNL     1       4.766   6.282  18.727  0.00  0.00    +0.000 HD
BRANCH  22  24
ATOM     24  C   UNL     1       2.910   7.006  18.588  0.00  0.00    +0.000 A 
ATOM     25  C   UNL     1       2.789   8.038  17.614  0.00  0.00    +0.000 A 
ATOM     26  C   UNL     1       2.011   9.214  17.868  0.00  0.00    +0.000 A 
ATOM     27  C   UNL     1       1.288   9.360  19.068  0.00  0.00    +0.000 A 
ATOM     28  C   UNL     1       1.488   8.363  20.031  0.00  0.00    +0.000 A 
ATOM     29  C   UNL     1       2.268   7.225  19.777  0.00  0.00    +0.000 A 
BRANCH  27  30
ATOM     30  C   UNL     1       0.241  10.463  19.289  0.00  0.00    +0.000 C 
BRANCH  30  31
ATOM     31  C   UNL     1       0.595  11.204  20.550  0.00  0.00    +0.000 C 
ATOM     32  N   UNL     1       0.847  11.781  21.574  0.00  0.00    +0.000 NA
ENDBRANCH  30  31
ENDBRANCH  27  30
ENDBRANCH  22  24
ENDBRANCH  10  22
TORSDOF 8
ENDMDL
MODEL 2
REMARK VINA RESULT:      -9.0      1.071      1.452
REMARK  Name = 
REMARK  8 active torsions:
REMARK  status: ('A' for Active; 'I' for Inactive)
REMARK    1  A    between atoms: C_2  and  C_3
REMARK    2  A    between atoms: C_3  and  C_4
REMARK    3  A    between atoms: C_7  and  N_8
REMARK    4  A    between atoms: N_8  and  C_9
REMARK    5  A    between atoms: C_18  and  N_19
REMARK    6  A    between atoms: N_19  and  C_20
REMARK    7  A    between atoms: C_23  and  C_24
REMARK    8  A    between atoms: C_24  and  C_25
REMARK                            x       y       z     vdW  Elec       q    Type
REMARK                         _______ _______ _______ _____ _____    ______ ____
ROOT
ATOM      1  C   UNL     1       5.024   3.957  18.487  0.00  0.00    +0.000 A 
ATOM      2  N   UNL     1       4.667   3.201  19.531  0.00  0.00    +0.000 NA
ATOM      3  C   UNL     1       3.335   3.036  19.677  0.00  0.00    +0.000 A 
ATOM      4  C   UNL     1       2.562   3.610  20.695  0.00  0.00    +0.000 A 
ATOM      5  C   UNL     1       1.161   3.498  20.692  0.00  0.00    +0.000 A 
ATOM      6  C   UNL     1       0.604   2.612  19.788  0.00  0.00    +0.000 A 
ATOM      7  C   UNL     1       1.399   2.246  18.715  0.00  0.00    +0.000 A 
ATOM      8  C   UNL     1       2.589   2.956  18.550  0.00  0.00    +0.000 A 
ATOM      9  N   UNL     1       2.801   4.043  17.737  0.00  0.00    +0.000 NA
ATOM     10  C   UNL     1       3.958   4.745  17.982  0.00  0.00    +0.000 A 
ENDROOT
BRANCH   1  11
ATOM     11  N   UNL     1       6.391   4.164  18.166  0.00  0.00    +0.000 N 
ATOM     12  H   UNL     1       6.946   3.499  18.678  0.00  0.00    +0.000 HD
BRANCH  11  16
ATOM     13  C   UNL     1       7.940   8.109  17.922  0.00  0.00    +0.000 A 
ATOM     14  C   UNL     1       8.376   7.256  18.951  0.00  0.00    +0.000 A 
ATOM     15  C   UNL     1       7.899   5.928  19.030  0.00  0.00    +0.000 A 
ATOM     16  C   UNL     1       7.040   5.427  18.047  0.00  0.00    +0.000 A 
ATOM     17  C   UNL     1       6.901   6.213  16.911  0.00  0.00    +0.000 A 
ATOM     18  C   UNL     1       7.176   7.566  16.907  0.00  0.00    +0.000 A 
BRANCH  13  19
ATOM     19  C   UNL     1       8.490   9.481  17.641  0.00  0.00    +0.000 C 
BRANCH  19  21
ATOM     20  N   UNL     1       9.414  10.393  20.101  0.00  0.00    +0.000 NA
ATOM     21  C   UNL     1       8.995   9.979  18.986  0.00  0.00    +0.000 C 
ENDBRANCH  19  21
ENDBRANCH  13  19
ENDBRANCH  11  16
ENDBRANCH   1  11
BRANCH  10  22
ATOM     22  N   UNL     1       3.891   5.986  18.828  0.00  0.00    +0.000 N 
ATOM     23  H   UNL     1       4.808   6.172  19.161  0.00  0.00    +0.000 HD
BRANCH  22  24
ATOM     24  C   UNL     1       3.068   7.127  18.943  0.00  0.00    +0.000 A 
ATOM     25  C   UNL     1       2.187   7.377  20.034  0.00  0.00    +0.000 A 
ATOM     26  C   UNL     1       1.188   8.402  19.965  0.00  0.00    +0.000 A 
ATOM     27  C   UNL     1       1.084   9.238  18.837  0.00  0.00    +0.000 A 
ATOM     28  C   UNL     1       1.915   8.917  17.755  0.00  0.00    +0.000 A 
ATOM     29  C   UNL     1       2.876   7.899  17.828  0.00  0.00    +0.000 A 
BRANCH  27  30
ATOM     30  C   UNL     1       0.218  10.507  18.808  0.00  0.00    +0.000 C 
BRANCH  30  31
ATOM     31  C   UNL     1      -0.995  10.232  17.960  0.00  0.00    +0.000 C 
ATOM     32  N   UNL     1      -1.945  10.028  17.253  0.00  0.00    +0.000 NA
ENDBRANCH  30  31
ENDBRANCH  27  30
ENDBRANCH  22  24
ENDBRANCH  10  22
TORSDOF 8
ENDMDL
MODEL 3
REMARK VINA RESULT:      -8.5      2.547      4.014
REMARK  Name = 
REMARK  8 active torsions:
REMARK  status: ('A' for Active; 'I' for Inactive)
REMARK    1  A    between atoms: C_2  and  C_3
REMARK    2  A    between atoms: C_3  and  C_4
REMARK    3  A    between atoms: C_7  and  N_8
REMARK    4  A    between atoms: N_8  and  C_9
REMARK    5  A    between atoms: C_18  and  N_19
REMARK    6  A    between atoms: N_19  and  C_20
REMARK    7  A    between atoms: C_23  and  C_24
REMARK    8  A    between atoms: C_24  and  C_25
REMARK                            x       y       z     vdW  Elec       q    Type
REMARK                         _______ _______ _______ _____ _____    ______ ____
ROOT
ATOM      1  C   UNL     1       4.435   4.698  17.978  0.00  0.00    +0.000 A 
ATOM      2  N   UNL     1       4.407   3.855  19.015  0.00  0.00    +0.000 NA
ATOM      3  C   UNL     1       3.169   3.494  19.413  0.00  0.00    +0.000 A 
ATOM      4  C   UNL     1       2.556   3.906  20.604  0.00  0.00    +0.000 A 
ATOM      5  C   UNL     1       1.213   3.594  20.875  0.00  0.00    +0.000 A 
ATOM      6  C   UNL     1       0.602   2.677  20.040  0.00  0.00    +0.000 A 
ATOM      7  C   UNL     1       1.196   2.477  18.806  0.00  0.00    +0.000 A 
ATOM      8  C   UNL     1       2.221   3.356  18.456  0.00  0.00    +0.000 A 
ATOM      9  N   UNL     1       2.113   4.497  17.698  0.00  0.00    +0.000 NA
ATOM     10  C   UNL     1       3.193   5.346  17.755  0.00  0.00    +0.000 A 
ENDROOT
BRANCH   1  11
ATOM     11  N   UNL     1       5.665   5.113  17.404  0.00  0.00    +0.000 N 
ATOM     12  H   UNL     1       5.822   6.078  17.642  0.00  0.00    +0.000 HD
BRANCH  11  16
ATOM     13  C   UNL     1       6.738   4.492  13.343  0.00  0.00    +0.000 A 
ATOM     14  C   UNL     1       7.656   5.101  14.217  0.00  0.00    +0.000 A 
ATOM     15  C   UNL     1       7.331   5.286  15.580  0.00  0.00    +0.000 A 
ATOM     16  C   UNL     1       6.122   4.804  16.090  0.00  0.00    +0.000 A 
ATOM     17  C   UNL     1       5.412   3.953  15.254  0.00  0.00    +0.000 A 
ATOM     18  C   UNL     1       5.596   3.934  13.885  0.00  0.00    +0.000 A 
BRANCH  13  19
ATOM     19  C   UNL     1       7.024   4.101  11.919  0.00  0.00    +0.000 C 
BRANCH  19  21
ATOM     20  N   UNL     1       5.604   1.741  11.530  0.00  0.00    +0.000 NA
ATOM     21  C   UNL     1       6.247   2.810  11.707  0.00  0.00    +0.000 C 
ENDBRANCH  19  21
ENDBRANCH  13  19
ENDBRANCH  11  16
ENDBRANCH   1  11
BRANCH  10  22
ATOM     22  N   UNL     1       3.141   6.527  18.684  0.00  0.00    +0.000 N 
ATOM     23  H   UNL     1       4.076   6.820  18.849  0.00  0.00    +0.000 HD
BRANCH  22  24
ATOM     24  C   UNL     1       2.222   7.540  19.033  0.00  0.00    +0.000 A 
ATOM     25  C   UNL     1       1.886   8.644  18.200  0.00  0.00    +0.000 A 
ATOM     26  C   UNL     1       1.164   9.771  18.711  0.00  0.00    +0.000 A 
ATOM     27  C   UNL     1       0.708   9.796  20.043  0.00  0.00    +0.000 A 
ATOM     28  C   UNL     1       1.119   8.729  20.854  0.00  0.00    +0.000 A 
ATOM     29  C   UNL     1       1.842   7.641  20.345  0.00  0.00    +0.000 A 
BRANCH  27  30
ATOM     30  C   UNL     1      -0.283  10.844  20.573  0.00  0.00    +0.000 C 
BRANCH  30  31
ATOM     31  C   UNL     1      -0.384  10.686  22.067  0.00  0.00    +0.000 C 
ATOM     32  N   UNL     1      -0.447  10.594  23.264  0.00  0.00    +0.000 NA
ENDBRANCH  30  31
ENDBRANCH  27  30
ENDBRANCH  22  24
ENDBRANCH  10  22
TORSDOF 8
ENDMDL
MODEL 4
REMARK VINA RESULT:      -8.4      2.605      4.026
REMARK  Name = 
REMARK  8 active torsions:
REMARK  status: ('A' for Active; 'I' for Inactive)
REMARK    1  A    between atoms: C_2  and  C_3
REMARK    2  A    between atoms: C_3  and  C_4
REMARK    3  A    between atoms: C_7  and  N_8
REMARK    4  A    between atoms: N_8  and  C_9
REMARK    5  A    between atoms: C_18  and  N_19
REMARK    6  A    between atoms: N_19  and  C_20
REMARK    7  A    between atoms: C_23  and  C_24
REMARK    8  A    between atoms: C_24  and  C_25
REMARK                            x       y       z     vdW  Elec       q    Type
REMARK                         _______ _______ _______ _____ _____    ______ ____
ROOT
ATOM      1  C   UNL     1       4.647   4.436  18.117  0.00  0.00    +0.000 A 
ATOM      2  N   UNL     1       4.499   3.744  19.251  0.00  0.00    +0.000 NA
ATOM      3  C   UNL     1       3.217   3.492  19.593  0.00  0.00    +0.000 A 
ATOM      4  C   UNL     1       2.540   4.088  20.665  0.00  0.00    +0.000 A 
ATOM      5  C   UNL     1       1.166   3.872  20.866  0.00  0.00    +0.000 A 
ATOM      6  C   UNL     1       0.571   2.875  20.114  0.00  0.00    +0.000 A 
ATOM      7  C   UNL     1       1.244   2.484  18.970  0.00  0.00    +0.000 A 
ATOM      8  C   UNL     1       2.337   3.264  18.590  0.00  0.00    +0.000 A 
ATOM      9  N   UNL     1       2.345   4.294  17.680  0.00  0.00    +0.000 NA
ATOM     10  C   UNL     1       3.460   5.097  17.710  0.00  0.00    +0.000 A 
ENDROOT
BRANCH   1  11
ATOM     11  N   UNL     1       5.936   4.717  17.594  0.00  0.00    +0.000 N 
ATOM     12  H   UNL     1       6.259   5.587  17.984  0.00  0.00    +0.000 HD
BRANCH  11  16
ATOM     13  C   UNL     1       6.793   4.462  13.444  0.00  0.00    +0.000 A 
ATOM     14  C   UNL     1       7.629   5.227  14.278  0.00  0.00    +0.000 A 
ATOM     15  C   UNL     1       7.380   5.297  15.668  0.00  0.00    +0.000 A 
ATOM     16  C   UNL     1       6.343   4.553  16.238  0.00  0.00    +0.000 A 
ATOM     17  C   UNL     1       5.765   3.595  15.415  0.00  0.00    +0.000 A 
ATOM     18  C   UNL     1       5.841   3.657  14.038  0.00  0.00    +0.000 A 
BRANCH  13  19
ATOM     19  C   UNL     1       7.043   4.185  11.987  0.00  0.00    +0.000 C 
BRANCH  19  21
ATOM     20  N   UNL     1       5.630   1.849  11.455  0.00  0.00    +0.000 NA
ATOM     21  C   UNL     1       6.270   2.908  11.696  0.00  0.00    +0.000 C 
ENDBRANCH  19  21
ENDBRANCH  13  19
ENDBRANCH  11  16
ENDBRANCH   1  11
BRANCH  10  22
ATOM     22  N   UNL     1       3.401   6.396  18.467  0.00  0.00    +0.000 N 
ATOM     23  H   UNL     1       4.331   6.732  18.559  0.00  0.00    +0.000 HD
BRANCH  22  24
ATOM     24  C   UNL     1       2.463   7.424  18.702  0.00  0.00    +0.000 A 
ATOM     25  C   UNL     1       2.188   8.486  17.794  0.00  0.00    +0.000 A 
ATOM     26  C   UNL     1       1.436   9.637  18.198  0.00  0.00    +0.000 A 
ATOM     27  C   UNL     1       0.890   9.727  19.493  0.00  0.00    +0.000 A 
ATOM     28  C   UNL     1       1.241   8.702  20.381  0.00  0.00    +0.000 A 
ATOM     29  C   UNL     1       1.994   7.590  19.978  0.00  0.00    +0.000 A 
BRANCH  27  30
ATOM     30  C   UNL     1      -0.132  10.799  19.901  0.00  0.00    +0.000 C 
BRANCH  30  31
ATOM     31  C   UNL     1      -1.315  10.701  18.975  0.00  0.00    +0.000 C 
ATOM     32  N   UNL     1      -2.249  10.588  18.226  0.00  0.00    +0.000 NA
ENDBRANCH  30  31
ENDBRANCH  27  30
ENDBRANCH  22  24
ENDBRANCH  10  22
TORSDOF 8
ENDMDL
MODEL 5
REMARK VINA RESULT:      -8.2      2.877      6.996
REMARK  Name = 
REMARK  8 active torsions:
REMARK  status: ('A' for Active; 'I' for Inactive)
REMARK    1  A    between atoms: C_2  and  C_3
REMARK    2  A    between atoms: C_3  and  C_4
REMARK    3  A    between atoms: C_7  and  N_8
REMARK    4  A    between atoms: N_8  and  C_9
REMARK    5  A    between atoms: C_18  and  N_19
REMARK    6  A    between atoms: N_19  and  C_20
REMARK    7  A    between atoms: C_23  and  C_24
REMARK    8  A    between atoms: C_24  and  C_25
REMARK                            x       y       z     vdW  Elec       q    Type
REMARK                         _______ _______ _______ _____ _____    ______ ____
ROOT
ATOM      1  C   UNL     1       2.204   6.357  20.377  0.00  0.00    +0.000 A 
ATOM      2  N   UNL     1       1.113   5.647  20.076  0.00  0.00    +0.000 NA
ATOM      3  C   UNL     1       1.350   4.354  19.768  0.00  0.00    +0.000 A 
ATOM      4  C   UNL     1       1.235   3.800  18.486  0.00  0.00    +0.000 A 
ATOM      5  C   UNL     1       1.634   2.477  18.229  0.00  0.00    +0.000 A 
ATOM      6  C   UNL     1       1.918   1.683  19.325  0.00  0.00    +0.000 A 
ATOM      7  C   UNL     1       2.194   2.345  20.509  0.00  0.00    +0.000 A 
ATOM      8  C   UNL     1       2.353   3.729  20.428  0.00  0.00    +0.000 A 
ATOM      9  N   UNL     1       3.533   4.423  20.309  0.00  0.00    +0.000 NA
ATOM     10  C   UNL     1       3.406   5.741  19.941  0.00  0.00    +0.000 A 
ENDROOT
BRANCH   1  11
ATOM     11  N   UNL     1       2.107   7.713  20.787  0.00  0.00    +0.000 N 
ATOM     12  H   UNL     1       2.069   7.742  21.793  0.00  0.00    +0.000 HD
BRANCH  11  16
ATOM     13  C   UNL     1      -0.577  10.356  18.829  0.00  0.00    +0.000 A 
ATOM     14  C   UNL     1      -0.604  10.255  20.231  0.00  0.00    +0.000 A 
ATOM     15  C   UNL     1       0.304   9.406  20.905  0.00  0.00    +0.000 A 
ATOM     16  C   UNL     1       1.284   8.710  20.190  0.00  0.00    +0.000 A 
ATOM     17  C   UNL     1       1.448   9.092  18.865  0.00  0.00    +0.000 A 
ATOM     18  C   UNL     1       0.459   9.742  18.152  0.00  0.00    +0.000 A 
BRANCH  13  19
ATOM     19  C   UNL     1      -1.379  11.333  18.015  0.00  0.00    +0.000 C 
BRANCH  19  21
ATOM     20  N   UNL     1      -2.707   9.771  16.135  0.00  0.00    +0.000 NA
ATOM     21  C   UNL     1      -2.105  10.479  16.987  0.00  0.00    +0.000 C 
ENDBRANCH  19  21
ENDBRANCH  13  19
ENDBRANCH  11  16
ENDBRANCH   1  11
BRANCH  10  22
ATOM     22  N   UNL     1       3.590   6.114  18.495  0.00  0.00    +0.000 N 
ATOM     23  H   UNL     1       3.299   7.058  18.389  0.00  0.00    +0.000 HD
BRANCH  22  24
ATOM     24  C   UNL     1       4.387   5.702  17.406  0.00  0.00    +0.000 A 
ATOM     25  C   UNL     1       4.825   6.562  16.359  0.00  0.00    +0.000 A 
ATOM     26  C   UNL     1       5.394   6.038  15.153  0.00  0.00    +0.000 A 
ATOM     27  C   UNL     1       5.597   4.654  14.989  0.00  0.00    +0.000 A 
ATOM     28  C   UNL     1       5.088   3.833  16.005  0.00  0.00    +0.000 A 
ATOM     29  C   UNL     1       4.516   4.359  17.173  0.00  0.00    +0.000 A 
BRANCH  27  30
ATOM     30  C   UNL     1       6.430   4.056  13.845  0.00  0.00    +0.000 C 
BRANCH  30  31
ATOM     31  C   UNL     1       7.533   5.024  13.508  0.00  0.00    +0.000 C 
ATOM     32  N   UNL     1       8.424   5.796  13.276  0.00  0.00    +0.000 NA
ENDBRANCH  30  31
ENDBRANCH  27  30
ENDBRANCH  22  24
ENDBRANCH  10  22
TORSDOF 8
ENDMDL
MODEL 6
REMARK VINA RESULT:      -8.1      2.516      4.141
REMARK  Name = 
REMARK  8 active torsions:
REMARK  status: ('A' for Active; 'I' for Inactive)
REMARK    1  A    between atoms: C_2  and  C_3
REMARK    2  A    between atoms: C_3  and  C_4
REMARK    3  A    between atoms: C_7  and  N_8
REMARK    4  A    between atoms: N_8  and  C_9
REMARK    5  A    between atoms: C_18  and  N_19
REMARK    6  A    between atoms: N_19  and  C_20
REMARK    7  A    between atoms: C_23  and  C_24
REMARK    8  A    between atoms: C_24  and  C_25
REMARK                            x       y       z     vdW  Elec       q    Type
REMARK                         _______ _______ _______ _____ _____    ______ ____
ROOT
ATOM      1  C   UNL     1       4.553   4.613  18.136  0.00  0.00    +0.000 A 
ATOM      2  N   UNL     1       4.516   3.843  19.228  0.00  0.00    +0.000 NA
ATOM      3  C   UNL     1       3.274   3.582  19.690  0.00  0.00    +0.000 A 
ATOM      4  C   UNL     1       2.729   4.108  20.869  0.00  0.00    +0.000 A 
ATOM      5  C   UNL     1       1.381   3.893  21.203  0.00  0.00    +0.000 A 
ATOM      6  C   UNL     1       0.689   2.960  20.453  0.00  0.00    +0.000 A 
ATOM      7  C   UNL     1       1.227   2.643  19.217  0.00  0.00    +0.000 A 
ATOM      8  C   UNL     1       2.286   3.437  18.776  0.00  0.00    +0.000 A 
ATOM      9  N   UNL     1       2.215   4.528  17.945  0.00  0.00    +0.000 NA
ATOM     10  C   UNL     1       3.342   5.315  17.909  0.00  0.00    +0.000 A 
ENDROOT
BRANCH   1  11
ATOM     11  N   UNL     1       5.783   4.917  17.495  0.00  0.00    +0.000 N 
ATOM     12  H   UNL     1       6.041   5.862  17.726  0.00  0.00    +0.000 HD
BRANCH  11  16
ATOM     13  C   UNL     1       6.473   4.111  13.385  0.00  0.00    +0.000 A 
ATOM     14  C   UNL     1       7.327   4.994  14.070  0.00  0.00    +0.000 A 
ATOM     15  C   UNL     1       7.135   5.249  15.447  0.00  0.00    +0.000 A 
ATOM     16  C   UNL     1       6.137   4.575  16.158  0.00  0.00    +0.000 A 
ATOM     17  C   UNL     1       5.545   3.506  15.499  0.00  0.00    +0.000 A 
ATOM     18  C   UNL     1       5.563   3.381  14.123  0.00  0.00    +0.000 A 
BRANCH  13  19
ATOM     19  C   UNL     1       6.668   3.641  11.969  0.00  0.00    +0.000 C 
BRANCH  19  21
ATOM     20  N   UNL     1       4.127   2.913  11.105  0.00  0.00    +0.000 NA
ATOM     21  C   UNL     1       5.278   3.243  11.497  0.00  0.00    +0.000 C 
ENDBRANCH  19  21
ENDBRANCH  13  19
ENDBRANCH  11  16
ENDBRANCH   1  11
BRANCH  10  22
ATOM     22  N   UNL     1       3.389   6.557  18.756  0.00  0.00    +0.000 N 
ATOM     23  H   UNL     1       4.346   6.780  18.907  0.00  0.00    +0.000 HD
BRANCH  22  24
ATOM     24  C   UNL     1       2.559   7.664  19.031  0.00  0.00    +0.000 A 
ATOM     25  C   UNL     1       1.831   7.844  20.241  0.00  0.00    +0.000 A 
ATOM     26  C   UNL     1       0.804   8.838  20.353  0.00  0.00    +0.000 A 
ATOM     27  C   UNL     1       0.524   9.712  19.286  0.00  0.00    +0.000 A 
ATOM     28  C   UNL     1       1.206   9.460  18.088  0.00  0.00    +0.000 A 
ATOM     29  C   UNL     1       2.195   8.472  17.986  0.00  0.00    +0.000 A 
BRANCH  27  30
ATOM     30  C   UNL     1      -0.372  10.952  19.430  0.00  0.00    +0.000 C 
BRANCH  30  31
ATOM     31  C   UNL     1      -0.029  11.635  20.726  0.00  0.00    +0.000 C 
ATOM     32  N   UNL     1       0.214  12.165  21.778  0.00  0.00    +0.000 NA
ENDBRANCH  30  31
ENDBRANCH  27  30
ENDBRANCH  22  24
ENDBRANCH  10  22
TORSDOF 8
ENDMDL
MODEL 7
REMARK VINA RESULT:      -8.1      2.676      4.269
REMARK  Name = 
REMARK  8 active torsions:
REMARK  status: ('A' for Active; 'I' for Inactive)
REMARK    1  A    between atoms: C_2  and  C_3
REMARK    2  A    between atoms: C_3  and  C_4
REMARK    3  A    between atoms: C_7  and  N_8
REMARK    4  A    between atoms: N_8  and  C_9
REMARK    5  A    between atoms: C_18  and  N_19
REMARK    6  A    between atoms: N_19  and  C_20
REMARK    7  A    between atoms: C_23  and  C_24
REMARK    8  A    between atoms: C_24  and  C_25
REMARK                            x       y       z     vdW  Elec       q    Type
REMARK                         _______ _______ _______ _____ _____    ______ ____
ROOT
ATOM      1  C   UNL     1       4.404   4.725  17.860  0.00  0.00    +0.000 A 
ATOM      2  N   UNL     1       4.419   3.921  18.929  0.00  0.00    +0.000 NA
ATOM      3  C   UNL     1       3.201   3.642  19.439  0.00  0.00    +0.000 A 
ATOM      4  C   UNL     1       2.710   4.129  20.659  0.00  0.00    +0.000 A 
ATOM      5  C   UNL     1       1.380   3.900  21.049  0.00  0.00    +0.000 A 
ATOM      6  C   UNL     1       0.655   2.989  20.303  0.00  0.00    +0.000 A 
ATOM      7  C   UNL     1       1.135   2.713  19.034  0.00  0.00    +0.000 A 
ATOM      8  C   UNL     1       2.171   3.523  18.568  0.00  0.00    +0.000 A 
ATOM      9  N   UNL     1       2.060   4.640  17.777  0.00  0.00    +0.000 NA
ATOM     10  C   UNL     1       3.183   5.431  17.713  0.00  0.00    +0.000 A 
ENDROOT
BRANCH   1  11
ATOM     11  N   UNL     1       5.602   5.052  17.173  0.00  0.00    +0.000 N 
ATOM     12  H   UNL     1       5.907   5.963  17.474  0.00  0.00    +0.000 HD
BRANCH  11  16
ATOM     13  C   UNL     1       6.657   4.076  13.178  0.00  0.00    +0.000 A 
ATOM     14  C   UNL     1       5.369   3.766  13.650  0.00  0.00    +0.000 A 
ATOM     15  C   UNL     1       4.987   4.113  14.966  0.00  0.00    +0.000 A 
ATOM     16  C   UNL     1       5.861   4.829  15.790  0.00  0.00    +0.000 A 
ATOM     17  C   UNL     1       6.978   5.363  15.162  0.00  0.00    +0.000 A 
ATOM     18  C   UNL     1       7.466   4.870  13.968  0.00  0.00    +0.000 A 
BRANCH  13  19
ATOM     19  C   UNL     1       7.126   3.901  11.760  0.00  0.00    +0.000 C 
BRANCH  19  21
ATOM     20  N   UNL     1       6.484   1.272  11.118  0.00  0.00    +0.000 NA
ATOM     21  C   UNL     1       6.775   2.464  11.409  0.00  0.00    +0.000 C 
ENDBRANCH  19  21
ENDBRANCH  13  19
ENDBRANCH  11  16
ENDBRANCH   1  11
BRANCH  10  22
ATOM     22  N   UNL     1       3.268   6.645  18.596  0.00  0.00    +0.000 N 
ATOM     23  H   UNL     1       4.231   6.858  18.721  0.00  0.00    +0.000 HD
BRANCH  22  24
ATOM     24  C   UNL     1       2.456   7.749  18.933  0.00  0.00    +0.000 A 
ATOM     25  C   UNL     1       1.825   7.927  20.196  0.00  0.00    +0.000 A 
ATOM     26  C   UNL     1       0.804   8.915  20.387  0.00  0.00    +0.000 A 
ATOM     27  C   UNL     1       0.436   9.786  19.344  0.00  0.00    +0.000 A 
ATOM     28  C   UNL     1       1.023   9.535  18.096  0.00  0.00    +0.000 A 
ATOM     29  C   UNL     1       2.007   8.552  17.919  0.00  0.00    +0.000 A 
BRANCH  27  30
ATOM     30  C   UNL     1      -0.453  11.022  19.556  0.00  0.00    +0.000 C 
BRANCH  30  31
ATOM     31  C   UNL     1      -0.174  11.575  20.927  0.00  0.00    +0.000 C 
ATOM     32  N   UNL     1       0.061  12.049  22.007  0.00  0.00    +0.000 NA
ENDBRANCH  30  31
ENDBRANCH  27  30
ENDBRANCH  22  24
ENDBRANCH  10  22
TORSDOF 8
ENDMDL
MODEL 8
REMARK VINA RESULT:      -8.1      1.160      1.241
REMARK  Name = 
REMARK  8 active torsions:
REMARK  status: ('A' for Active; 'I' for Inactive)
REMARK    1  A    between atoms: C_2  and  C_3
REMARK    2  A    between atoms: C_3  and  C_4
REMARK    3  A    between atoms: C_7  and  N_8
REMARK    4  A    between atoms: N_8  and  C_9
REMARK    5  A    between atoms: C_18  and  N_19
REMARK    6  A    between atoms: N_19  and  C_20
REMARK    7  A    between atoms: C_23  and  C_24
REMARK    8  A    between atoms: C_24  and  C_25
REMARK                            x       y       z     vdW  Elec       q    Type
REMARK                         _______ _______ _______ _____ _____    ______ ____
ROOT
ATOM      1  C   UNL     1       4.749   4.050  17.946  0.00  0.00    +0.000 A 
ATOM      2  N   UNL     1       4.534   3.375  19.080  0.00  0.00    +0.000 NA
ATOM      3  C   UNL     1       3.232   3.190  19.386  0.00  0.00    +0.000 A 
ATOM      4  C   UNL     1       2.556   3.828  20.435  0.00  0.00    +0.000 A 
ATOM      5  C   UNL     1       1.168   3.682  20.597  0.00  0.00    +0.000 A 
ATOM      6  C   UNL     1       0.545   2.711  19.835  0.00  0.00    +0.000 A 
ATOM      7  C   UNL     1       1.230   2.277  18.713  0.00  0.00    +0.000 A 
ATOM      8  C   UNL     1       2.370   2.999  18.360  0.00  0.00    +0.000 A 
ATOM      9  N   UNL     1       2.456   4.020  17.444  0.00  0.00    +0.000 NA
ATOM     10  C   UNL     1       3.609   4.767  17.501  0.00  0.00    +0.000 A 
ENDROOT
BRANCH   1  11
ATOM     11  N   UNL     1       6.065   4.263  17.458  0.00  0.00    +0.000 N 
ATOM     12  H   UNL     1       6.556   3.384  17.463  0.00  0.00    +0.000 HD
BRANCH  11  16
ATOM     13  C   UNL     1       8.234   7.745  18.550  0.00  0.00    +0.000 A 
ATOM     14  C   UNL     1       8.292   6.606  19.373  0.00  0.00    +0.000 A 
ATOM     15  C   UNL     1       7.605   5.426  19.010  0.00  0.00    +0.000 A 
ATOM     16  C   UNL     1       6.916   5.355  17.795  0.00  0.00    +0.000 A 
ATOM     17  C   UNL     1       7.156   6.393  16.905  0.00  0.00    +0.000 A 
ATOM     18  C   UNL     1       7.635   7.623  17.311  0.00  0.00    +0.000 A 
BRANCH  13  19
ATOM     19  C   UNL     1       9.041   8.999  18.747  0.00  0.00    +0.000 C 
BRANCH  19  21
ATOM     20  N   UNL     1       7.634  10.972  17.383  0.00  0.00    +0.000 NA
ATOM     21  C   UNL     1       8.272  10.078  18.001  0.00  0.00    +0.000 C 
ENDBRANCH  19  21
ENDBRANCH  13  19
ENDBRANCH  11  16
ENDBRANCH   1  11
BRANCH  10  22
ATOM     22  N   UNL     1       3.593   6.073  18.248  0.00  0.00    +0.000 N 
ATOM     23  H   UNL     1       4.523   6.423  18.259  0.00  0.00    +0.000 HD
BRANCH  22  24
ATOM     24  C   UNL     1       2.663   7.091  18.549  0.00  0.00    +0.000 A 
ATOM     25  C   UNL     1       2.386   8.203  17.706  0.00  0.00    +0.000 A 
ATOM     26  C   UNL     1       1.644   9.333  18.181  0.00  0.00    +0.000 A 
ATOM     27  C   UNL     1       1.110   9.352  19.485  0.00  0.00    +0.000 A 
ATOM     28  C   UNL     1       1.464   8.277  20.310  0.00  0.00    +0.000 A 
ATOM     29  C   UNL     1       2.207   7.186  19.837  0.00  0.00    +0.000 A 
BRANCH  27  30
ATOM     30  C   UNL     1       0.098  10.405  19.962  0.00  0.00    +0.000 C 
BRANCH  30  31
ATOM     31  C   UNL     1      -1.004  10.498  18.941  0.00  0.00    +0.000 C 
ATOM     32  N   UNL     1      -1.858  10.574  18.098  0.00  0.00    +0.000 NA
ENDBRANCH  30  31
ENDBRANCH  27  30
ENDBRANCH  22  24
ENDBRANCH  10  22
TORSDOF 8
ENDMDL
MODEL 9
REMARK VINA RESULT:      -8.0      0.847      1.236
REMARK  Name = 
REMARK  8 active torsions:
REMARK  status: ('A' for Active; 'I' for Inactive)
REMARK    1  A    between atoms: C_2  and  C_3
REMARK    2  A    between atoms: C_3  and  C_4
REMARK    3  A    between atoms: C_7  and  N_8
REMARK    4  A    between atoms: N_8  and  C_9
REMARK    5  A    between atoms: C_18  and  N_19
REMARK    6  A    between atoms: N_19  and  C_20
REMARK    7  A    between atoms: C_23  and  C_24
REMARK    8  A    between atoms: C_24  and  C_25
REMARK                            x       y       z     vdW  Elec       q    Type
REMARK                         _______ _______ _______ _____ _____    ______ ____
ROOT
ATOM      1  C   UNL     1       5.093   4.451  17.910  0.00  0.00    +0.000 A 
ATOM      2  N   UNL     1       4.996   3.595  18.932  0.00  0.00    +0.000 NA
ATOM      3  C   UNL     1       3.743   3.165  19.188  0.00  0.00    +0.000 A 
ATOM      4  C   UNL     1       2.981   3.531  20.307  0.00  0.00    +0.000 A 
ATOM      5  C   UNL     1       1.635   3.146  20.425  0.00  0.00    +0.000 A 
ATOM      6  C   UNL     1       1.169   2.208  19.522  0.00  0.00    +0.000 A 
ATOM      7  C   UNL     1       1.905   2.053  18.360  0.00  0.00    +0.000 A 
ATOM      8  C   UNL     1       2.915   2.990  18.132  0.00  0.00    +0.000 A 
ATOM      9  N   UNL     1       2.830   4.132  17.373  0.00  0.00    +0.000 NA
ATOM     10  C   UNL     1       3.851   5.035  17.554  0.00  0.00    +0.000 A 
ENDROOT
BRANCH   1  11
ATOM     11  N   UNL     1       6.356   4.936  17.478  0.00  0.00    +0.000 N 
ATOM     12  H   UNL     1       7.017   4.178  17.500  0.00  0.00    +0.000 HD
BRANCH  11  16
ATOM     13  C   UNL     1       8.496   8.478  18.424  0.00  0.00    +0.000 A 
ATOM     14  C   UNL     1       7.492   8.518  17.441  0.00  0.00    +0.000 A 
ATOM     15  C   UNL     1       6.744   7.358  17.135  0.00  0.00    +0.000 A 
ATOM     16  C   UNL     1       6.948   6.176  17.854  0.00  0.00    +0.000 A 
ATOM     17  C   UNL     1       7.724   6.295  19.000  0.00  0.00    +0.000 A 
ATOM     18  C   UNL     1       8.612   7.335  19.191  0.00  0.00    +0.000 A 
BRANCH  13  19
ATOM     19  C   UNL     1       9.247   9.673  18.946  0.00  0.00    +0.000 C 
BRANCH  19  21
ATOM     20  N   UNL     1       8.234  11.830  17.512  0.00  0.00    +0.000 NA
ATOM     21  C   UNL     1       8.693  10.853  18.162  0.00  0.00    +0.000 C 
ENDBRANCH  19  21
ENDBRANCH  13  19
ENDBRANCH  11  16
ENDBRANCH   1  11
BRANCH  10  22
ATOM     22  N   UNL     1       3.634   6.201  18.479  0.00  0.00    +0.000 N 
ATOM     23  H   UNL     1       4.523   6.480  18.825  0.00  0.00    +0.000 HD
BRANCH  22  24
ATOM     24  C   UNL     1       2.675   7.219  18.667  0.00  0.00    +0.000 A 
ATOM     25  C   UNL     1       2.454   8.295  17.761  0.00  0.00    +0.000 A 
ATOM     26  C   UNL     1       1.667   9.434  18.133  0.00  0.00    +0.000 A 
ATOM     27  C   UNL     1       1.033   9.497  19.389  0.00  0.00    +0.000 A 
ATOM     28  C   UNL     1       1.331   8.458  20.281  0.00  0.00    +0.000 A 
ATOM     29  C   UNL     1       2.118   7.358  19.911  0.00  0.00    +0.000 A 
BRANCH  27  30
ATOM     30  C   UNL     1      -0.022  10.555  19.744  0.00  0.00    +0.000 C 
BRANCH  30  31
ATOM     31  C   UNL     1       0.621  11.583  20.636  0.00  0.00    +0.000 C 
ATOM     32  N   UNL     1       1.125  12.431  21.323  0.00  0.00    +0.000 NA
ENDBRANCH  30  31
ENDBRANCH  27  30
ENDBRANCH  22  24
ENDBRANCH  10  22
TORSDOF 8
ENDMDL
