MODEL 1
REMARK VINA RESULT:      -7.8      0.000      0.000
REMARK  Name = 
REMARK  3 active torsions:
REMARK  status: ('A' for Active; 'I' for Inactive)
REMARK    1  A    between atoms: C_5  and  C_6
REMARK    2  A    between atoms: C_6  and  N_7
REMARK    3  A    between atoms: N_12  and  C_13
REMARK                            x       y       z     vdW  Elec       q    Type
REMARK                         _______ _______ _______ _____ _____    ______ ____
ROOT
ATOM      1  N   UNL     1       4.968   5.207  16.473  0.00  0.00    +0.000 N 
ATOM      2  C   UNL     1       5.650   5.092  17.651  0.00  0.00    +0.000 A 
ATOM      3  N   UNL     1       6.941   5.267  17.840  0.00  0.00    +0.000 NA
ATOM      4  N   UNL     1       7.197   4.953  19.138  0.00  0.00    +0.000 NA
ATOM      5  N   UNL     1       6.090   4.609  19.771  0.00  0.00    +0.000 NA
ATOM      6  N   UNL     1       5.075   4.704  18.878  0.00  0.00    +0.000 N 
ATOM      7  H   UNL     1       4.635   4.318  16.103  0.00  0.00    +0.000 HD
ENDROOT
BRANCH   6   8
ATOM      8  C   UNL     1       3.708   4.537  19.255  0.00  0.00    +0.000 A 
ATOM      9  C   UNL     1       3.122   5.498  20.109  0.00  0.00    +0.000 A 
ATOM     10  C   UNL     1       1.807   5.365  20.556  0.00  0.00    +0.000 A 
ATOM     11  C   UNL     1       1.054   4.265  20.171  0.00  0.00    +0.000 A 
ATOM     12  C   UNL     1       1.607   3.301  19.325  0.00  0.00    +0.000 A 
ATOM     13 CL   UNL     1       0.575   1.973  18.900  0.00  0.00    +0.000 Cl
ATOM     14  C   UNL     1       2.931   3.426  18.850  0.00  0.00    +0.000 A 
ATOM     15 CL   UNL     1       3.488   2.248  17.696  0.00  0.00    +0.000 Cl
ENDBRANCH   6   8
BRANCH   1  16
ATOM     16  C   UNL     1       5.589   6.005  15.418  0.00  0.00    +0.000 C 
BRANCH  16  21
ATOM     17  F   UNL     1       7.248   2.640  11.196  0.00  0.00    +0.000 F 
ATOM     18  C   UNL     1       6.850   3.449  12.186  0.00  0.00    +0.000 A 
ATOM     19  C   UNL     1       7.692   4.460  12.628  0.00  0.00    +0.000 A 
ATOM     20  C   UNL     1       7.281   5.293  13.670  0.00  0.00    +0.000 A 
ATOM     21  C   UNL     1       6.027   5.110  14.276  0.00  0.00    +0.000 A 
ATOM     22  C   UNL     1       5.180   4.096  13.795  0.00  0.00    +0.000 A 
ATOM     23  C   UNL     1       5.596   3.262  12.755  0.00  0.00    +0.000 A 
ENDBRANCH  16  21
ENDBRANCH   1  16
TORSDOF 3
ENDMDL
MODEL 2
REMARK VINA RESULT:      -7.7      1.108      1.364
REMARK  Name = 
REMARK  3 active torsions:
REMARK  status: ('A' for Active; 'I' for Inactive)
REMARK    1  A    between atoms: C_5  and  C_6
REMARK    2  A    between atoms: C_6  and  N_7
REMARK    3  A    between atoms: N_12  and  C_13
REMARK                            x       y       z     vdW  Elec       q    Type
REMARK                         _______ _______ _______ _____ _____    ______ ____
ROOT
ATOM      1  N   UNL     1       5.295   4.665  15.459  0.00  0.00    +0.000 N 
ATOM      2  C   UNL     1       6.121   4.617  16.545  0.00  0.00    +0.000 A 
ATOM      3  N   UNL     1       7.437   4.631  16.542  0.00  0.00    +0.000 NA
ATOM      4  N   UNL     1       7.838   4.465  17.831  0.00  0.00    +0.000 NA
ATOM      5  N   UNL     1       6.800   4.370  18.643  0.00  0.00    +0.000 NA
ATOM      6  N   UNL     1       5.687   4.485  17.880  0.00  0.00    +0.000 N 
ATOM      7  H   UNL     1       4.807   3.789  15.275  0.00  0.00    +0.000 HD
ENDROOT
BRANCH   6   8
ATOM      8  C   UNL     1       4.378   4.566  18.446  0.00  0.00    +0.000 A 
ATOM      9  C   UNL     1       3.987   5.772  19.070  0.00  0.00    +0.000 A 
ATOM     10  C   UNL     1       2.742   5.898  19.689  0.00  0.00    +0.000 A 
ATOM     11  C   UNL     1       1.867   4.822  19.707  0.00  0.00    +0.000 A 
ATOM     12  C   UNL     1       2.226   3.619  19.095  0.00  0.00    +0.000 A 
ATOM     13 CL   UNL     1       1.054   2.342  19.169  0.00  0.00    +0.000 Cl
ATOM     14  C   UNL     1       3.476   3.476  18.451  0.00  0.00    +0.000 A 
ATOM     15 CL   UNL     1       3.780   1.987  17.603  0.00  0.00    +0.000 Cl
ENDBRANCH   6   8
BRANCH   1  16
ATOM     16  C   UNL     1       5.849   5.215  14.223  0.00  0.00    +0.000 C 
BRANCH  16  21
ATOM     17  F   UNL     1       6.337   1.121  10.364  0.00  0.00    +0.000 F 
ATOM     18  C   UNL     1       6.222   2.102  11.268  0.00  0.00    +0.000 A 
ATOM     19  C   UNL     1       7.360   2.754  11.723  0.00  0.00    +0.000 A 
ATOM     20  C   UNL     1       7.239   3.767  12.676  0.00  0.00    +0.000 A 
ATOM     21  C   UNL     1       5.977   4.126  13.178  0.00  0.00    +0.000 A 
ATOM     22  C   UNL     1       4.836   3.470  12.683  0.00  0.00    +0.000 A 
ATOM     23  C   UNL     1       4.961   2.454  11.733  0.00  0.00    +0.000 A 
ENDBRANCH  16  21
ENDBRANCH   1  16
TORSDOF 3
ENDMDL
MODEL 3
REMARK VINA RESULT:      -7.6      1.416      1.541
REMARK  Name = 
REMARK  3 active torsions:
REMARK  status: ('A' for Active; 'I' for Inactive)
REMARK    1  A    between atoms: C_5  and  C_6
REMARK    2  A    between atoms: C_6  and  N_7
REMARK    3  A    between atoms: N_12  and  C_13
REMARK                            x       y       z     vdW  Elec       q    Type
REMARK                         _______ _______ _______ _____ _____    ______ ____
ROOT
ATOM      1  N   UNL     1       6.298   4.325  16.549  0.00  0.00    +0.000 N 
ATOM      2  C   UNL     1       6.746   4.747  17.769  0.00  0.00    +0.000 A 
ATOM      3  N   UNL     1       7.984   5.050  18.097  0.00  0.00    +0.000 NA
ATOM      4  N   UNL     1       7.985   5.320  19.430  0.00  0.00    +0.000 NA
ATOM      5  N   UNL     1       6.771   5.215  19.938  0.00  0.00    +0.000 NA
ATOM      6  N   UNL     1       5.942   4.877  18.920  0.00  0.00    +0.000 N 
ATOM      7  H   UNL     1       6.014   3.346  16.533  0.00  0.00    +0.000 HD
ENDROOT
BRANCH   6   8
ATOM      8  C   UNL     1       4.525   4.812  19.078  0.00  0.00    +0.000 A 
ATOM      9  C   UNL     1       3.749   5.918  18.665  0.00  0.00    +0.000 A 
ATOM     10  C   UNL     1       2.365   5.939  18.840  0.00  0.00    +0.000 A 
ATOM     11  C   UNL     1       1.728   4.864  19.442  0.00  0.00    +0.000 A 
ATOM     12  C   UNL     1       2.469   3.756  19.858  0.00  0.00    +0.000 A 
ATOM     13 CL   UNL     1       1.572   2.465  20.590  0.00  0.00    +0.000 Cl
ATOM     14  C   UNL     1       3.869   3.709  19.676  0.00  0.00    +0.000 A 
ATOM     15 CL   UNL     1       4.689   2.235  20.103  0.00  0.00    +0.000 Cl
ENDBRANCH   6   8
BRANCH   1  16
ATOM     16  C   UNL     1       7.127   4.641  15.388  0.00  0.00    +0.000 C 
BRANCH  16  21
ATOM     17  F   UNL     1       4.644   2.771  10.673  0.00  0.00    +0.000 F 
ATOM     18  C   UNL     1       5.233   3.230  11.785  0.00  0.00    +0.000 A 
ATOM     19  C   UNL     1       6.606   3.432  11.803  0.00  0.00    +0.000 A 
ATOM     20  C   UNL     1       7.219   3.896  12.968  0.00  0.00    +0.000 A 
ATOM     21  C   UNL     1       6.458   4.152  14.120  0.00  0.00    +0.000 A 
ATOM     22  C   UNL     1       5.065   3.965  14.072  0.00  0.00    +0.000 A 
ATOM     23  C   UNL     1       4.456   3.497  12.905  0.00  0.00    +0.000 A 
ENDBRANCH  16  21
ENDBRANCH   1  16
TORSDOF 3
ENDMDL
MODEL 4
REMARK VINA RESULT:      -7.6      0.977      1.430
REMARK  Name = 
REMARK  3 active torsions:
REMARK  status: ('A' for Active; 'I' for Inactive)
REMARK    1  A    between atoms: C_5  and  C_6
REMARK    2  A    between atoms: C_6  and  N_7
REMARK    3  A    between atoms: N_12  and  C_13
REMARK                            x       y       z     vdW  Elec       q    Type
REMARK                         _______ _______ _______ _____ _____    ______ ____
ROOT
ATOM      1  N   UNL     1       5.140   5.392  16.542  0.00  0.00    +0.000 N 
ATOM      2  C   UNL     1       5.933   5.301  17.650  0.00  0.00    +0.000 A 
ATOM      3  N   UNL     1       7.244   5.419  17.699  0.00  0.00    +0.000 NA
ATOM      4  N   UNL     1       7.617   5.157  18.980  0.00  0.00    +0.000 NA
ATOM      5  N   UNL     1       6.567   4.901  19.739  0.00  0.00    +0.000 NA
ATOM      6  N   UNL     1       5.471   5.004  18.948  0.00  0.00    +0.000 N 
ATOM      7  H   UNL     1       4.731   4.504  16.256  0.00  0.00    +0.000 HD
ENDROOT
BRANCH   6   8
ATOM      8  C   UNL     1       4.143   4.926  19.469  0.00  0.00    +0.000 A 
ATOM      9  C   UNL     1       3.350   6.094  19.468  0.00  0.00    +0.000 A 
ATOM     10  C   UNL     1       2.064   6.097  20.011  0.00  0.00    +0.000 A 
ATOM     11  C   UNL     1       1.548   4.939  20.574  0.00  0.00    +0.000 A 
ATOM     12  C   UNL     1       2.310   3.769  20.585  0.00  0.00    +0.000 A 
ATOM     13 CL   UNL     1       1.566   2.377  21.306  0.00  0.00    +0.000 Cl
ATOM     14  C   UNL     1       3.607   3.741  20.028  0.00  0.00    +0.000 A 
ATOM     15 CL   UNL     1       4.427   2.207  19.969  0.00  0.00    +0.000 Cl
ENDBRANCH   6   8
BRANCH   1  16
ATOM     16  C   UNL     1       5.685   6.104  15.388  0.00  0.00    +0.000 C 
BRANCH  16  21
ATOM     17  F   UNL     1       6.934   2.481  11.240  0.00  0.00    +0.000 F 
ATOM     18  C   UNL     1       6.643   3.329  12.234  0.00  0.00    +0.000 A 
ATOM     19  C   UNL     1       5.422   3.230  12.886  0.00  0.00    +0.000 A 
ATOM     20  C   UNL     1       5.114   4.125  13.913  0.00  0.00    +0.000 A 
ATOM     21  C   UNL     1       6.027   5.125  14.285  0.00  0.00    +0.000 A 
ATOM     22  C   UNL     1       7.269   5.190  13.628  0.00  0.00    +0.000 A 
ATOM     23  C   UNL     1       7.572   4.295  12.599  0.00  0.00    +0.000 A 
ENDBRANCH  16  21
ENDBRANCH   1  16
TORSDOF 3
ENDMDL
MODEL 5
REMARK VINA RESULT:      -7.6      1.373      1.761
REMARK  Name = 
REMARK  3 active torsions:
REMARK  status: ('A' for Active; 'I' for Inactive)
REMARK    1  A    between atoms: C_5  and  C_6
REMARK    2  A    between atoms: C_6  and  N_7
REMARK    3  A    between atoms: N_12  and  C_13
REMARK                            x       y       z     vdW  Elec       q    Type
REMARK                         _______ _______ _______ _____ _____    ______ ____
ROOT
ATOM      1  N   UNL     1       6.250   4.466  16.581  0.00  0.00    +0.000 N 
ATOM      2  C   UNL     1       6.743   4.782  17.816  0.00  0.00    +0.000 A 
ATOM      3  N   UNL     1       8.002   4.991  18.137  0.00  0.00    +0.000 NA
ATOM      4  N   UNL     1       8.041   5.174  19.484  0.00  0.00    +0.000 NA
ATOM      5  N   UNL     1       6.831   5.107  20.009  0.00  0.00    +0.000 NA
ATOM      6  N   UNL     1       5.967   4.884  18.989  0.00  0.00    +0.000 N 
ATOM      7  H   UNL     1       5.908   3.508  16.509  0.00  0.00    +0.000 HD
ENDROOT
BRANCH   6   8
ATOM      8  C   UNL     1       4.551   4.892  19.171  0.00  0.00    +0.000 A 
ATOM      9  C   UNL     1       3.835   6.061  18.832  0.00  0.00    +0.000 A 
ATOM     10  C   UNL     1       2.457   6.153  19.036  0.00  0.00    +0.000 A 
ATOM     11  C   UNL     1       1.768   5.085  19.592  0.00  0.00    +0.000 A 
ATOM     12  C   UNL     1       2.451   3.915  19.934  0.00  0.00    +0.000 A 
ATOM     13 CL   UNL     1       1.492   2.640  20.615  0.00  0.00    +0.000 Cl
ATOM     14  C   UNL     1       3.842   3.798  19.722  0.00  0.00    +0.000 A 
ATOM     15 CL   UNL     1       4.582   2.258  20.055  0.00  0.00    +0.000 Cl
ENDBRANCH   6   8
BRANCH   1  16
ATOM     16  C   UNL     1       7.078   4.806  15.426  0.00  0.00    +0.000 C 
BRANCH  16  21
ATOM     17  F   UNL     1       4.767   2.766  10.693  0.00  0.00    +0.000 F 
ATOM     18  C   UNL     1       5.316   3.235  11.821  0.00  0.00    +0.000 A 
ATOM     19  C   UNL     1       4.521   3.437  12.940  0.00  0.00    +0.000 A 
ATOM     20  C   UNL     1       5.092   3.939  14.111  0.00  0.00    +0.000 A 
ATOM     21  C   UNL     1       6.462   4.246  14.160  0.00  0.00    +0.000 A 
ATOM     22  C   UNL     1       7.254   4.010  13.022  0.00  0.00    +0.000 A 
ATOM     23  C   UNL     1       6.678   3.511  11.852  0.00  0.00    +0.000 A 
ENDBRANCH  16  21
ENDBRANCH   1  16
TORSDOF 3
ENDMDL
MODEL 6
REMARK VINA RESULT:      -7.6      0.985      1.001
REMARK  Name = 
REMARK  3 active torsions:
REMARK  status: ('A' for Active; 'I' for Inactive)
REMARK    1  A    between atoms: C_5  and  C_6
REMARK    2  A    between atoms: C_6  and  N_7
REMARK    3  A    between atoms: N_12  and  C_13
REMARK                            x       y       z     vdW  Elec       q    Type
REMARK                         _______ _______ _______ _____ _____    ______ ____
ROOT
ATOM      1  N   UNL     1       5.182   5.394  16.555  0.00  0.00    +0.000 N 
ATOM      2  C   UNL     1       5.966   5.310  17.671  0.00  0.00    +0.000 A 
ATOM      3  N   UNL     1       7.275   5.432  17.731  0.00  0.00    +0.000 NA
ATOM      4  N   UNL     1       7.637   5.178  19.017  0.00  0.00    +0.000 NA
ATOM      5  N   UNL     1       6.581   4.923  19.767  0.00  0.00    +0.000 NA
ATOM      6  N   UNL     1       5.492   5.018  18.967  0.00  0.00    +0.000 N 
ATOM      7  H   UNL     1       4.778   4.502  16.270  0.00  0.00    +0.000 HD
ENDROOT
BRANCH   6   8
ATOM      8  C   UNL     1       4.160   4.939  19.475  0.00  0.00    +0.000 A 
ATOM      9  C   UNL     1       3.365   6.107  19.467  0.00  0.00    +0.000 A 
ATOM     10  C   UNL     1       2.075   6.109  19.999  0.00  0.00    +0.000 A 
ATOM     11  C   UNL     1       1.555   4.951  20.558  0.00  0.00    +0.000 A 
ATOM     12  C   UNL     1       2.318   3.781  20.576  0.00  0.00    +0.000 A 
ATOM     13 CL   UNL     1       1.568   2.389  21.291  0.00  0.00    +0.000 Cl
ATOM     14  C   UNL     1       3.620   3.755  20.030  0.00  0.00    +0.000 A 
ATOM     15 CL   UNL     1       4.442   2.221  19.978  0.00  0.00    +0.000 Cl
ENDBRANCH   6   8
BRANCH   1  16
ATOM     16  C   UNL     1       5.736   6.101  15.403  0.00  0.00    +0.000 C 
BRANCH  16  21
ATOM     17  F   UNL     1       6.883   2.427  11.270  0.00  0.00    +0.000 F 
ATOM     18  C   UNL     1       6.607   3.309  12.239  0.00  0.00    +0.000 A 
ATOM     19  C   UNL     1       7.544   4.274  12.577  0.00  0.00    +0.000 A 
ATOM     20  C   UNL     1       7.260   5.184  13.598  0.00  0.00    +0.000 A 
ATOM     21  C   UNL     1       6.036   5.124  14.285  0.00  0.00    +0.000 A 
ATOM     22  C   UNL     1       5.091   4.154  13.908  0.00  0.00    +0.000 A 
ATOM     23  C   UNL     1       5.381   3.243  12.889  0.00  0.00    +0.000 A 
ENDBRANCH  16  21
ENDBRANCH   1  16
TORSDOF 3
ENDMDL
MODEL 7
REMARK VINA RESULT:      -7.5      1.112      1.674
REMARK  Name = 
REMARK  3 active torsions:
REMARK  status: ('A' for Active; 'I' for Inactive)
REMARK    1  A    between atoms: C_5  and  C_6
REMARK    2  A    between atoms: C_6  and  N_7
REMARK    3  A    between atoms: N_12  and  C_13
REMARK                            x       y       z     vdW  Elec       q    Type
REMARK                         _______ _______ _______ _____ _____    ______ ____
ROOT
ATOM      1  N   UNL     1       5.411   4.594  15.474  0.00  0.00    +0.000 N 
ATOM      2  C   UNL     1       6.142   4.582  16.627  0.00  0.00    +0.000 A 
ATOM      3  N   UNL     1       7.454   4.610  16.735  0.00  0.00    +0.000 NA
ATOM      4  N   UNL     1       7.744   4.481  18.058  0.00  0.00    +0.000 NA
ATOM      5  N   UNL     1       6.643   4.397  18.781  0.00  0.00    +0.000 NA
ATOM      6  N   UNL     1       5.597   4.481  17.924  0.00  0.00    +0.000 N 
ATOM      7  H   UNL     1       4.947   3.709  15.273  0.00  0.00    +0.000 HD
ENDROOT
BRANCH   6   8
ATOM      8  C   UNL     1       4.244   4.563  18.374  0.00  0.00    +0.000 A 
ATOM      9  C   UNL     1       3.783   5.790  18.901  0.00  0.00    +0.000 A 
ATOM     10  C   UNL     1       2.489   5.921  19.406  0.00  0.00    +0.000 A 
ATOM     11  C   UNL     1       1.633   4.830  19.408  0.00  0.00    +0.000 A 
ATOM     12  C   UNL     1       2.062   3.605  18.890  0.00  0.00    +0.000 A 
ATOM     13 CL   UNL     1       0.909   2.310  18.933  0.00  0.00    +0.000 Cl
ATOM     14  C   UNL     1       3.362   3.456  18.361  0.00  0.00    +0.000 A 
ATOM     15 CL   UNL     1       3.761   1.933  17.619  0.00  0.00    +0.000 Cl
ENDBRANCH   6   8
BRANCH   1  16
ATOM     16  C   UNL     1       6.064   5.118  14.276  0.00  0.00    +0.000 C 
BRANCH  16  21
ATOM     17  F   UNL     1       6.267   1.170  10.242  0.00  0.00    +0.000 F 
ATOM     18  C   UNL     1       6.218   2.095  11.209  0.00  0.00    +0.000 A 
ATOM     19  C   UNL     1       4.992   2.465  11.745  0.00  0.00    +0.000 A 
ATOM     20  C   UNL     1       4.943   3.440  12.743  0.00  0.00    +0.000 A 
ATOM     21  C   UNL     1       6.122   4.050  13.203  0.00  0.00    +0.000 A 
ATOM     22  C   UNL     1       7.354   3.640  12.664  0.00  0.00    +0.000 A 
ATOM     23  C   UNL     1       7.400   2.668  11.663  0.00  0.00    +0.000 A 
ENDBRANCH  16  21
ENDBRANCH   1  16
TORSDOF 3
ENDMDL
MODEL 8
REMARK VINA RESULT:      -7.5      4.096      6.937
REMARK  Name = 
REMARK  3 active torsions:
REMARK  status: ('A' for Active; 'I' for Inactive)
REMARK    1  A    between atoms: C_5  and  C_6
REMARK    2  A    between atoms: C_6  and  N_7
REMARK    3  A    between atoms: N_12  and  C_13
REMARK                            x       y       z     vdW  Elec       q    Type
REMARK                         _______ _______ _______ _____ _____    ______ ____
ROOT
ATOM      1  N   UNL     1       2.880   6.171  20.228  0.00  0.00    +0.000 N 
ATOM      2  C   UNL     1       2.965   4.814  20.359  0.00  0.00    +0.000 A 
ATOM      3  N   UNL     1       2.209   4.041  21.110  0.00  0.00    +0.000 NA
ATOM      4  N   UNL     1       2.711   2.780  21.010  0.00  0.00    +0.000 NA
ATOM      5  N   UNL     1       3.749   2.745  20.195  0.00  0.00    +0.000 NA
ATOM      6  N   UNL     1       3.937   4.005  19.735  0.00  0.00    +0.000 N 
ATOM      7  H   UNL     1       3.657   6.674  20.656  0.00  0.00    +0.000 HD
ENDROOT
BRANCH   6   8
ATOM      8  C   UNL     1       4.894   4.314  18.721  0.00  0.00    +0.000 A 
ATOM      9  C   UNL     1       6.130   4.875  19.109  0.00  0.00    +0.000 A 
ATOM     10  C   UNL     1       7.086   5.249  18.163  0.00  0.00    +0.000 A 
ATOM     11  C   UNL     1       6.823   5.081  16.811  0.00  0.00    +0.000 A 
ATOM     12  C   UNL     1       5.610   4.525  16.399  0.00  0.00    +0.000 A 
ATOM     13 CL   UNL     1       5.389   4.352  14.687  0.00  0.00    +0.000 Cl
ATOM     14  C   UNL     1       4.636   4.128  17.342  0.00  0.00    +0.000 A 
ATOM     15 CL   UNL     1       3.214   3.324  16.741  0.00  0.00    +0.000 Cl
ENDBRANCH   6   8
BRANCH   1  16
ATOM     16  C   UNL     1       1.606   6.796  20.578  0.00  0.00    +0.000 C 
BRANCH  16  21
ATOM     17  F   UNL     1       1.248  11.899  18.184  0.00  0.00    +0.000 F 
ATOM     18  C   UNL     1       1.318  10.686  18.747  0.00  0.00    +0.000 A 
ATOM     19  C   UNL     1       0.792  10.485  20.016  0.00  0.00    +0.000 A 
ATOM     20  C   UNL     1       0.879   9.224  20.607  0.00  0.00    +0.000 A 
ATOM     21  C   UNL     1       1.499   8.161  19.929  0.00  0.00    +0.000 A 
ATOM     22  C   UNL     1       2.002   8.380  18.635  0.00  0.00    +0.000 A 
ATOM     23  C   UNL     1       1.916   9.645  18.048  0.00  0.00    +0.000 A 
ENDBRANCH  16  21
ENDBRANCH   1  16
TORSDOF 3
ENDMDL
MODEL 9
REMARK VINA RESULT:      -7.5      4.025      6.859
REMARK  Name = 
REMARK  3 active torsions:
REMARK  status: ('A' for Active; 'I' for Inactive)
REMARK    1  A    between atoms: C_5  and  C_6
REMARK    2  A    between atoms: C_6  and  N_7
REMARK    3  A    between atoms: N_12  and  C_13
REMARK                            x       y       z     vdW  Elec       q    Type
REMARK                         _______ _______ _______ _____ _____    ______ ____
ROOT
ATOM      1  N   UNL     1       3.060   6.032  20.077  0.00  0.00    +0.000 N 
ATOM      2  C   UNL     1       3.211   4.683  20.229  0.00  0.00    +0.000 A 
ATOM      3  N   UNL     1       2.515   3.891  21.017  0.00  0.00    +0.000 NA
ATOM      4  N   UNL     1       3.071   2.653  20.924  0.00  0.00    +0.000 NA
ATOM      5  N   UNL     1       4.085   2.649  20.078  0.00  0.00    +0.000 NA
ATOM      6  N   UNL     1       4.201   3.908  19.590  0.00  0.00    +0.000 N 
ATOM      7  H   UNL     1       3.825   6.578  20.472  0.00  0.00    +0.000 HD
ENDROOT
BRANCH   6   8
ATOM      8  C   UNL     1       5.111   4.241  18.541  0.00  0.00    +0.000 A 
ATOM      9  C   UNL     1       6.371   4.777  18.887  0.00  0.00    +0.000 A 
ATOM     10  C   UNL     1       7.284   5.172  17.909  0.00  0.00    +0.000 A 
ATOM     11  C   UNL     1       6.956   5.051  16.567  0.00  0.00    +0.000 A 
ATOM     12  C   UNL     1       5.717   4.521  16.196  0.00  0.00    +0.000 A 
ATOM     13 CL   UNL     1       5.413   4.407  14.492  0.00  0.00    +0.000 Cl
ATOM     14  C   UNL     1       4.785   4.102  17.171  0.00  0.00    +0.000 A 
ATOM     15 CL   UNL     1       3.327   3.333  16.614  0.00  0.00    +0.000 Cl
ENDBRANCH   6   8
BRANCH   1  16
ATOM     16  C   UNL     1       1.770   6.605  20.455  0.00  0.00    +0.000 C 
BRANCH  16  21
ATOM     17  F   UNL     1       1.158  11.744  18.194  0.00  0.00    +0.000 F 
ATOM     18  C   UNL     1       1.318  10.530  18.734  0.00  0.00    +0.000 A 
ATOM     19  C   UNL     1       1.950   9.531  18.006  0.00  0.00    +0.000 A 
ATOM     20  C   UNL     1       2.103   8.261  18.566  0.00  0.00    +0.000 A 
ATOM     21  C   UNL     1       1.617   7.988  19.856  0.00  0.00    +0.000 A 
ATOM     22  C   UNL     1       1.003   9.022  20.585  0.00  0.00    +0.000 A 
ATOM     23  C   UNL     1       0.849  10.290  20.020  0.00  0.00    +0.000 A 
ENDBRANCH  16  21
ENDBRANCH   1  16
TORSDOF 3
ENDMDL
