MODEL 1
REMARK VINA RESULT:      -8.6      0.000      0.000
REMARK  Name = 
REMARK  5 active torsions:
REMARK  status: ('A' for Active; 'I' for Inactive)
REMARK    1  A    between atoms: C_1  and  C_2
REMARK    2  A    between atoms: N_6  and  C_7
REMARK    3  A    between atoms: C_10  and  N_11
REMARK    4  A    between atoms: N_11  and  C_12
REMARK    5  A    between atoms: C_12  and  C_13
REMARK                            x       y       z     vdW  Elec       q    Type
REMARK                         _______ _______ _______ _____ _____    ______ ____
ROOT
ATOM      1  N   UNL     1       3.618   5.450  18.657  0.00  0.00    +0.000 N 
ATOM      2  H   UNL     1       3.291   4.912  17.857  0.00  0.00    +0.000 HD
ENDROOT
BRANCH   1   6
ATOM      3  C   UNL     1       1.428   9.028  19.232  0.00  0.00    +0.000 A 
ATOM      4  C   UNL     1       1.542   8.082  20.255  0.00  0.00    +0.000 A 
ATOM      5  C   UNL     1       2.252   6.894  20.032  0.00  0.00    +0.000 A 
ATOM      6  C   UNL     1       2.861   6.624  18.797  0.00  0.00    +0.000 A 
ATOM      7  C   UNL     1       2.808   7.624  17.820  0.00  0.00    +0.000 A 
ATOM      8  C   UNL     1       2.083   8.804  18.020  0.00  0.00    +0.000 A 
BRANCH   3  14
ATOM      9  C   UNL     1      -1.228  10.061  17.801  0.00  0.00    +0.000 C 
ATOM     10  C   UNL     1      -0.365  10.774  18.769  0.00  0.00    +0.000 A 
ATOM     11  N   UNL     1      -0.591  11.977  19.257  0.00  0.00    +0.000 NA
ATOM     12  N   UNL     1       0.273  12.135  20.306  0.00  0.00    +0.000 NA
ATOM     13  N   UNL     1       1.010  11.049  20.482  0.00  0.00    +0.000 NA
ATOM     14  N   UNL     1       0.704  10.221  19.457  0.00  0.00    +0.000 N 
ENDBRANCH   3  14
ENDBRANCH   1   6
BRANCH   1  15
ATOM     15  C   UNL     1       5.081   5.584  18.624  0.00  0.00    +0.000 C 
BRANCH  15  16
ATOM     16  C   UNL     1       5.605   5.417  17.224  0.00  0.00    +0.000 A 
ATOM     17  C   UNL     1       5.088   4.611  16.277  0.00  0.00    +0.000 A 
ATOM     18  C   UNL     1       5.731   4.474  14.969  0.00  0.00    +0.000 A 
ATOM     19  C   UNL     1       5.171   3.687  13.961  0.00  0.00    +0.000 A 
ATOM     20  C   UNL     1       5.839   3.555  12.742  0.00  0.00    +0.000 A 
ATOM     21 CL   UNL     1       5.138   2.611  11.485  0.00  0.00    +0.000 Cl
ATOM     22  C   UNL     1       7.066   4.185  12.528  0.00  0.00    +0.000 A 
ATOM     23  C   UNL     1       7.624   4.981  13.530  0.00  0.00    +0.000 A 
ATOM     24  C   UNL     1       6.945   5.134  14.739  0.00  0.00    +0.000 A 
ATOM     25  N   UNL     1       7.464   5.975  15.729  0.00  0.00    +0.000 N 
ATOM     26  C   UNL     1       6.848   6.201  16.931  0.00  0.00    +0.000 A 
ATOM     27  O   UNL     1       7.312   6.999  17.742  0.00  0.00    +0.000 OA
ATOM     28  H   UNL     1       8.314   6.496  15.566  0.00  0.00    +0.000 HD
ENDBRANCH  15  16
ENDBRANCH   1  15
TORSDOF 4
ENDMDL
MODEL 2
REMARK VINA RESULT:      -8.4      0.809      1.251
REMARK  Name = 
REMARK  5 active torsions:
REMARK  status: ('A' for Active; 'I' for Inactive)
REMARK    1  A    between atoms: C_1  and  C_2
REMARK    2  A    between atoms: N_6  and  C_7
REMARK    3  A    between atoms: C_10  and  N_11
REMARK    4  A    between atoms: N_11  and  C_12
REMARK    5  A    between atoms: C_12  and  C_13
REMARK                            x       y       z     vdW  Elec       q    Type
REMARK                         _______ _______ _______ _____ _____    ______ ____
ROOT
ATOM      1  N   UNL     1       3.613   5.774  18.099  0.00  0.00    +0.000 N 
ATOM      2  H   UNL     1       3.242   5.642  17.160  0.00  0.00    +0.000 HD
ENDROOT
BRANCH   1   6
ATOM      3  C   UNL     1       1.372   8.846  19.963  0.00  0.00    +0.000 A 
ATOM      4  C   UNL     1       1.791   8.966  18.634  0.00  0.00    +0.000 A 
ATOM      5  C   UNL     1       2.553   7.946  18.047  0.00  0.00    +0.000 A 
ATOM      6  C   UNL     1       2.910   6.793  18.762  0.00  0.00    +0.000 A 
ATOM      7  C   UNL     1       2.404   6.656  20.059  0.00  0.00    +0.000 A 
ATOM      8  C   UNL     1       1.663   7.676  20.667  0.00  0.00    +0.000 A 
BRANCH   3  14
ATOM      9  C   UNL     1      -1.251  10.285  18.862  0.00  0.00    +0.000 C 
ATOM     10  C   UNL     1      -0.444  10.627  20.053  0.00  0.00    +0.000 A 
ATOM     11  N   UNL     1      -0.718  11.584  20.917  0.00  0.00    +0.000 NA
ATOM     12  N   UNL     1       0.101  11.377  21.993  0.00  0.00    +0.000 NA
ATOM     13  N   UNL     1       0.857  10.305  21.815  0.00  0.00    +0.000 NA
ATOM     14  N   UNL     1       0.611   9.880  20.554  0.00  0.00    +0.000 N 
ENDBRANCH   3  14
ENDBRANCH   1   6
BRANCH   1  15
ATOM     15  C   UNL     1       5.079   5.870  18.066  0.00  0.00    +0.000 C 
BRANCH  15  16
ATOM     16  C   UNL     1       5.607   5.546  16.695  0.00  0.00    +0.000 A 
ATOM     17  C   UNL     1       5.023   4.735  15.794  0.00  0.00    +0.000 A 
ATOM     18  C   UNL     1       5.671   4.434  14.516  0.00  0.00    +0.000 A 
ATOM     19  C   UNL     1       5.047   3.642  13.550  0.00  0.00    +0.000 A 
ATOM     20  C   UNL     1       5.719   3.350  12.362  0.00  0.00    +0.000 A 
ATOM     21 CL   UNL     1       4.942   2.399  11.157  0.00  0.00    +0.000 Cl
ATOM     22  C   UNL     1       7.012   3.826  12.137  0.00  0.00    +0.000 A 
ATOM     23  C   UNL     1       7.635   4.627  13.096  0.00  0.00    +0.000 A 
ATOM     24  C   UNL     1       6.955   4.941  14.272  0.00  0.00    +0.000 A 
ATOM     25  N   UNL     1       7.544   5.789  15.215  0.00  0.00    +0.000 N 
ATOM     26  C   UNL     1       6.934   6.167  16.381  0.00  0.00    +0.000 A 
ATOM     27  O   UNL     1       7.468   6.967  17.147  0.00  0.00    +0.000 OA
ATOM     28  H   UNL     1       8.450   6.201  15.039  0.00  0.00    +0.000 HD
ENDBRANCH  15  16
ENDBRANCH   1  15
TORSDOF 4
ENDMDL
MODEL 3
REMARK VINA RESULT:      -8.3      1.229      1.807
REMARK  Name = 
REMARK  5 active torsions:
REMARK  status: ('A' for Active; 'I' for Inactive)
REMARK    1  A    between atoms: C_1  and  C_2
REMARK    2  A    between atoms: N_6  and  C_7
REMARK    3  A    between atoms: C_10  and  N_11
REMARK    4  A    between atoms: N_11  and  C_12
REMARK    5  A    between atoms: C_12  and  C_13
REMARK                            x       y       z     vdW  Elec       q    Type
REMARK                         _______ _______ _______ _____ _____    ______ ____
ROOT
ATOM      1  N   UNL     1       4.166   4.501  18.668  0.00  0.00    +0.000 N 
ATOM      2  H   UNL     1       3.752   4.034  17.863  0.00  0.00    +0.000 HD
ENDROOT
BRANCH   1   6
ATOM      3  C   UNL     1       1.827   7.922  19.539  0.00  0.00    +0.000 A 
ATOM      4  C   UNL     1       2.601   7.857  18.376  0.00  0.00    +0.000 A 
ATOM      5  C   UNL     1       3.386   6.724  18.122  0.00  0.00    +0.000 A 
ATOM      6  C   UNL     1       3.416   5.638  19.011  0.00  0.00    +0.000 A 
ATOM      7  C   UNL     1       2.566   5.690  20.121  0.00  0.00    +0.000 A 
ATOM      8  C   UNL     1       1.796   6.824  20.400  0.00  0.00    +0.000 A 
BRANCH   3  14
ATOM      9  C   UNL     1       1.093   9.262  22.337  0.00  0.00    +0.000 C 
ATOM     10  C   UNL     1       0.584   9.604  20.990  0.00  0.00    +0.000 A 
ATOM     11  N   UNL     1      -0.245  10.589  20.710  0.00  0.00    +0.000 NA
ATOM     12  N   UNL     1      -0.230  10.728  19.349  0.00  0.00    +0.000 NA
ATOM     13  N   UNL     1       0.603   9.864  18.792  0.00  0.00    +0.000 NA
ATOM     14  N   UNL     1       1.043   9.070  19.796  0.00  0.00    +0.000 N 
ENDBRANCH   3  14
ENDBRANCH   1   6
BRANCH   1  15
ATOM     15  C   UNL     1       5.613   4.672  18.478  0.00  0.00    +0.000 C 
BRANCH  15  16
ATOM     16  C   UNL     1       5.960   4.714  17.014  0.00  0.00    +0.000 A 
ATOM     17  C   UNL     1       5.358   4.010  16.038  0.00  0.00    +0.000 A 
ATOM     18  C   UNL     1       5.835   4.076  14.656  0.00  0.00    +0.000 A 
ATOM     19  C   UNL     1       5.181   3.396  13.626  0.00  0.00    +0.000 A 
ATOM     20  C   UNL     1       5.694   3.457  12.329  0.00  0.00    +0.000 A 
ATOM     21 CL   UNL     1       4.875   2.646  11.051  0.00  0.00    +0.000 Cl
ATOM     22  C   UNL     1       6.860   4.174  12.055  0.00  0.00    +0.000 A 
ATOM     23  C   UNL     1       7.510   4.863  13.080  0.00  0.00    +0.000 A 
ATOM     24  C   UNL     1       6.984   4.824  14.371  0.00  0.00    +0.000 A 
ATOM     25  N   UNL     1       7.593   5.557  15.395  0.00  0.00    +0.000 N 
ATOM     26  C   UNL     1       7.126   5.594  16.681  0.00  0.00    +0.000 A 
ATOM     27  O   UNL     1       7.660   6.305  17.530  0.00  0.00    +0.000 OA
ATOM     28  H   UNL     1       8.396   6.139  15.201  0.00  0.00    +0.000 HD
ENDBRANCH  15  16
ENDBRANCH   1  15
TORSDOF 4
ENDMDL
MODEL 4
REMARK VINA RESULT:      -8.3      4.316      8.943
REMARK  Name = 
REMARK  5 active torsions:
REMARK  status: ('A' for Active; 'I' for Inactive)
REMARK    1  A    between atoms: C_1  and  C_2
REMARK    2  A    between atoms: N_6  and  C_7
REMARK    3  A    between atoms: C_10  and  N_11
REMARK    4  A    between atoms: N_11  and  C_12
REMARK    5  A    between atoms: C_12  and  C_13
REMARK                            x       y       z     vdW  Elec       q    Type
REMARK                         _______ _______ _______ _____ _____    ______ ____
ROOT
ATOM      1  N   UNL     1       2.132   8.985  18.251  0.00  0.00    +0.000 N 
ATOM      2  H   UNL     1       1.667   9.062  17.348  0.00  0.00    +0.000 HD
ENDROOT
BRANCH   1   6
ATOM      3  C   UNL     1       3.441   5.022  18.962  0.00  0.00    +0.000 A 
ATOM      4  C   UNL     1       3.835   5.714  17.812  0.00  0.00    +0.000 A 
ATOM      5  C   UNL     1       3.368   7.017  17.587  0.00  0.00    +0.000 A 
ATOM      6  C   UNL     1       2.509   7.655  18.495  0.00  0.00    +0.000 A 
ATOM      7  C   UNL     1       2.202   6.976  19.679  0.00  0.00    +0.000 A 
ATOM      8  C   UNL     1       2.640   5.666  19.906  0.00  0.00    +0.000 A 
BRANCH   3  14
ATOM      9  C   UNL     1       2.290   2.274  17.826  0.00  0.00    +0.000 C 
ATOM     10  C   UNL     1       3.359   2.481  18.827  0.00  0.00    +0.000 A 
ATOM     11  N   UNL     1       4.075   1.531  19.394  0.00  0.00    +0.000 NA
ATOM     12  N   UNL     1       5.117   2.156  20.022  0.00  0.00    +0.000 NA
ATOM     13  N   UNL     1       5.066   3.466  19.837  0.00  0.00    +0.000 NA
ATOM     14  N   UNL     1       3.907   3.705  19.181  0.00  0.00    +0.000 N 
ENDBRANCH   3  14
ENDBRANCH   1   6
BRANCH   1  15
ATOM     15  C   UNL     1       1.356   9.674  19.291  0.00  0.00    +0.000 C 
BRANCH  15  16
ATOM     16  C   UNL     1      -0.012  10.043  18.784  0.00  0.00    +0.000 A 
ATOM     17  C   UNL     1      -0.502   9.769  17.561  0.00  0.00    +0.000 A 
ATOM     18  C   UNL     1      -1.825  10.247  17.153  0.00  0.00    +0.000 A 
ATOM     19  C   UNL     1      -2.366   9.919  15.909  0.00  0.00    +0.000 A 
ATOM     20  C   UNL     1      -3.615  10.428  15.548  0.00  0.00    +0.000 A 
ATOM     21 CL   UNL     1      -4.300  10.002  14.027  0.00  0.00    +0.000 Cl
ATOM     22  C   UNL     1      -4.318  11.273  16.408  0.00  0.00    +0.000 A 
ATOM     23  C   UNL     1      -3.784  11.594  17.657  0.00  0.00    +0.000 A 
ATOM     24  C   UNL     1      -2.549  11.066  18.030  0.00  0.00    +0.000 A 
ATOM     25  N   UNL     1      -2.029  11.333  19.301  0.00  0.00    +0.000 N 
ATOM     26  C   UNL     1      -0.838  10.832  19.753  0.00  0.00    +0.000 A 
ATOM     27  O   UNL     1      -0.456  11.044  20.902  0.00  0.00    +0.000 OA
ATOM     28  H   UNL     1      -2.555  11.884  19.964  0.00  0.00    +0.000 HD
ENDBRANCH  15  16
ENDBRANCH   1  15
TORSDOF 4
ENDMDL
MODEL 5
REMARK VINA RESULT:      -8.3      4.507      8.923
REMARK  Name = 
REMARK  5 active torsions:
REMARK  status: ('A' for Active; 'I' for Inactive)
REMARK    1  A    between atoms: C_1  and  C_2
REMARK    2  A    between atoms: N_6  and  C_7
REMARK    3  A    between atoms: C_10  and  N_11
REMARK    4  A    between atoms: N_11  and  C_12
REMARK    5  A    between atoms: C_12  and  C_13
REMARK                            x       y       z     vdW  Elec       q    Type
REMARK                         _______ _______ _______ _____ _____    ______ ____
ROOT
ATOM      1  N   UNL     1       1.813   9.579  18.784  0.00  0.00    +0.000 N 
ATOM      2  H   UNL     1       1.519   9.792  17.832  0.00  0.00    +0.000 HD
ENDROOT
BRANCH   1   6
ATOM      3  C   UNL     1       3.057   5.542  19.065  0.00  0.00    +0.000 A 
ATOM      4  C   UNL     1       2.299   6.134  20.080  0.00  0.00    +0.000 A 
ATOM      5  C   UNL     1       1.920   7.479  19.976  0.00  0.00    +0.000 A 
ATOM      6  C   UNL     1       2.282   8.258  18.867  0.00  0.00    +0.000 A 
ATOM      7  C   UNL     1       2.964   7.621  17.825  0.00  0.00    +0.000 A 
ATOM      8  C   UNL     1       3.370   6.285  17.926  0.00  0.00    +0.000 A 
BRANCH   3  14
ATOM      9  C   UNL     1       1.340   2.913  18.513  0.00  0.00    +0.000 C 
ATOM     10  C   UNL     1       2.699   3.022  19.086  0.00  0.00    +0.000 A 
ATOM     11  N   UNL     1       3.473   2.010  19.424  0.00  0.00    +0.000 NA
ATOM     12  N   UNL     1       4.719   2.533  19.636  0.00  0.00    +0.000 NA
ATOM     13  N   UNL     1       4.730   3.838  19.417  0.00  0.00    +0.000 NA
ATOM     14  N   UNL     1       3.445   4.187  19.178  0.00  0.00    +0.000 N 
ENDBRANCH   3  14
ENDBRANCH   1   6
BRANCH   1  15
ATOM     15  C   UNL     1       0.784   9.998  19.746  0.00  0.00    +0.000 C 
BRANCH  15  16
ATOM     16  C   UNL     1      -0.508  10.318  19.046  0.00  0.00    +0.000 A 
ATOM     17  C   UNL     1      -0.849   9.936  17.801  0.00  0.00    +0.000 A 
ATOM     18  C   UNL     1      -2.107  10.374  17.194  0.00  0.00    +0.000 A 
ATOM     19  C   UNL     1      -2.497   9.935  15.927  0.00  0.00    +0.000 A 
ATOM     20  C   UNL     1      -3.687  10.409  15.372  0.00  0.00    +0.000 A 
ATOM     21 CL   UNL     1      -4.187   9.848  13.824  0.00  0.00    +0.000 Cl
ATOM     22  C   UNL     1      -4.481  11.327  16.062  0.00  0.00    +0.000 A 
ATOM     23  C   UNL     1      -4.100  11.759  17.334  0.00  0.00    +0.000 A 
ATOM     24  C   UNL     1      -2.924  11.267  17.899  0.00  0.00    +0.000 A 
ATOM     25  N   UNL     1      -2.560  11.647  19.195  0.00  0.00    +0.000 N 
ATOM     26  C   UNL     1      -1.438  11.190  19.833  0.00  0.00    +0.000 A 
ATOM     27  O   UNL     1      -1.197  11.505  20.996  0.00  0.00    +0.000 OA
ATOM     28  H   UNL     1      -3.158  12.255  19.738  0.00  0.00    +0.000 HD
ENDBRANCH  15  16
ENDBRANCH   1  15
TORSDOF 4
ENDMDL
MODEL 6
REMARK VINA RESULT:      -8.2      0.998      1.204
REMARK  Name = 
REMARK  5 active torsions:
REMARK  status: ('A' for Active; 'I' for Inactive)
REMARK    1  A    between atoms: C_1  and  C_2
REMARK    2  A    between atoms: N_6  and  C_7
REMARK    3  A    between atoms: C_10  and  N_11
REMARK    4  A    between atoms: N_11  and  C_12
REMARK    5  A    between atoms: C_12  and  C_13
REMARK                            x       y       z     vdW  Elec       q    Type
REMARK                         _______ _______ _______ _____ _____    ______ ____
ROOT
ATOM      1  N   UNL     1       3.748   5.587  18.124  0.00  0.00    +0.000 N 
ATOM      2  H   UNL     1       3.381   5.180  17.265  0.00  0.00    +0.000 HD
ENDROOT
BRANCH   1   6
ATOM      3  C   UNL     1       1.437   8.856  19.504  0.00  0.00    +0.000 A 
ATOM      4  C   UNL     1       1.731   7.777  20.344  0.00  0.00    +0.000 A 
ATOM      5  C   UNL     1       2.477   6.695  19.856  0.00  0.00    +0.000 A 
ATOM      6  C   UNL     1       2.945   6.664  18.534  0.00  0.00    +0.000 A 
ATOM      7  C   UNL     1       2.714   7.793  17.741  0.00  0.00    +0.000 A 
ATOM      8  C   UNL     1       1.950   8.870  18.206  0.00  0.00    +0.000 A 
BRANCH   3  14
ATOM      9  C   UNL     1      -0.418   8.992  22.094  0.00  0.00    +0.000 C 
ATOM     10  C   UNL     1      -0.247  10.005  21.029  0.00  0.00    +0.000 A 
ATOM     11  N   UNL     1      -0.812  11.195  21.003  0.00  0.00    +0.000 NA
ATOM     12  N   UNL     1      -0.178  11.901  20.018  0.00  0.00    +0.000 NA
ATOM     13  N   UNL     1       0.775  11.176  19.453  0.00  0.00    +0.000 NA
ATOM     14  N   UNL     1       0.677   9.941  19.996  0.00  0.00    +0.000 N 
ENDBRANCH   3  14
ENDBRANCH   1   6
BRANCH   1  15
ATOM     15  C   UNL     1       5.194   5.822  18.007  0.00  0.00    +0.000 C 
BRANCH  15  16
ATOM     16  C   UNL     1       5.681   5.491  16.622  0.00  0.00    +0.000 A 
ATOM     17  C   UNL     1       5.042   4.721  15.722  0.00  0.00    +0.000 A 
ATOM     18  C   UNL     1       5.652   4.406  14.429  0.00  0.00    +0.000 A 
ATOM     19  C   UNL     1       4.973   3.657  13.466  0.00  0.00    +0.000 A 
ATOM     20  C   UNL     1       5.609   3.349  12.262  0.00  0.00    +0.000 A 
ATOM     21 CL   UNL     1       4.765   2.452  11.059  0.00  0.00    +0.000 Cl
ATOM     22  C   UNL     1       6.919   3.765  12.019  0.00  0.00    +0.000 A 
ATOM     23  C   UNL     1       7.597   4.522  12.976  0.00  0.00    +0.000 A 
ATOM     24  C   UNL     1       6.954   4.853  14.168  0.00  0.00    +0.000 A 
ATOM     25  N   UNL     1       7.600   5.660  15.110  0.00  0.00    +0.000 N 
ATOM     26  C   UNL     1       7.030   6.052  16.292  0.00  0.00    +0.000 A 
ATOM     27  O   UNL     1       7.616   6.814  17.057  0.00  0.00    +0.000 OA
ATOM     28  H   UNL     1       8.522   6.030  14.922  0.00  0.00    +0.000 HD
ENDBRANCH  15  16
ENDBRANCH   1  15
TORSDOF 4
ENDMDL
MODEL 7
REMARK VINA RESULT:      -8.1      5.570      7.418
REMARK  Name = 
REMARK  5 active torsions:
REMARK  status: ('A' for Active; 'I' for Inactive)
REMARK    1  A    between atoms: C_1  and  C_2
REMARK    2  A    between atoms: N_6  and  C_7
REMARK    3  A    between atoms: C_10  and  N_11
REMARK    4  A    between atoms: N_11  and  C_12
REMARK    5  A    between atoms: C_12  and  C_13
REMARK                            x       y       z     vdW  Elec       q    Type
REMARK                         _______ _______ _______ _____ _____    ______ ____
ROOT
ATOM      1  N   UNL     1       7.705   7.954  17.508  0.00  0.00    +0.000 N 
ATOM      2  H   UNL     1       8.078   7.780  16.576  0.00  0.00    +0.000 HD
ENDROOT
BRANCH   1   6
ATOM      3  C   UNL     1       9.349  11.548  19.027  0.00  0.00    +0.000 A 
ATOM      4  C   UNL     1       9.573  10.326  19.669  0.00  0.00    +0.000 A 
ATOM      5  C   UNL     1       8.998   9.154  19.161  0.00  0.00    +0.000 A 
ATOM      6  C   UNL     1       8.195   9.170  18.010  0.00  0.00    +0.000 A 
ATOM      7  C   UNL     1       8.058  10.389  17.337  0.00  0.00    +0.000 A 
ATOM      8  C   UNL     1       8.607  11.571  17.846  0.00  0.00    +0.000 A 
BRANCH   3  14
ATOM      9  C   UNL     1      12.055  13.003  18.177  0.00  0.00    +0.000 C 
ATOM     10  C   UNL     1      11.157  13.318  19.310  0.00  0.00    +0.000 A 
ATOM     11  N   UNL     1      11.305  14.321  20.151  0.00  0.00    +0.000 NA
ATOM     12  N   UNL     1      10.131  14.415  20.847  0.00  0.00    +0.000 NA
ATOM     13  N   UNL     1       9.261  13.505  20.438  0.00  0.00    +0.000 NA
ATOM     14  N   UNL     1       9.924  12.730  19.548  0.00  0.00    +0.000 N 
ENDBRANCH   3  14
ENDBRANCH   1   6
BRANCH   1  15
ATOM     15  C   UNL     1       7.850   6.761  18.353  0.00  0.00    +0.000 C 
BRANCH  15  16
ATOM     16  C   UNL     1       6.661   5.850  18.205  0.00  0.00    +0.000 A 
ATOM     17  C   UNL     1       5.593   5.806  19.022  0.00  0.00    +0.000 A 
ATOM     18  C   UNL     1       4.528   4.822  18.821  0.00  0.00    +0.000 A 
ATOM     19  C   UNL     1       3.388   4.806  19.627  0.00  0.00    +0.000 A 
ATOM     20  C   UNL     1       2.416   3.825  19.422  0.00  0.00    +0.000 A 
ATOM     21 CL   UNL     1       0.995   3.820  20.392  0.00  0.00    +0.000 Cl
ATOM     22  C   UNL     1       2.580   2.852  18.434  0.00  0.00    +0.000 A 
ATOM     23  C   UNL     1       3.713   2.872  17.620  0.00  0.00    +0.000 A 
ATOM     24  C   UNL     1       4.673   3.866  17.806  0.00  0.00    +0.000 A 
ATOM     25  N   UNL     1       5.785   3.932  16.960  0.00  0.00    +0.000 N 
ATOM     26  C   UNL     1       6.757   4.891  17.059  0.00  0.00    +0.000 A 
ATOM     27  O   UNL     1       7.681   4.943  16.250  0.00  0.00    +0.000 OA
ATOM     28  H   UNL     1       5.885   3.280  16.194  0.00  0.00    +0.000 HD
ENDBRANCH  15  16
ENDBRANCH   1  15
TORSDOF 4
ENDMDL
MODEL 8
REMARK VINA RESULT:      -8.1      5.519      7.427
REMARK  Name = 
REMARK  5 active torsions:
REMARK  status: ('A' for Active; 'I' for Inactive)
REMARK    1  A    between atoms: C_1  and  C_2
REMARK    2  A    between atoms: N_6  and  C_7
REMARK    3  A    between atoms: C_10  and  N_11
REMARK    4  A    between atoms: N_11  and  C_12
REMARK    5  A    between atoms: C_12  and  C_13
REMARK                            x       y       z     vdW  Elec       q    Type
REMARK                         _______ _______ _______ _____ _____    ______ ____
ROOT
ATOM      1  N   UNL     1       8.083   7.748  18.340  0.00  0.00    +0.000 N 
ATOM      2  H   UNL     1       7.781   7.462  19.270  0.00  0.00    +0.000 HD
ENDROOT
BRANCH   1   6
ATOM      3  C   UNL     1       9.073  11.865  18.372  0.00  0.00    +0.000 A 
ATOM      4  C   UNL     1       8.133  11.358  17.470  0.00  0.00    +0.000 A 
ATOM      5  C   UNL     1       7.841   9.987  17.462  0.00  0.00    +0.000 A 
ATOM      6  C   UNL     1       8.470   9.098  18.346  0.00  0.00    +0.000 A 
ATOM      7  C   UNL     1       9.339   9.642  19.298  0.00  0.00    +0.000 A 
ATOM      8  C   UNL     1       9.659  11.004  19.302  0.00  0.00    +0.000 A 
BRANCH   3  14
ATOM      9  C   UNL     1      11.284  13.436  16.696  0.00  0.00    +0.000 C 
ATOM     10  C   UNL     1      10.407  13.948  17.772  0.00  0.00    +0.000 A 
ATOM     11  N   UNL     1      10.357  15.196  18.192  0.00  0.00    +0.000 NA
ATOM     12  N   UNL     1       9.240  15.292  18.976  0.00  0.00    +0.000 NA
ATOM     13  N   UNL     1       8.596  14.137  19.031  0.00  0.00    +0.000 NA
ATOM     14  N   UNL     1       9.372  13.247  18.371  0.00  0.00    +0.000 N 
ENDBRANCH   3  14
ENDBRANCH   1   6
BRANCH   1  15
ATOM     15  C   UNL     1       7.106   7.324  17.327  0.00  0.00    +0.000 C 
BRANCH  15  16
ATOM     16  C   UNL     1       6.252   6.198  17.844  0.00  0.00    +0.000 A 
ATOM     17  C   UNL     1       5.007   6.314  18.339  0.00  0.00    +0.000 A 
ATOM     18  C   UNL     1       4.300   5.153  18.884  0.00  0.00    +0.000 A 
ATOM     19  C   UNL     1       2.986   5.251  19.347  0.00  0.00    +0.000 A 
ATOM     20  C   UNL     1       2.365   4.126  19.893  0.00  0.00    +0.000 A 
ATOM     21 CL   UNL     1       0.736   4.234  20.436  0.00  0.00    +0.000 Cl
ATOM     22  C   UNL     1       3.048   2.913  19.997  0.00  0.00    +0.000 A 
ATOM     23  C   UNL     1       4.357   2.810  19.526  0.00  0.00    +0.000 A 
ATOM     24  C   UNL     1       4.970   3.925  18.957  0.00  0.00    +0.000 A 
ATOM     25  N   UNL     1       6.261   3.820  18.429  0.00  0.00    +0.000 N 
ATOM     26  C   UNL     1       6.923   4.858  17.830  0.00  0.00    +0.000 A 
ATOM     27  O   UNL     1       8.031   4.697  17.324  0.00  0.00    +0.000 OA
ATOM     28  H   UNL     1       6.745   2.933  18.431  0.00  0.00    +0.000 HD
ENDBRANCH  15  16
ENDBRANCH   1  15
TORSDOF 4
ENDMDL
MODEL 9
REMARK VINA RESULT:      -8.1      5.670      7.511
REMARK  Name = 
REMARK  5 active torsions:
REMARK  status: ('A' for Active; 'I' for Inactive)
REMARK    1  A    between atoms: C_1  and  C_2
REMARK    2  A    between atoms: N_6  and  C_7
REMARK    3  A    between atoms: C_10  and  N_11
REMARK    4  A    between atoms: N_11  and  C_12
REMARK    5  A    between atoms: C_12  and  C_13
REMARK                            x       y       z     vdW  Elec       q    Type
REMARK                         _______ _______ _______ _____ _____    ______ ____
ROOT
ATOM      1  N   UNL     1       7.690   8.289  17.461  0.00  0.00    +0.000 N 
ATOM      2  H   UNL     1       7.948   8.170  16.483  0.00  0.00    +0.000 HD
ENDROOT
BRANCH   1   6
ATOM      3  C   UNL     1       9.520  11.735  19.106  0.00  0.00    +0.000 A 
ATOM      4  C   UNL     1       8.751  11.815  17.941  0.00  0.00    +0.000 A 
ATOM      5  C   UNL     1       8.176  10.657  17.402  0.00  0.00    +0.000 A 
ATOM      6  C   UNL     1       8.349   9.403  18.007  0.00  0.00    +0.000 A 
ATOM      7  C   UNL     1       9.047   9.362  19.219  0.00  0.00    +0.000 A 
ATOM      8  C   UNL     1       9.647  10.506  19.756  0.00  0.00    +0.000 A 
BRANCH   3  14
ATOM      9  C   UNL     1      12.120  13.302  18.131  0.00  0.00    +0.000 C 
ATOM     10  C   UNL     1      11.304  13.536  19.343  0.00  0.00    +0.000 A 
ATOM     11  N   UNL     1      11.492  14.499  20.221  0.00  0.00    +0.000 NA
ATOM     12  N   UNL     1      10.373  14.528  21.007  0.00  0.00    +0.000 NA
ATOM     13  N   UNL     1       9.496  13.616  20.618  0.00  0.00    +0.000 NA
ATOM     14  N   UNL     1      10.106  12.905  19.642  0.00  0.00    +0.000 N 
ENDBRANCH   3  14
ENDBRANCH   1   6
BRANCH   1  15
ATOM     15  C   UNL     1       7.798   7.013  18.182  0.00  0.00    +0.000 C 
BRANCH  15  16
ATOM     16  C   UNL     1       6.572   6.168  17.965  0.00  0.00    +0.000 A 
ATOM     17  C   UNL     1       5.613   5.919  18.875  0.00  0.00    +0.000 A 
ATOM     18  C   UNL     1       4.501   5.016  18.572  0.00  0.00    +0.000 A 
ATOM     19  C   UNL     1       3.470   4.796  19.487  0.00  0.00    +0.000 A 
ATOM     20  C   UNL     1       2.449   3.898  19.170  0.00  0.00    +0.000 A 
ATOM     21 CL   UNL     1       1.160   3.647  20.282  0.00  0.00    +0.000 Cl
ATOM     22  C   UNL     1       2.459   3.206  17.957  0.00  0.00    +0.000 A 
ATOM     23  C   UNL     1       3.483   3.431  17.036  0.00  0.00    +0.000 A 
ATOM     24  C   UNL     1       4.488   4.347  17.341  0.00  0.00    +0.000 A 
ATOM     25  N   UNL     1       5.488   4.625  16.403  0.00  0.00    +0.000 N 
ATOM     26  C   UNL     1       6.495   5.529  16.612  0.00  0.00    +0.000 A 
ATOM     27  O   UNL     1       7.312   5.784  15.731  0.00  0.00    +0.000 OA
ATOM     28  H   UNL     1       5.473   4.187  15.492  0.00  0.00    +0.000 HD
ENDBRANCH  15  16
ENDBRANCH   1  15
TORSDOF 4
ENDMDL
