MODEL 1
REMARK VINA RESULT:      -8.5      0.000      0.000
REMARK  Name = 
REMARK  8 active torsions:
REMARK  status: ('A' for Active; 'I' for Inactive)
REMARK    1  A    between atoms: C_1  and  O_2
REMARK    2  A    between atoms: O_2  and  C_3
REMARK    3  A    between atoms: C_6  and  C_7
REMARK    4  A    between atoms: C_11  and  C_12
REMARK    5  A    between atoms: C_16  and  C_17
REMARK    6  A    between atoms: C_20  and  O_21
REMARK    7  A    between atoms: C_26  and  O_27
REMARK    8  A    between atoms: O_27  and  C_28
REMARK                            x       y       z     vdW  Elec       q    Type
REMARK                         _______ _______ _______ _____ _____    ______ ____
ROOT
ATOM      1  C   UNL     1       2.383   7.359  19.285  0.00  0.00    +0.000 A 
ATOM      2  C   UNL     1       2.118   6.531  20.367  0.00  0.00    +0.000 A 
ATOM      3  C   UNL     1       2.484   5.203  20.330  0.00  0.00    +0.000 A 
ATOM      4  C   UNL     1       1.960   4.333  21.282  0.00  0.00    +0.000 A 
ATOM      5  C   UNL     1       2.198   2.964  21.212  0.00  0.00    +0.000 A 
ATOM      6  C   UNL     1       1.442   2.035  22.105  0.00  0.00    +0.000 C 
ATOM      7  C   UNL     1       3.122   2.492  20.270  0.00  0.00    +0.000 A 
ATOM      8  C   UNL     1       3.681   3.376  19.333  0.00  0.00    +0.000 A 
ATOM      9  C   UNL     1       3.332   4.742  19.306  0.00  0.00    +0.000 A 
ATOM     10  C   UNL     1       3.734   5.734  18.366  0.00  0.00    +0.000 A 
ATOM     11  N   UNL     1       3.202   6.962  18.293  0.00  0.00    +0.000 NA
ENDROOT
BRANCH   1  15
ATOM     12  C   UNL     1       0.545  11.225  18.884  0.00  0.00    +0.000 A 
ATOM     13  C   UNL     1       1.354  10.706  17.854  0.00  0.00    +0.000 A 
ATOM     14  C   UNL     1       1.946   9.449  17.975  0.00  0.00    +0.000 A 
ATOM     15  C   UNL     1       1.783   8.686  19.135  0.00  0.00    +0.000 A 
ATOM     16  C   UNL     1       0.985   9.228  20.149  0.00  0.00    +0.000 A 
ATOM     17  C   UNL     1       0.393  10.490  20.056  0.00  0.00    +0.000 A 
BRANCH  12  19
ATOM     18  C   UNL     1      -1.367  12.392  18.164  0.00  0.00    +0.000 C 
ATOM     19  O   UNL     1      -0.078  12.433  18.771  0.00  0.00    +0.000 OA
ENDBRANCH  12  19
BRANCH  17  20
ATOM     20  O   UNL     1      -0.326  10.760  21.188  0.00  0.00    +0.000 OA
ATOM     21  C   UNL     1      -0.217   9.879  22.288  0.00  0.00    +0.000 C 
ENDBRANCH  17  20
ENDBRANCH   1  15
BRANCH  10  22
ATOM     22  C   UNL     1       4.855   5.538  17.441  0.00  0.00    +0.000 A 
ATOM     23  C   UNL     1       4.655   4.742  16.303  0.00  0.00    +0.000 A 
ATOM     24  C   UNL     1       5.641   4.633  15.331  0.00  0.00    +0.000 A 
ATOM     25  C   UNL     1       6.847   5.287  15.533  0.00  0.00    +0.000 A 
ATOM     26  C   UNL     1       7.138   5.931  16.727  0.00  0.00    +0.000 A 
ATOM     27  C   UNL     1       6.136   6.056  17.688  0.00  0.00    +0.000 A 
BRANCH  25  28
ATOM     28  O   UNL     1       7.748   5.368  14.515  0.00  0.00    +0.000 OA
ATOM     29  H   UNL     1       7.218   5.514  13.710  0.00  0.00    +0.000 HD
ENDBRANCH  25  28
ENDBRANCH  10  22
TORSDOF 5
ENDMDL
MODEL 2
REMARK VINA RESULT:      -8.1      0.557      1.067
REMARK  Name = 
REMARK  8 active torsions:
REMARK  status: ('A' for Active; 'I' for Inactive)
REMARK    1  A    between atoms: C_1  and  O_2
REMARK    2  A    between atoms: O_2  and  C_3
REMARK    3  A    between atoms: C_6  and  C_7
REMARK    4  A    between atoms: C_11  and  C_12
REMARK    5  A    between atoms: C_16  and  C_17
REMARK    6  A    between atoms: C_20  and  O_21
REMARK    7  A    between atoms: C_26  and  O_27
REMARK    8  A    between atoms: O_27  and  C_28
REMARK                            x       y       z     vdW  Elec       q    Type
REMARK                         _______ _______ _______ _____ _____    ______ ____
ROOT
ATOM      1  C   UNL     1       2.203   7.575  19.333  0.00  0.00    +0.000 A 
ATOM      2  C   UNL     1       2.014   6.708  20.400  0.00  0.00    +0.000 A 
ATOM      3  C   UNL     1       2.396   5.388  20.296  0.00  0.00    +0.000 A 
ATOM      4  C   UNL     1       1.941   4.478  21.247  0.00  0.00    +0.000 A 
ATOM      5  C   UNL     1       2.194   3.116  21.116  0.00  0.00    +0.000 A 
ATOM      6  C   UNL     1       1.505   2.147  22.021  0.00  0.00    +0.000 C 
ATOM      7  C   UNL     1       3.065   2.691  20.105  0.00  0.00    +0.000 A 
ATOM      8  C   UNL     1       3.555   3.614  19.167  0.00  0.00    +0.000 A 
ATOM      9  C   UNL     1       3.186   4.974  19.208  0.00  0.00    +0.000 A 
ATOM     10  C   UNL     1       3.518   6.003  18.280  0.00  0.00    +0.000 A 
ATOM     11  N   UNL     1       2.965   7.224  18.281  0.00  0.00    +0.000 NA
ENDROOT
BRANCH   1  15
ATOM     12  C   UNL     1       0.286  11.421  19.161  0.00  0.00    +0.000 A 
ATOM     13  C   UNL     1       1.194  11.026  18.158  0.00  0.00    +0.000 A 
ATOM     14  C   UNL     1       1.812   9.777  18.204  0.00  0.00    +0.000 A 
ATOM     15  C   UNL     1       1.577   8.898  19.264  0.00  0.00    +0.000 A 
ATOM     16  C   UNL     1       0.681   9.315  20.255  0.00  0.00    +0.000 A 
ATOM     17  C   UNL     1       0.060  10.568  20.237  0.00  0.00    +0.000 A 
BRANCH  12  19
ATOM     18  C   UNL     1       0.377  13.681  18.513  0.00  0.00    +0.000 C 
ATOM     19  O   UNL     1      -0.361  12.620  19.115  0.00  0.00    +0.000 OA
ENDBRANCH  12  19
BRANCH  17  20
ATOM     20  O   UNL     1      -0.758  10.706  21.324  0.00  0.00    +0.000 OA
ATOM     21  C   UNL     1      -0.345  10.154  22.559  0.00  0.00    +0.000 C 
ENDBRANCH  17  20
ENDBRANCH   1  15
BRANCH  10  22
ATOM     22  C   UNL     1       4.583   5.855  17.284  0.00  0.00    +0.000 A 
ATOM     23  C   UNL     1       5.749   6.621  17.429  0.00  0.00    +0.000 A 
ATOM     24  C   UNL     1       6.839   6.423  16.591  0.00  0.00    +0.000 A 
ATOM     25  C   UNL     1       6.730   5.488  15.573  0.00  0.00    +0.000 A 
ATOM     26  C   UNL     1       5.531   4.848  15.293  0.00  0.00    +0.000 A 
ATOM     27  C   UNL     1       4.450   5.033  16.152  0.00  0.00    +0.000 A 
BRANCH  25  28
ATOM     28  O   UNL     1       7.839   5.127  14.869  0.00  0.00    +0.000 OA
ATOM     29  H   UNL     1       8.066   5.903  14.325  0.00  0.00    +0.000 HD
ENDBRANCH  25  28
ENDBRANCH  10  22
TORSDOF 5
ENDMDL
MODEL 3
REMARK VINA RESULT:      -7.8      1.068      1.270
REMARK  Name = 
REMARK  8 active torsions:
REMARK  status: ('A' for Active; 'I' for Inactive)
REMARK    1  A    between atoms: C_1  and  O_2
REMARK    2  A    between atoms: O_2  and  C_3
REMARK    3  A    between atoms: C_6  and  C_7
REMARK    4  A    between atoms: C_11  and  C_12
REMARK    5  A    between atoms: C_16  and  C_17
REMARK    6  A    between atoms: C_20  and  O_21
REMARK    7  A    between atoms: C_26  and  O_27
REMARK    8  A    between atoms: O_27  and  C_28
REMARK                            x       y       z     vdW  Elec       q    Type
REMARK                         _______ _______ _______ _____ _____    ______ ____
ROOT
ATOM      1  C   UNL     1       2.331   7.709  18.964  0.00  0.00    +0.000 A 
ATOM      2  C   UNL     1       2.019   6.914  20.059  0.00  0.00    +0.000 A 
ATOM      3  C   UNL     1       2.371   5.582  20.071  0.00  0.00    +0.000 A 
ATOM      4  C   UNL     1       1.804   4.744  21.027  0.00  0.00    +0.000 A 
ATOM      5  C   UNL     1       2.029   3.371  21.002  0.00  0.00    +0.000 A 
ATOM      6  C   UNL     1       1.231   2.476  21.894  0.00  0.00    +0.000 C 
ATOM      7  C   UNL     1       2.979   2.864  20.106  0.00  0.00    +0.000 A 
ATOM      8  C   UNL     1       3.580   3.716  19.166  0.00  0.00    +0.000 A 
ATOM      9  C   UNL     1       3.247   5.084  19.090  0.00  0.00    +0.000 A 
ATOM     10  C   UNL     1       3.693   6.045  18.138  0.00  0.00    +0.000 A 
ATOM     11  N   UNL     1       3.178   7.276  18.013  0.00  0.00    +0.000 NA
ENDROOT
BRANCH   1  15
ATOM     12  C   UNL     1       0.557  11.573  18.319  0.00  0.00    +0.000 A 
ATOM     13  C   UNL     1       1.938  11.375  18.119  0.00  0.00    +0.000 A 
ATOM     14  C   UNL     1       2.517  10.121  18.318  0.00  0.00    +0.000 A 
ATOM     15  C   UNL     1       1.752   9.038  18.758  0.00  0.00    +0.000 A 
ATOM     16  C   UNL     1       0.385   9.261  18.963  0.00  0.00    +0.000 A 
ATOM     17  C   UNL     1      -0.214  10.511  18.782  0.00  0.00    +0.000 A 
BRANCH  12  19
ATOM     18  C   UNL     1       0.486  13.863  18.853  0.00  0.00    +0.000 C 
ATOM     19  O   UNL     1      -0.038  12.778  18.091  0.00  0.00    +0.000 OA
ENDBRANCH  12  19
BRANCH  17  20
ATOM     20  O   UNL     1      -1.553  10.437  19.053  0.00  0.00    +0.000 OA
ATOM     21  C   UNL     1      -2.440  10.096  18.007  0.00  0.00    +0.000 C 
ENDBRANCH  17  20
ENDBRANCH   1  15
BRANCH  10  22
ATOM     22  C   UNL     1       4.843   5.812  17.258  0.00  0.00    +0.000 A 
ATOM     23  C   UNL     1       4.687   4.947  16.164  0.00  0.00    +0.000 A 
ATOM     24  C   UNL     1       5.702   4.796  15.228  0.00  0.00    +0.000 A 
ATOM     25  C   UNL     1       6.892   5.478  15.425  0.00  0.00    +0.000 A 
ATOM     26  C   UNL     1       7.140   6.196  16.586  0.00  0.00    +0.000 A 
ATOM     27  C   UNL     1       6.110   6.363  17.509  0.00  0.00    +0.000 A 
BRANCH  25  28
ATOM     28  O   UNL     1       7.821   5.513  14.429  0.00  0.00    +0.000 OA
ATOM     29  H   UNL     1       7.835   4.612  14.055  0.00  0.00    +0.000 HD
ENDBRANCH  25  28
ENDBRANCH  10  22
TORSDOF 5
ENDMDL
MODEL 4
REMARK VINA RESULT:      -7.8      1.045      1.772
REMARK  Name = 
REMARK  8 active torsions:
REMARK  status: ('A' for Active; 'I' for Inactive)
REMARK    1  A    between atoms: C_1  and  O_2
REMARK    2  A    between atoms: O_2  and  C_3
REMARK    3  A    between atoms: C_6  and  C_7
REMARK    4  A    between atoms: C_11  and  C_12
REMARK    5  A    between atoms: C_16  and  C_17
REMARK    6  A    between atoms: C_20  and  O_21
REMARK    7  A    between atoms: C_26  and  O_27
REMARK    8  A    between atoms: O_27  and  C_28
REMARK                            x       y       z     vdW  Elec       q    Type
REMARK                         _______ _______ _______ _____ _____    ______ ____
ROOT
ATOM      1  C   UNL     1       2.238   7.605  19.146  0.00  0.00    +0.000 A 
ATOM      2  C   UNL     1       1.958   6.793  20.237  0.00  0.00    +0.000 A 
ATOM      3  C   UNL     1       2.350   5.472  20.236  0.00  0.00    +0.000 A 
ATOM      4  C   UNL     1       1.815   4.610  21.190  0.00  0.00    +0.000 A 
ATOM      5  C   UNL     1       2.082   3.245  21.153  0.00  0.00    +0.000 A 
ATOM      6  C   UNL     1       1.318   2.319  22.043  0.00  0.00    +0.000 C 
ATOM      7  C   UNL     1       3.040   2.773  20.246  0.00  0.00    +0.000 A 
ATOM      8  C   UNL     1       3.608   3.650  19.308  0.00  0.00    +0.000 A 
ATOM      9  C   UNL     1       3.234   5.008  19.245  0.00  0.00    +0.000 A 
ATOM     10  C   UNL     1       3.644   5.989  18.297  0.00  0.00    +0.000 A 
ATOM     11  N   UNL     1       3.091   7.205  18.185  0.00  0.00    +0.000 NA
ENDROOT
BRANCH   1  15
ATOM     12  C   UNL     1       0.495  11.499  18.610  0.00  0.00    +0.000 A 
ATOM     13  C   UNL     1      -0.264  10.442  19.150  0.00  0.00    +0.000 A 
ATOM     14  C   UNL     1       0.299   9.179  19.335  0.00  0.00    +0.000 A 
ATOM     15  C   UNL     1       1.618   8.918  18.954  0.00  0.00    +0.000 A 
ATOM     16  C   UNL     1       2.348   9.979  18.408  0.00  0.00    +0.000 A 
ATOM     17  C   UNL     1       1.802  11.249  18.202  0.00  0.00    +0.000 A 
BRANCH  12  19
ATOM     18  C   UNL     1      -0.491  13.359  19.660  0.00  0.00    +0.000 C 
ATOM     19  O   UNL     1      -0.020  12.753  18.459  0.00  0.00    +0.000 OA
ENDBRANCH  12  19
BRANCH  17  20
ATOM     20  O   UNL     1       2.738  12.084  17.656  0.00  0.00    +0.000 OA
ATOM     21  C   UNL     1       3.068  13.275  18.343  0.00  0.00    +0.000 C 
ENDBRANCH  17  20
ENDBRANCH   1  15
BRANCH  10  22
ATOM     22  C   UNL     1       4.794   5.798  17.408  0.00  0.00    +0.000 A 
ATOM     23  C   UNL     1       4.649   4.955  16.295  0.00  0.00    +0.000 A 
ATOM     24  C   UNL     1       5.662   4.844  15.352  0.00  0.00    +0.000 A 
ATOM     25  C   UNL     1       6.840   5.544  15.559  0.00  0.00    +0.000 A 
ATOM     26  C   UNL     1       7.080   6.240  16.736  0.00  0.00    +0.000 A 
ATOM     27  C   UNL     1       6.051   6.367  17.667  0.00  0.00    +0.000 A 
BRANCH  25  28
ATOM     28  O   UNL     1       7.764   5.619  14.561  0.00  0.00    +0.000 OA
ATOM     29  H   UNL     1       7.292   5.998  13.797  0.00  0.00    +0.000 HD
ENDBRANCH  25  28
ENDBRANCH  10  22
TORSDOF 5
ENDMDL
MODEL 5
REMARK VINA RESULT:      -7.7      2.361      4.732
REMARK  Name = 
REMARK  8 active torsions:
REMARK  status: ('A' for Active; 'I' for Inactive)
REMARK    1  A    between atoms: C_1  and  O_2
REMARK    2  A    between atoms: O_2  and  C_3
REMARK    3  A    between atoms: C_6  and  C_7
REMARK    4  A    between atoms: C_11  and  C_12
REMARK    5  A    between atoms: C_16  and  C_17
REMARK    6  A    between atoms: C_20  and  O_21
REMARK    7  A    between atoms: C_26  and  O_27
REMARK    8  A    between atoms: O_27  and  C_28
REMARK                            x       y       z     vdW  Elec       q    Type
REMARK                         _______ _______ _______ _____ _____    ______ ____
ROOT
ATOM      1  C   UNL     1       2.665   7.714  18.260  0.00  0.00    +0.000 A 
ATOM      2  C   UNL     1       3.391   7.495  17.097  0.00  0.00    +0.000 A 
ATOM      3  C   UNL     1       4.145   6.351  16.956  0.00  0.00    +0.000 A 
ATOM      4  C   UNL     1       5.082   6.283  15.928  0.00  0.00    +0.000 A 
ATOM      5  C   UNL     1       5.954   5.205  15.821  0.00  0.00    +0.000 A 
ATOM      6  C   UNL     1       7.091   5.267  14.853  0.00  0.00    +0.000 C 
ATOM      7  C   UNL     1       5.758   4.099  16.658  0.00  0.00    +0.000 A 
ATOM      8  C   UNL     1       4.788   4.151  17.672  0.00  0.00    +0.000 A 
ATOM      9  C   UNL     1       3.997   5.300  17.880  0.00  0.00    +0.000 A 
ATOM     10  C   UNL     1       3.050   5.539  18.916  0.00  0.00    +0.000 A 
ATOM     11  N   UNL     1       2.486   6.730  19.161  0.00  0.00    +0.000 NA
ENDROOT
BRANCH   1  15
ATOM     12  C   UNL     1       0.856  11.484  19.259  0.00  0.00    +0.000 A 
ATOM     13  C   UNL     1       1.801  11.396  18.218  0.00  0.00    +0.000 A 
ATOM     14  C   UNL     1       2.384  10.174  17.884  0.00  0.00    +0.000 A 
ATOM     15  C   UNL     1       2.077   9.012  18.596  0.00  0.00    +0.000 A 
ATOM     16  C   UNL     1       1.144   9.126  19.634  0.00  0.00    +0.000 A 
ATOM     17  C   UNL     1       0.556  10.342  19.995  0.00  0.00    +0.000 A 
BRANCH  12  19
ATOM     18  C   UNL     1      -0.387  13.326  18.482  0.00  0.00    +0.000 C 
ATOM     19  O   UNL     1       0.241  12.660  19.576  0.00  0.00    +0.000 OA
ENDBRANCH  12  19
BRANCH  17  20
ATOM     20  O   UNL     1      -0.310  10.157  21.037  0.00  0.00    +0.000 OA
ATOM     21  C   UNL     1      -0.184   8.990  21.826  0.00  0.00    +0.000 C 
ENDBRANCH  17  20
ENDBRANCH   1  15
BRANCH  10  22
ATOM     22  C   UNL     1       2.517   4.467  19.763  0.00  0.00    +0.000 A 
ATOM     23  C   UNL     1       3.399   3.775  20.605  0.00  0.00    +0.000 A 
ATOM     24  C   UNL     1       2.924   2.844  21.521  0.00  0.00    +0.000 A 
ATOM     25  C   UNL     1       1.564   2.576  21.548  0.00  0.00    +0.000 A 
ATOM     26  C   UNL     1       0.694   3.109  20.607  0.00  0.00    +0.000 A 
ATOM     27  C   UNL     1       1.173   4.060  19.708  0.00  0.00    +0.000 A 
BRANCH  25  28
ATOM     28  O   UNL     1       1.046   1.828  22.562  0.00  0.00    +0.000 OA
ATOM     29  H   UNL     1       1.743   1.189  22.797  0.00  0.00    +0.000 HD
ENDBRANCH  25  28
ENDBRANCH  10  22
TORSDOF 5
ENDMDL
MODEL 6
REMARK VINA RESULT:      -7.5      0.968      1.433
REMARK  Name = 
REMARK  8 active torsions:
REMARK  status: ('A' for Active; 'I' for Inactive)
REMARK    1  A    between atoms: C_1  and  O_2
REMARK    2  A    between atoms: O_2  and  C_3
REMARK    3  A    between atoms: C_6  and  C_7
REMARK    4  A    between atoms: C_11  and  C_12
REMARK    5  A    between atoms: C_16  and  C_17
REMARK    6  A    between atoms: C_20  and  O_21
REMARK    7  A    between atoms: C_26  and  O_27
REMARK    8  A    between atoms: O_27  and  C_28
REMARK                            x       y       z     vdW  Elec       q    Type
REMARK                         _______ _______ _______ _____ _____    ______ ____
ROOT
ATOM      1  C   UNL     1       2.120   7.683  19.189  0.00  0.00    +0.000 A 
ATOM      2  C   UNL     1       1.939   6.834  20.273  0.00  0.00    +0.000 A 
ATOM      3  C   UNL     1       2.392   5.534  20.217  0.00  0.00    +0.000 A 
ATOM      4  C   UNL     1       1.952   4.626  21.177  0.00  0.00    +0.000 A 
ATOM      5  C   UNL     1       2.279   3.276  21.091  0.00  0.00    +0.000 A 
ATOM      6  C   UNL     1       1.610   2.295  21.998  0.00  0.00    +0.000 C 
ATOM      7  C   UNL     1       3.207   2.872  20.123  0.00  0.00    +0.000 A 
ATOM      8  C   UNL     1       3.681   3.796  19.177  0.00  0.00    +0.000 A 
ATOM      9  C   UNL     1       3.241   5.135  19.169  0.00  0.00    +0.000 A 
ATOM     10  C   UNL     1       3.551   6.156  18.225  0.00  0.00    +0.000 A 
ATOM     11  N   UNL     1       2.937   7.347  18.173  0.00  0.00    +0.000 NA
ENDROOT
BRANCH   1  15
ATOM     12  C   UNL     1       0.074  11.455  18.910  0.00  0.00    +0.000 A 
ATOM     13  C   UNL     1      -0.075  10.482  17.902  0.00  0.00    +0.000 A 
ATOM     14  C   UNL     1       0.579   9.253  17.992  0.00  0.00    +0.000 A 
ATOM     15  C   UNL     1       1.429   8.968  19.063  0.00  0.00    +0.000 A 
ATOM     16  C   UNL     1       1.572   9.954  20.046  0.00  0.00    +0.000 A 
ATOM     17  C   UNL     1       0.937  11.197  19.972  0.00  0.00    +0.000 A 
BRANCH  12  19
ATOM     18  C   UNL     1      -1.852  12.658  19.525  0.00  0.00    +0.000 C 
ATOM     19  O   UNL     1      -0.588  12.646  18.866  0.00  0.00    +0.000 OA
ENDBRANCH  12  19
BRANCH  17  20
ATOM     20  O   UNL     1       1.256  11.958  21.063  0.00  0.00    +0.000 OA
ATOM     21  C   UNL     1       1.938  13.180  20.862  0.00  0.00    +0.000 C 
ENDBRANCH  17  20
ENDBRANCH   1  15
BRANCH  10  22
ATOM     22  C   UNL     1       4.658   6.040  17.270  0.00  0.00    +0.000 A 
ATOM     23  C   UNL     1       5.911   6.560  17.627  0.00  0.00    +0.000 A 
ATOM     24  C   UNL     1       7.021   6.359  16.816  0.00  0.00    +0.000 A 
ATOM     25  C   UNL     1       6.853   5.679  15.620  0.00  0.00    +0.000 A 
ATOM     26  C   UNL     1       5.597   5.313  15.157  0.00  0.00    +0.000 A 
ATOM     27  C   UNL     1       4.493   5.495  15.986  0.00  0.00    +0.000 A 
BRANCH  25  28
ATOM     28  O   UNL     1       7.947   5.290  14.908  0.00  0.00    +0.000 OA
ATOM     29  H   UNL     1       8.334   4.549  15.409  0.00  0.00    +0.000 HD
ENDBRANCH  25  28
ENDBRANCH  10  22
TORSDOF 5
ENDMDL
MODEL 7
REMARK VINA RESULT:      -7.4      3.880      7.304
REMARK  Name = 
REMARK  8 active torsions:
REMARK  status: ('A' for Active; 'I' for Inactive)
REMARK    1  A    between atoms: C_1  and  O_2
REMARK    2  A    between atoms: O_2  and  C_3
REMARK    3  A    between atoms: C_6  and  C_7
REMARK    4  A    between atoms: C_11  and  C_12
REMARK    5  A    between atoms: C_16  and  C_17
REMARK    6  A    between atoms: C_20  and  O_21
REMARK    7  A    between atoms: C_26  and  O_27
REMARK    8  A    between atoms: O_27  and  C_28
REMARK                            x       y       z     vdW  Elec       q    Type
REMARK                         _______ _______ _______ _____ _____    ______ ____
ROOT
ATOM      1  C   UNL     1       0.710  12.927  18.766  0.00  0.00    +0.000 A 
ATOM      2  C   UNL     1      -0.675  13.017  18.754  0.00  0.00    +0.000 A 
ATOM      3  C   UNL     1      -1.438  11.922  18.409  0.00  0.00    +0.000 A 
ATOM      4  C   UNL     1      -2.787  12.105  18.120  0.00  0.00    +0.000 A 
ATOM      5  C   UNL     1      -3.568  11.055  17.646  0.00  0.00    +0.000 A 
ATOM      6  C   UNL     1      -4.944  11.332  17.131  0.00  0.00    +0.000 C 
ATOM      7  C   UNL     1      -3.021   9.766  17.631  0.00  0.00    +0.000 A 
ATOM      8  C   UNL     1      -1.669   9.575  17.959  0.00  0.00    +0.000 A 
ATOM      9  C   UNL     1      -0.832  10.657  18.301  0.00  0.00    +0.000 A 
ATOM     10  C   UNL     1       0.569  10.636  18.560  0.00  0.00    +0.000 A 
ATOM     11  N   UNL     1       1.328  11.734  18.682  0.00  0.00    +0.000 NA
ENDROOT
BRANCH   1  15
ATOM     12  C   UNL     1       3.341  16.320  19.002  0.00  0.00    +0.000 A 
ATOM     13  C   UNL     1       2.104  16.323  19.676  0.00  0.00    +0.000 A 
ATOM     14  C   UNL     1       1.250  15.222  19.610  0.00  0.00    +0.000 A 
ATOM     15  C   UNL     1       1.581  14.102  18.844  0.00  0.00    +0.000 A 
ATOM     16  C   UNL     1       2.810  14.125  18.173  0.00  0.00    +0.000 A 
ATOM     17  C   UNL     1       3.675  15.222  18.214  0.00  0.00    +0.000 A 
BRANCH  12  19
ATOM     18  C   UNL     1       4.695  17.645  20.397  0.00  0.00    +0.000 C 
ATOM     19  O   UNL     1       4.210  17.367  19.085  0.00  0.00    +0.000 OA
ENDBRANCH  12  19
BRANCH  17  20
ATOM     20  O   UNL     1       4.794  14.969  17.470  0.00  0.00    +0.000 OA
ATOM     21  C   UNL     1       6.011  14.709  18.140  0.00  0.00    +0.000 C 
ENDBRANCH  17  20
ENDBRANCH   1  15
BRANCH  10  22
ATOM     22  C   UNL     1       1.307   9.396  18.822  0.00  0.00    +0.000 A 
ATOM     23  C   UNL     1       1.258   8.846  20.112  0.00  0.00    +0.000 A 
ATOM     24  C   UNL     1       1.828   7.607  20.377  0.00  0.00    +0.000 A 
ATOM     25  C   UNL     1       2.492   6.950  19.353  0.00  0.00    +0.000 A 
ATOM     26  C   UNL     1       2.712   7.550  18.121  0.00  0.00    +0.000 A 
ATOM     27  C   UNL     1       2.117   8.781  17.854  0.00  0.00    +0.000 A 
BRANCH  25  28
ATOM     28  O   UNL     1       2.880   5.656  19.524  0.00  0.00    +0.000 OA
ATOM     29  H   UNL     1       2.872   5.507  20.487  0.00  0.00    +0.000 HD
ENDBRANCH  25  28
ENDBRANCH  10  22
TORSDOF 5
ENDMDL
MODEL 8
REMARK VINA RESULT:      -7.3      3.787      7.176
REMARK  Name = 
REMARK  8 active torsions:
REMARK  status: ('A' for Active; 'I' for Inactive)
REMARK    1  A    between atoms: C_1  and  O_2
REMARK    2  A    between atoms: O_2  and  C_3
REMARK    3  A    between atoms: C_6  and  C_7
REMARK    4  A    between atoms: C_11  and  C_12
REMARK    5  A    between atoms: C_16  and  C_17
REMARK    6  A    between atoms: C_20  and  O_21
REMARK    7  A    between atoms: C_26  and  O_27
REMARK    8  A    between atoms: O_27  and  C_28
REMARK                            x       y       z     vdW  Elec       q    Type
REMARK                         _______ _______ _______ _____ _____    ______ ____
ROOT
ATOM      1  C   UNL     1       0.917  12.779  18.609  0.00  0.00    +0.000 A 
ATOM      2  C   UNL     1      -0.458  12.970  18.601  0.00  0.00    +0.000 A 
ATOM      3  C   UNL     1      -1.303  11.913  18.337  0.00  0.00    +0.000 A 
ATOM      4  C   UNL     1      -2.639  12.175  18.046  0.00  0.00    +0.000 A 
ATOM      5  C   UNL     1      -3.501  11.157  17.650  0.00  0.00    +0.000 A 
ATOM      6  C   UNL     1      -4.858  11.499  17.128  0.00  0.00    +0.000 C 
ATOM      7  C   UNL     1      -3.049   9.833  17.720  0.00  0.00    +0.000 A 
ATOM      8  C   UNL     1      -1.711   9.565  18.051  0.00  0.00    +0.000 A 
ATOM      9  C   UNL     1      -0.793  10.602  18.312  0.00  0.00    +0.000 A 
ATOM     10  C   UNL     1       0.606  10.496  18.562  0.00  0.00    +0.000 A 
ATOM     11  N   UNL     1       1.445  11.541  18.603  0.00  0.00    +0.000 NA
ENDROOT
BRANCH   1  15
ATOM     12  C   UNL     1       3.659  16.090  18.544  0.00  0.00    +0.000 A 
ATOM     13  C   UNL     1       4.104  14.785  18.254  0.00  0.00    +0.000 A 
ATOM     14  C   UNL     1       3.217  13.708  18.265  0.00  0.00    +0.000 A 
ATOM     15  C   UNL     1       1.873  13.888  18.601  0.00  0.00    +0.000 A 
ATOM     16  C   UNL     1       1.456  15.191  18.897  0.00  0.00    +0.000 A 
ATOM     17  C   UNL     1       2.329  16.283  18.905  0.00  0.00    +0.000 A 
BRANCH  12  19
ATOM     18  C   UNL     1       5.562  17.138  19.448  0.00  0.00    +0.000 C 
ATOM     19  O   UNL     1       4.499  17.164  18.498  0.00  0.00    +0.000 OA
ENDBRANCH  12  19
BRANCH  17  20
ATOM     20  O   UNL     1       1.653  17.427  19.228  0.00  0.00    +0.000 OA
ATOM     21  C   UNL     1       0.265  17.493  18.964  0.00  0.00    +0.000 C 
ENDBRANCH  17  20
ENDBRANCH   1  15
BRANCH  10  22
ATOM     22  C   UNL     1       1.253   9.226  18.903  0.00  0.00    +0.000 A 
ATOM     23  C   UNL     1       1.915   8.516  17.890  0.00  0.00    +0.000 A 
ATOM     24  C   UNL     1       2.655   7.378  18.187  0.00  0.00    +0.000 A 
ATOM     25  C   UNL     1       2.683   6.929  19.498  0.00  0.00    +0.000 A 
ATOM     26  C   UNL     1       1.895   7.504  20.485  0.00  0.00    +0.000 A 
ATOM     27  C   UNL     1       1.175   8.659  20.186  0.00  0.00    +0.000 A 
BRANCH  25  28
ATOM     28  O   UNL     1       3.556   5.946  19.854  0.00  0.00    +0.000 OA
ATOM     29  H   UNL     1       3.199   5.568  20.678  0.00  0.00    +0.000 HD
ENDBRANCH  25  28
ENDBRANCH  10  22
TORSDOF 5
ENDMDL
MODEL 9
REMARK VINA RESULT:      -7.3      3.882      7.205
REMARK  Name = 
REMARK  8 active torsions:
REMARK  status: ('A' for Active; 'I' for Inactive)
REMARK    1  A    between atoms: C_1  and  O_2
REMARK    2  A    between atoms: O_2  and  C_3
REMARK    3  A    between atoms: C_6  and  C_7
REMARK    4  A    between atoms: C_11  and  C_12
REMARK    5  A    between atoms: C_16  and  C_17
REMARK    6  A    between atoms: C_20  and  O_21
REMARK    7  A    between atoms: C_26  and  O_27
REMARK    8  A    between atoms: O_27  and  C_28
REMARK                            x       y       z     vdW  Elec       q    Type
REMARK                         _______ _______ _______ _____ _____    ______ ____
ROOT
ATOM      1  C   UNL     1       0.954  12.807  18.595  0.00  0.00    +0.000 A 
ATOM      2  C   UNL     1      -0.425  12.966  18.607  0.00  0.00    +0.000 A 
ATOM      3  C   UNL     1      -1.249  11.896  18.336  0.00  0.00    +0.000 A 
ATOM      4  C   UNL     1      -2.595  12.132  18.068  0.00  0.00    +0.000 A 
ATOM      5  C   UNL     1      -3.438  11.101  17.666  0.00  0.00    +0.000 A 
ATOM      6  C   UNL     1      -4.810  11.420  17.167  0.00  0.00    +0.000 C 
ATOM      7  C   UNL     1      -2.956   9.786  17.707  0.00  0.00    +0.000 A 
ATOM      8  C   UNL     1      -1.607   9.543  18.016  0.00  0.00    +0.000 A 
ATOM      9  C   UNL     1      -0.710  10.597  18.282  0.00  0.00    +0.000 A 
ATOM     10  C   UNL     1       0.694  10.519  18.512  0.00  0.00    +0.000 A 
ATOM     11  N   UNL     1       1.510  11.582  18.561  0.00  0.00    +0.000 NA
ENDROOT
BRANCH   1  15
ATOM     12  C   UNL     1       3.620  16.180  18.547  0.00  0.00    +0.000 A 
ATOM     13  C   UNL     1       4.102  14.881  18.289  0.00  0.00    +0.000 A 
ATOM     14  C   UNL     1       3.240  13.784  18.295  0.00  0.00    +0.000 A 
ATOM     15  C   UNL     1       1.884  13.938  18.593  0.00  0.00    +0.000 A 
ATOM     16  C   UNL     1       1.430  15.236  18.857  0.00  0.00    +0.000 A 
ATOM     17  C   UNL     1       2.277  16.347  18.870  0.00  0.00    +0.000 A 
BRANCH  12  19
ATOM     18  C   UNL     1       5.713  17.094  19.113  0.00  0.00    +0.000 C 
ATOM     19  O   UNL     1       4.436  17.272  18.505  0.00  0.00    +0.000 OA
ENDBRANCH  12  19
BRANCH  17  20
ATOM     20  O   UNL     1       1.567  17.480  19.157  0.00  0.00    +0.000 OA
ATOM     21  C   UNL     1       1.632  18.009  20.467  0.00  0.00    +0.000 C 
ENDBRANCH  17  20
ENDBRANCH   1  15
BRANCH  10  22
ATOM     22  C   UNL     1       1.375   9.258  18.823  0.00  0.00    +0.000 A 
ATOM     23  C   UNL     1       1.310   8.766  20.136  0.00  0.00    +0.000 A 
ATOM     24  C   UNL     1       1.825   7.515  20.451  0.00  0.00    +0.000 A 
ATOM     25  C   UNL     1       2.450   6.784  19.452  0.00  0.00    +0.000 A 
ATOM     26  C   UNL     1       2.688   7.320  18.194  0.00  0.00    +0.000 A 
ATOM     27  C   UNL     1       2.148   8.565  17.878  0.00  0.00    +0.000 A 
BRANCH  25  28
ATOM     28  O   UNL     1       2.778   5.481  19.676  0.00  0.00    +0.000 OA
ATOM     29  H   UNL     1       3.323   5.486  20.485  0.00  0.00    +0.000 HD
ENDBRANCH  25  28
ENDBRANCH  10  22
TORSDOF 5
ENDMDL
