MODEL 1
REMARK VINA RESULT:      -6.2      0.000      0.000
REMARK  Name = 
REMARK  10 active torsions:
REMARK  status: ('A' for Active; 'I' for Inactive)
REMARK    1  A    between atoms: C_1  and  C_2
REMARK    2  A    between atoms: C_2  and  C_3
REMARK    3  A    between atoms: C_3  and  C_4
REMARK    4  A    between atoms: C_5  and  S_6
REMARK    5  A    between atoms: S_6  and  C_7
REMARK    6  A    between atoms: N_13  and  C_14
REMARK    7  A    between atoms: C_14  and  S_15
REMARK    8  A    between atoms: S_15  and  C_16
REMARK    9  A    between atoms: C_16  and  C_17
REMARK   10  A    between atoms: C_17  and  O_18
REMARK                            x       y       z     vdW  Elec       q    Type
REMARK                         _______ _______ _______ _____ _____    ______ ____
ROOT
ATOM      1  C   UNL     1       1.921   4.042  19.160  0.00  0.00    +0.000 A 
ATOM      2  C   UNL     1       2.935   4.914  18.953  0.00  0.00    +0.000 A 
ATOM      3  N   UNL     1       3.790   4.771  17.849  0.00  0.00    +0.000 N 
ATOM      4  C   UNL     1       3.710   3.661  17.014  0.00  0.00    +0.000 A 
ATOM      5  O   UNL     1       4.347   3.518  15.973  0.00  0.00    +0.000 OA
ATOM      6  N   UNL     1       2.827   2.695  17.382  0.00  0.00    +0.000 N 
ATOM      7  C   UNL     1       1.749   2.963  18.153  0.00  0.00    +0.000 A 
ATOM      8  O   UNL     1       0.697   2.347  18.022  0.00  0.00    +0.000 OA
ATOM      9  H   UNL     1       2.703   1.962  16.701  0.00  0.00    +0.000 HD
ENDROOT
BRANCH   1  10
ATOM     10  C   UNL     1       0.867   4.041  20.252  0.00  0.00    +0.000 C 
BRANCH  10  12
ATOM     11  C   UNL     1       2.502   2.749  21.683  0.00  0.00    +0.000 C 
ATOM     12  C   UNL     1       1.044   2.911  21.278  0.00  0.00    +0.000 C 
ENDBRANCH  10  12
ENDBRANCH   1  10
BRANCH   2  13
ATOM     13  S   UNL     1       3.235   6.188  20.117  0.00  0.00    +0.000 S 
BRANCH  13  14
ATOM     14  C   UNL     1       2.288   7.572  19.489  0.00  0.00    +0.000 A 
ATOM     15  C   UNL     1       2.261   7.944  18.143  0.00  0.00    +0.000 A 
ATOM     16  C   UNL     1       1.470   9.021  17.722  0.00  0.00    +0.000 A 
ATOM     17  C   UNL     1       0.695   9.727  18.641  0.00  0.00    +0.000 A 
ATOM     18  C   UNL     1       0.701   9.354  19.984  0.00  0.00    +0.000 A 
ATOM     19  C   UNL     1       1.490   8.279  20.402  0.00  0.00    +0.000 A 
ENDBRANCH  13  14
ENDBRANCH   2  13
BRANCH   3  20
ATOM     20  C   UNL     1       4.830   5.736  17.494  0.00  0.00    +0.000 C 
BRANCH  20  21
ATOM     21  S   UNL     1       6.341   5.476  18.482  0.00  0.00    +0.000 S 
BRANCH  21  22
ATOM     22  C   UNL     1       7.347   4.618  17.220  0.00  0.00    +0.000 C 
BRANCH  22  23
ATOM     23  C   UNL     1       7.160   5.283  15.857  0.00  0.00    +0.000 C 
BRANCH  23  24
ATOM     24  O   UNL     1       6.873   4.320  14.848  0.00  0.00    +0.000 OA
ATOM     25  H   UNL     1       5.980   4.532  14.516  0.00  0.00    +0.000 HD
ENDBRANCH  23  24
ENDBRANCH  22  23
ENDBRANCH  21  22
ENDBRANCH  20  21
ENDBRANCH   3  20
TORSDOF 9
ENDMDL
MODEL 2
REMARK VINA RESULT:      -6.1      1.416      1.807
REMARK  Name = 
REMARK  10 active torsions:
REMARK  status: ('A' for Active; 'I' for Inactive)
REMARK    1  A    between atoms: C_1  and  C_2
REMARK    2  A    between atoms: C_2  and  C_3
REMARK    3  A    between atoms: C_3  and  C_4
REMARK    4  A    between atoms: C_5  and  S_6
REMARK    5  A    between atoms: S_6  and  C_7
REMARK    6  A    between atoms: N_13  and  C_14
REMARK    7  A    between atoms: C_14  and  S_15
REMARK    8  A    between atoms: S_15  and  C_16
REMARK    9  A    between atoms: C_16  and  C_17
REMARK   10  A    between atoms: C_17  and  O_18
REMARK                            x       y       z     vdW  Elec       q    Type
REMARK                         _______ _______ _______ _____ _____    ______ ____
ROOT
ATOM      1  C   UNL     1       1.809   3.921  19.284  0.00  0.00    +0.000 A 
ATOM      2  C   UNL     1       2.844   4.710  18.909  0.00  0.00    +0.000 A 
ATOM      3  N   UNL     1       3.521   4.478  17.702  0.00  0.00    +0.000 N 
ATOM      4  C   UNL     1       3.243   3.360  16.923  0.00  0.00    +0.000 A 
ATOM      5  O   UNL     1       3.714   3.146  15.808  0.00  0.00    +0.000 OA
ATOM      6  N   UNL     1       2.354   2.472  17.441  0.00  0.00    +0.000 N 
ATOM      7  C   UNL     1       1.419   2.838  18.347  0.00  0.00    +0.000 A 
ATOM      8  O   UNL     1       0.317   2.300  18.383  0.00  0.00    +0.000 OA
ATOM      9  H   UNL     1       2.082   1.735  16.808  0.00  0.00    +0.000 HD
ENDROOT
BRANCH   1  10
ATOM     10  C   UNL     1       0.923   4.024  20.512  0.00  0.00    +0.000 C 
BRANCH  10  12
ATOM     11  C   UNL     1       2.659   2.594  21.666  0.00  0.00    +0.000 C 
ATOM     12  C   UNL     1       1.177   2.918  21.549  0.00  0.00    +0.000 C 
ENDBRANCH  10  12
ENDBRANCH   1  10
BRANCH   2  13
ATOM     13  S   UNL     1       3.396   5.981  19.979  0.00  0.00    +0.000 S 
BRANCH  13  14
ATOM     14  C   UNL     1       2.353   7.375  19.558  0.00  0.00    +0.000 A 
ATOM     15  C   UNL     1       1.564   8.060  20.485  0.00  0.00    +0.000 A 
ATOM     16  C   UNL     1       0.798   9.162  20.086  0.00  0.00    +0.000 A 
ATOM     17  C   UNL     1       0.822   9.593  18.760  0.00  0.00    +0.000 A 
ATOM     18  C   UNL     1       1.619   8.929  17.830  0.00  0.00    +0.000 A 
ATOM     19  C   UNL     1       2.383   7.829  18.230  0.00  0.00    +0.000 A 
ENDBRANCH  13  14
ENDBRANCH   2  13
BRANCH   3  20
ATOM     20  C   UNL     1       4.566   5.354  17.175  0.00  0.00    +0.000 C 
BRANCH  20  21
ATOM     21  S   UNL     1       6.227   4.754  17.631  0.00  0.00    +0.000 S 
BRANCH  21  22
ATOM     22  C   UNL     1       6.958   6.346  18.151  0.00  0.00    +0.000 C 
BRANCH  22  23
ATOM     23  C   UNL     1       8.134   6.101  19.096  0.00  0.00    +0.000 C 
BRANCH  23  24
ATOM     24  O   UNL     1       7.707   5.474  20.300  0.00  0.00    +0.000 OA
ATOM     25  H   UNL     1       8.047   4.559  20.266  0.00  0.00    +0.000 HD
ENDBRANCH  23  24
ENDBRANCH  22  23
ENDBRANCH  21  22
ENDBRANCH  20  21
ENDBRANCH   3  20
TORSDOF 9
ENDMDL
MODEL 3
REMARK VINA RESULT:      -6.1      3.032      5.567
REMARK  Name = 
REMARK  10 active torsions:
REMARK  status: ('A' for Active; 'I' for Inactive)
REMARK    1  A    between atoms: C_1  and  C_2
REMARK    2  A    between atoms: C_2  and  C_3
REMARK    3  A    between atoms: C_3  and  C_4
REMARK    4  A    between atoms: C_5  and  S_6
REMARK    5  A    between atoms: S_6  and  C_7
REMARK    6  A    between atoms: N_13  and  C_14
REMARK    7  A    between atoms: C_14  and  S_15
REMARK    8  A    between atoms: S_15  and  C_16
REMARK    9  A    between atoms: C_16  and  C_17
REMARK   10  A    between atoms: C_17  and  O_18
REMARK                            x       y       z     vdW  Elec       q    Type
REMARK                         _______ _______ _______ _____ _____    ______ ____
ROOT
ATOM      1  C   UNL     1       2.890   4.354  19.653  0.00  0.00    +0.000 A 
ATOM      2  C   UNL     1       3.135   5.471  18.930  0.00  0.00    +0.000 A 
ATOM      3  N   UNL     1       2.645   6.718  19.348  0.00  0.00    +0.000 N 
ATOM      4  C   UNL     1       1.786   6.826  20.435  0.00  0.00    +0.000 A 
ATOM      5  O   UNL     1       1.402   7.887  20.925  0.00  0.00    +0.000 OA
ATOM      6  N   UNL     1       1.383   5.659  21.003  0.00  0.00    +0.000 N 
ATOM      7  C   UNL     1       2.114   4.525  20.908  0.00  0.00    +0.000 A 
ATOM      8  O   UNL     1       2.129   3.694  21.810  0.00  0.00    +0.000 OA
ATOM      9  H   UNL     1       0.859   5.768  21.857  0.00  0.00    +0.000 HD
ENDROOT
BRANCH   1  10
ATOM     10  C   UNL     1       3.358   2.931  19.407  0.00  0.00    +0.000 C 
BRANCH  10  12
ATOM     11  C   UNL     1       1.044   2.210  18.690  0.00  0.00    +0.000 C 
ATOM     12  C   UNL     1       2.527   2.183  18.352  0.00  0.00    +0.000 C 
ENDBRANCH  10  12
ENDBRANCH   1  10
BRANCH   2  13
ATOM     13  S   UNL     1       4.003   5.349  17.413  0.00  0.00    +0.000 S 
BRANCH  13  14
ATOM     14  C   UNL     1       5.642   5.954  17.810  0.00  0.00    +0.000 A 
ATOM     15  C   UNL     1       6.250   7.028  17.156  0.00  0.00    +0.000 A 
ATOM     16  C   UNL     1       7.523   7.464  17.544  0.00  0.00    +0.000 A 
ATOM     17  C   UNL     1       8.192   6.837  18.595  0.00  0.00    +0.000 A 
ATOM     18  C   UNL     1       7.588   5.776  19.266  0.00  0.00    +0.000 A 
ATOM     19  C   UNL     1       6.318   5.342  18.877  0.00  0.00    +0.000 A 
ENDBRANCH  13  14
ENDBRANCH   2  13
BRANCH   3  20
ATOM     20  C   UNL     1       2.966   7.982  18.686  0.00  0.00    +0.000 C 
BRANCH  20  21
ATOM     21  S   UNL     1       1.567   8.578  17.679  0.00  0.00    +0.000 S 
BRANCH  21  22
ATOM     22  C   UNL     1       1.382  10.236  18.426  0.00  0.00    +0.000 C 
BRANCH  22  23
ATOM     23  C   UNL     1      -0.097  10.567  18.612  0.00  0.00    +0.000 C 
BRANCH  23  24
ATOM     24  O   UNL     1      -0.852  10.233  17.452  0.00  0.00    +0.000 OA
ATOM     25  H   UNL     1      -1.692   9.855  17.773  0.00  0.00    +0.000 HD
ENDBRANCH  23  24
ENDBRANCH  22  23
ENDBRANCH  21  22
ENDBRANCH  20  21
ENDBRANCH   3  20
TORSDOF 9
ENDMDL
MODEL 4
REMARK VINA RESULT:      -6.1      2.699      6.633
REMARK  Name = 
REMARK  10 active torsions:
REMARK  status: ('A' for Active; 'I' for Inactive)
REMARK    1  A    between atoms: C_1  and  C_2
REMARK    2  A    between atoms: C_2  and  C_3
REMARK    3  A    between atoms: C_3  and  C_4
REMARK    4  A    between atoms: C_5  and  S_6
REMARK    5  A    between atoms: S_6  and  C_7
REMARK    6  A    between atoms: N_13  and  C_14
REMARK    7  A    between atoms: C_14  and  S_15
REMARK    8  A    between atoms: S_15  and  C_16
REMARK    9  A    between atoms: C_16  and  C_17
REMARK   10  A    between atoms: C_17  and  O_18
REMARK                            x       y       z     vdW  Elec       q    Type
REMARK                         _______ _______ _______ _____ _____    ______ ____
ROOT
ATOM      1  C   UNL     1       4.880   6.458  17.211  0.00  0.00    +0.000 A 
ATOM      2  C   UNL     1       4.815   5.106  17.206  0.00  0.00    +0.000 A 
ATOM      3  N   UNL     1       3.610   4.445  17.493  0.00  0.00    +0.000 N 
ATOM      4  C   UNL     1       2.488   5.146  17.919  0.00  0.00    +0.000 A 
ATOM      5  O   UNL     1       1.374   4.654  18.085  0.00  0.00    +0.000 OA
ATOM      6  N   UNL     1       2.654   6.479  18.126  0.00  0.00    +0.000 N 
ATOM      7  C   UNL     1       3.620   7.188  17.499  0.00  0.00    +0.000 A 
ATOM      8  O   UNL     1       3.455   8.364  17.191  0.00  0.00    +0.000 OA
ATOM      9  H   UNL     1       1.801   6.981  18.319  0.00  0.00    +0.000 HD
ENDROOT
BRANCH   1  10
ATOM     10  C   UNL     1       6.057   7.361  16.889  0.00  0.00    +0.000 C 
BRANCH  10  12
ATOM     11  C   UNL     1       8.122   8.416  17.896  0.00  0.00    +0.000 C 
ATOM     12  C   UNL     1       7.258   7.166  17.828  0.00  0.00    +0.000 C 
ENDBRANCH  10  12
ENDBRANCH   1  10
BRANCH   2  13
ATOM     13  S   UNL     1       6.268   4.169  16.921  0.00  0.00    +0.000 S 
BRANCH  13  14
ATOM     14  C   UNL     1       6.445   4.191  15.139  0.00  0.00    +0.000 A 
ATOM     15  C   UNL     1       5.588   3.518  14.266  0.00  0.00    +0.000 A 
ATOM     16  C   UNL     1       5.773   3.608  12.881  0.00  0.00    +0.000 A 
ATOM     17  C   UNL     1       6.810   4.380  12.358  0.00  0.00    +0.000 A 
ATOM     18  C   UNL     1       7.661   5.070  13.218  0.00  0.00    +0.000 A 
ATOM     19  C   UNL     1       7.476   4.979  14.600  0.00  0.00    +0.000 A 
ENDBRANCH  13  14
ENDBRANCH   2  13
BRANCH   3  20
ATOM     20  C   UNL     1       3.433   2.997  17.392  0.00  0.00    +0.000 C 
BRANCH  20  21
ATOM     21  S   UNL     1       3.748   2.178  18.991  0.00  0.00    +0.000 S 
BRANCH  21  22
ATOM     22  C   UNL     1       2.018   1.810  19.454  0.00  0.00    +0.000 C 
BRANCH  22  23
ATOM     23  C   UNL     1       1.655   2.535  20.748  0.00  0.00    +0.000 C 
BRANCH  23  24
ATOM     24  O   UNL     1       0.542   3.403  20.560  0.00  0.00    +0.000 OA
ATOM     25  H   UNL     1       0.347   3.390  19.603  0.00  0.00    +0.000 HD
ENDBRANCH  23  24
ENDBRANCH  22  23
ENDBRANCH  21  22
ENDBRANCH  20  21
ENDBRANCH   3  20
TORSDOF 9
ENDMDL
MODEL 5
REMARK VINA RESULT:      -6.0      2.559      5.497
REMARK  Name = 
REMARK  10 active torsions:
REMARK  status: ('A' for Active; 'I' for Inactive)
REMARK    1  A    between atoms: C_1  and  C_2
REMARK    2  A    between atoms: C_2  and  C_3
REMARK    3  A    between atoms: C_3  and  C_4
REMARK    4  A    between atoms: C_5  and  S_6
REMARK    5  A    between atoms: S_6  and  C_7
REMARK    6  A    between atoms: N_13  and  C_14
REMARK    7  A    between atoms: C_14  and  S_15
REMARK    8  A    between atoms: S_15  and  C_16
REMARK    9  A    between atoms: C_16  and  C_17
REMARK   10  A    between atoms: C_17  and  O_18
REMARK                            x       y       z     vdW  Elec       q    Type
REMARK                         _______ _______ _______ _____ _____    ______ ____
ROOT
ATOM      1  C   UNL     1       2.933   6.310  19.214  0.00  0.00    +0.000 A 
ATOM      2  C   UNL     1       3.483   5.119  18.880  0.00  0.00    +0.000 A 
ATOM      3  N   UNL     1       3.345   4.004  19.721  0.00  0.00    +0.000 N 
ATOM      4  C   UNL     1       2.761   4.118  20.978  0.00  0.00    +0.000 A 
ATOM      5  O   UNL     1       2.509   3.173  21.723  0.00  0.00    +0.000 OA
ATOM      6  N   UNL     1       2.420   5.373  21.371  0.00  0.00    +0.000 N 
ATOM      7  C   UNL     1       2.163   6.359  20.482  0.00  0.00    +0.000 A 
ATOM      8  O   UNL     1       1.340   7.237  20.718  0.00  0.00    +0.000 OA
ATOM      9  H   UNL     1       1.894   5.414  22.230  0.00  0.00    +0.000 HD
ENDROOT
BRANCH   1  10
ATOM     10  C   UNL     1       2.926   7.613  18.435  0.00  0.00    +0.000 C 
BRANCH  10  12
ATOM     11  C   UNL     1       1.177   9.344  17.855  0.00  0.00    +0.000 C 
ATOM     12  C   UNL     1       1.599   7.889  17.710  0.00  0.00    +0.000 C 
ENDBRANCH  10  12
ENDBRANCH   1  10
BRANCH   2  13
ATOM     13  S   UNL     1       4.447   4.987  17.423  0.00  0.00    +0.000 S 
BRANCH  13  14
ATOM     14  C   UNL     1       5.956   5.861  17.830  0.00  0.00    +0.000 A 
ATOM     15  C   UNL     1       6.376   7.025  17.182  0.00  0.00    +0.000 A 
ATOM     16  C   UNL     1       7.554   7.670  17.578  0.00  0.00    +0.000 A 
ATOM     17  C   UNL     1       8.316   7.163  18.630  0.00  0.00    +0.000 A 
ATOM     18  C   UNL     1       7.898   6.012  19.295  0.00  0.00    +0.000 A 
ATOM     19  C   UNL     1       6.722   5.369  18.898  0.00  0.00    +0.000 A 
ENDBRANCH  13  14
ENDBRANCH   2  13
BRANCH   3  20
ATOM     20  C   UNL     1       3.808   2.661  19.375  0.00  0.00    +0.000 C 
BRANCH  20  21
ATOM     21  S   UNL     1       2.840   1.962  17.996  0.00  0.00    +0.000 S 
BRANCH  21  22
ATOM     22  C   UNL     1       1.224   1.826  18.839  0.00  0.00    +0.000 C 
BRANCH  22  23
ATOM     23  C   UNL     1       0.370   3.056  18.539  0.00  0.00    +0.000 C 
BRANCH  23  24
ATOM     24  O   UNL     1       0.909   3.808  17.455  0.00  0.00    +0.000 OA
ATOM     25  H   UNL     1       0.920   4.738  17.749  0.00  0.00    +0.000 HD
ENDBRANCH  23  24
ENDBRANCH  22  23
ENDBRANCH  21  22
ENDBRANCH  20  21
ENDBRANCH   3  20
TORSDOF 9
ENDMDL
MODEL 6
REMARK VINA RESULT:      -5.9      0.357      1.062
REMARK  Name = 
REMARK  10 active torsions:
REMARK  status: ('A' for Active; 'I' for Inactive)
REMARK    1  A    between atoms: C_1  and  C_2
REMARK    2  A    between atoms: C_2  and  C_3
REMARK    3  A    between atoms: C_3  and  C_4
REMARK    4  A    between atoms: C_5  and  S_6
REMARK    5  A    between atoms: S_6  and  C_7
REMARK    6  A    between atoms: N_13  and  C_14
REMARK    7  A    between atoms: C_14  and  S_15
REMARK    8  A    between atoms: S_15  and  C_16
REMARK    9  A    between atoms: C_16  and  C_17
REMARK   10  A    between atoms: C_17  and  O_18
REMARK                            x       y       z     vdW  Elec       q    Type
REMARK                         _______ _______ _______ _____ _____    ______ ____
ROOT
ATOM      1  C   UNL     1       1.931   3.930  19.262  0.00  0.00    +0.000 A 
ATOM      2  C   UNL     1       2.933   4.834  19.153  0.00  0.00    +0.000 A 
ATOM      3  N   UNL     1       3.865   4.748  18.106  0.00  0.00    +0.000 N 
ATOM      4  C   UNL     1       3.871   3.665  17.234  0.00  0.00    +0.000 A 
ATOM      5  O   UNL     1       4.582   3.573  16.235  0.00  0.00    +0.000 OA
ATOM      6  N   UNL     1       2.992   2.666  17.509  0.00  0.00    +0.000 N 
ATOM      7  C   UNL     1       1.857   2.881  18.212  0.00  0.00    +0.000 A 
ATOM      8  O   UNL     1       0.834   2.244  17.989  0.00  0.00    +0.000 OA
ATOM      9  H   UNL     1       2.935   1.953  16.799  0.00  0.00    +0.000 HD
ENDROOT
BRANCH   1  10
ATOM     10  C   UNL     1       0.805   3.866  20.277  0.00  0.00    +0.000 C 
BRANCH  10  12
ATOM     11  C   UNL     1       2.559   2.496  21.476  0.00  0.00    +0.000 C 
ATOM     12  C   UNL     1       1.195   3.161  21.586  0.00  0.00    +0.000 C 
ENDBRANCH  10  12
ENDBRANCH   1  10
BRANCH   2  13
ATOM     13  S   UNL     1       3.118   6.074  20.375  0.00  0.00    +0.000 S 
BRANCH  13  14
ATOM     14  C   UNL     1       2.216   7.469  19.706  0.00  0.00    +0.000 A 
ATOM     15  C   UNL     1       1.446   8.339  20.482  0.00  0.00    +0.000 A 
ATOM     16  C   UNL     1       0.794   9.428  19.890  0.00  0.00    +0.000 A 
ATOM     17  C   UNL     1       0.913   9.660  18.520  0.00  0.00    +0.000 A 
ATOM     18  C   UNL     1       1.692   8.809  17.738  0.00  0.00    +0.000 A 
ATOM     19  C   UNL     1       2.342   7.723  18.330  0.00  0.00    +0.000 A 
ENDBRANCH  13  14
ENDBRANCH   2  13
BRANCH   3  20
ATOM     20  C   UNL     1       4.900   5.750  17.855  0.00  0.00    +0.000 C 
BRANCH  20  21
ATOM     21  S   UNL     1       6.328   5.522  18.965  0.00  0.00    +0.000 S 
BRANCH  21  22
ATOM     22  C   UNL     1       7.548   4.956  17.727  0.00  0.00    +0.000 C 
BRANCH  22  23
ATOM     23  C   UNL     1       7.293   5.643  16.386  0.00  0.00    +0.000 C 
BRANCH  23  24
ATOM     24  O   UNL     1       7.246   4.698  15.322  0.00  0.00    +0.000 OA
ATOM     25  H   UNL     1       6.315   4.659  15.034  0.00  0.00    +0.000 HD
ENDBRANCH  23  24
ENDBRANCH  22  23
ENDBRANCH  21  22
ENDBRANCH  20  21
ENDBRANCH   3  20
TORSDOF 9
ENDMDL
MODEL 7
REMARK VINA RESULT:      -5.8      3.157      6.852
REMARK  Name = 
REMARK  10 active torsions:
REMARK  status: ('A' for Active; 'I' for Inactive)
REMARK    1  A    between atoms: C_1  and  C_2
REMARK    2  A    between atoms: C_2  and  C_3
REMARK    3  A    between atoms: C_3  and  C_4
REMARK    4  A    between atoms: C_5  and  S_6
REMARK    5  A    between atoms: S_6  and  C_7
REMARK    6  A    between atoms: N_13  and  C_14
REMARK    7  A    between atoms: C_14  and  S_15
REMARK    8  A    between atoms: S_15  and  C_16
REMARK    9  A    between atoms: C_16  and  C_17
REMARK   10  A    between atoms: C_17  and  O_18
REMARK                            x       y       z     vdW  Elec       q    Type
REMARK                         _______ _______ _______ _____ _____    ______ ____
ROOT
ATOM      1  C   UNL     1       6.683   5.882  17.919  0.00  0.00    +0.000 A 
ATOM      2  C   UNL     1       5.508   5.574  17.321  0.00  0.00    +0.000 A 
ATOM      3  N   UNL     1       4.664   4.592  17.864  0.00  0.00    +0.000 N 
ATOM      4  C   UNL     1       5.063   3.817  18.946  0.00  0.00    +0.000 A 
ATOM      5  O   UNL     1       4.343   3.017  19.541  0.00  0.00    +0.000 OA
ATOM      6  N   UNL     1       6.337   4.002  19.382  0.00  0.00    +0.000 N 
ATOM      7  C   UNL     1       7.005   5.160  19.176  0.00  0.00    +0.000 A 
ATOM      8  O   UNL     1       7.826   5.579  19.985  0.00  0.00    +0.000 OA
ATOM      9  H   UNL     1       6.561   3.516  20.236  0.00  0.00    +0.000 HD
ENDROOT
BRANCH   1  10
ATOM     10  C   UNL     1       7.710   6.929  17.529  0.00  0.00    +0.000 C 
BRANCH  10  12
ATOM     11  C   UNL     1       8.424   9.276  18.141  0.00  0.00    +0.000 C 
ATOM     12  C   UNL     1       7.250   8.372  17.793  0.00  0.00    +0.000 C 
ENDBRANCH  10  12
ENDBRANCH   1  10
BRANCH   2  13
ATOM     13  S   UNL     1       5.074   6.348  15.811  0.00  0.00    +0.000 S 
BRANCH  13  14
ATOM     14  C   UNL     1       5.791   5.280  14.564  0.00  0.00    +0.000 A 
ATOM     15  C   UNL     1       5.100   4.232  13.952  0.00  0.00    +0.000 A 
ATOM     16  C   UNL     1       5.718   3.459  12.961  0.00  0.00    +0.000 A 
ATOM     17  C   UNL     1       7.027   3.734  12.569  0.00  0.00    +0.000 A 
ATOM     18  C   UNL     1       7.721   4.787  13.161  0.00  0.00    +0.000 A 
ATOM     19  C   UNL     1       7.103   5.557  14.149  0.00  0.00    +0.000 A 
ENDBRANCH  13  14
ENDBRANCH   2  13
BRANCH   3  20
ATOM     20  C   UNL     1       3.331   4.288  17.344  0.00  0.00    +0.000 C 
BRANCH  20  21
ATOM     21  S   UNL     1       2.051   5.288  18.174  0.00  0.00    +0.000 S 
BRANCH  21  22
ATOM     22  C   UNL     1       1.265   3.961  19.156  0.00  0.00    +0.000 C 
BRANCH  22  23
ATOM     23  C   UNL     1       1.302   4.315  20.642  0.00  0.00    +0.000 C 
BRANCH  23  24
ATOM     24  O   UNL     1       1.920   3.282  21.403  0.00  0.00    +0.000 OA
ATOM     25  H   UNL     1       2.243   3.704  22.222  0.00  0.00    +0.000 HD
ENDBRANCH  23  24
ENDBRANCH  22  23
ENDBRANCH  21  22
ENDBRANCH  20  21
ENDBRANCH   3  20
TORSDOF 9
ENDMDL
MODEL 8
REMARK VINA RESULT:      -5.8      3.224      6.842
REMARK  Name = 
REMARK  10 active torsions:
REMARK  status: ('A' for Active; 'I' for Inactive)
REMARK    1  A    between atoms: C_1  and  C_2
REMARK    2  A    between atoms: C_2  and  C_3
REMARK    3  A    between atoms: C_3  and  C_4
REMARK    4  A    between atoms: C_5  and  S_6
REMARK    5  A    between atoms: S_6  and  C_7
REMARK    6  A    between atoms: N_13  and  C_14
REMARK    7  A    between atoms: C_14  and  S_15
REMARK    8  A    between atoms: S_15  and  C_16
REMARK    9  A    between atoms: C_16  and  C_17
REMARK   10  A    between atoms: C_17  and  O_18
REMARK                            x       y       z     vdW  Elec       q    Type
REMARK                         _______ _______ _______ _____ _____    ______ ____
ROOT
ATOM      1  C   UNL     1       6.726   5.933  17.811  0.00  0.00    +0.000 A 
ATOM      2  C   UNL     1       5.542   5.612  17.240  0.00  0.00    +0.000 A 
ATOM      3  N   UNL     1       4.721   4.621  17.800  0.00  0.00    +0.000 N 
ATOM      4  C   UNL     1       5.154   3.849  18.873  0.00  0.00    +0.000 A 
ATOM      5  O   UNL     1       4.457   3.041  19.483  0.00  0.00    +0.000 OA
ATOM      6  N   UNL     1       6.436   4.048  19.278  0.00  0.00    +0.000 N 
ATOM      7  C   UNL     1       7.086   5.213  19.059  0.00  0.00    +0.000 A 
ATOM      8  O   UNL     1       7.920   5.641  19.849  0.00  0.00    +0.000 OA
ATOM      9  H   UNL     1       6.685   3.564  20.127  0.00  0.00    +0.000 HD
ENDROOT
BRANCH   1  10
ATOM     10  C   UNL     1       7.733   6.992  17.398  0.00  0.00    +0.000 C 
BRANCH  10  12
ATOM     11  C   UNL     1       8.446   9.296  18.157  0.00  0.00    +0.000 C 
ATOM     12  C   UNL     1       7.279   8.427  17.709  0.00  0.00    +0.000 C 
ENDBRANCH  10  12
ENDBRANCH   1  10
BRANCH   2  13
ATOM     13  S   UNL     1       5.065   6.382  15.741  0.00  0.00    +0.000 S 
BRANCH  13  14
ATOM     14  C   UNL     1       5.819   5.360  14.478  0.00  0.00    +0.000 A 
ATOM     15  C   UNL     1       7.140   5.506  14.049  0.00  0.00    +0.000 A 
ATOM     16  C   UNL     1       7.668   4.646  13.078  0.00  0.00    +0.000 A 
ATOM     17  C   UNL     1       6.883   3.630  12.535  0.00  0.00    +0.000 A 
ATOM     18  C   UNL     1       5.569   3.464  12.967  0.00  0.00    +0.000 A 
ATOM     19  C   UNL     1       5.043   4.322  13.936  0.00  0.00    +0.000 A 
ENDBRANCH  13  14
ENDBRANCH   2  13
BRANCH   3  20
ATOM     20  C   UNL     1       3.381   4.302  17.311  0.00  0.00    +0.000 C 
BRANCH  20  21
ATOM     21  S   UNL     1       2.103   5.229  18.225  0.00  0.00    +0.000 S 
BRANCH  21  22
ATOM     22  C   UNL     1       1.242   3.813  18.998  0.00  0.00    +0.000 C 
BRANCH  22  23
ATOM     23  C   UNL     1       1.125   4.029  20.506  0.00  0.00    +0.000 C 
BRANCH  23  24
ATOM     24  O   UNL     1       2.356   4.483  21.060  0.00  0.00    +0.000 OA
ATOM     25  H   UNL     1       2.688   5.173  20.455  0.00  0.00    +0.000 HD
ENDBRANCH  23  24
ENDBRANCH  22  23
ENDBRANCH  21  22
ENDBRANCH  20  21
ENDBRANCH   3  20
TORSDOF 9
ENDMDL
MODEL 9
REMARK VINA RESULT:      -5.7      1.932      2.399
REMARK  Name = 
REMARK  10 active torsions:
REMARK  status: ('A' for Active; 'I' for Inactive)
REMARK    1  A    between atoms: C_1  and  C_2
REMARK    2  A    between atoms: C_2  and  C_3
REMARK    3  A    between atoms: C_3  and  C_4
REMARK    4  A    between atoms: C_5  and  S_6
REMARK    5  A    between atoms: S_6  and  C_7
REMARK    6  A    between atoms: N_13  and  C_14
REMARK    7  A    between atoms: C_14  and  S_15
REMARK    8  A    between atoms: S_15  and  C_16
REMARK    9  A    between atoms: C_16  and  C_17
REMARK   10  A    between atoms: C_17  and  O_18
REMARK                            x       y       z     vdW  Elec       q    Type
REMARK                         _______ _______ _______ _____ _____    ______ ____
ROOT
ATOM      1  C   UNL     1       3.162   3.594  18.669  0.00  0.00    +0.000 A 
ATOM      2  C   UNL     1       3.538   4.794  18.167  0.00  0.00    +0.000 A 
ATOM      3  N   UNL     1       4.872   5.222  18.258  0.00  0.00    +0.000 N 
ATOM      4  C   UNL     1       5.814   4.498  18.979  0.00  0.00    +0.000 A 
ATOM      5  O   UNL     1       7.017   4.750  19.015  0.00  0.00    +0.000 OA
ATOM      6  N   UNL     1       5.351   3.414  19.656  0.00  0.00    +0.000 N 
ATOM      7  C   UNL     1       4.228   2.760  19.282  0.00  0.00    +0.000 A 
ATOM      8  O   UNL     1       4.106   1.550  19.442  0.00  0.00    +0.000 OA
ATOM      9  H   UNL     1       6.069   2.842  20.071  0.00  0.00    +0.000 HD
ENDROOT
BRANCH   1  10
ATOM     10  C   UNL     1       1.799   2.928  18.638  0.00  0.00    +0.000 C 
BRANCH  10  12
ATOM     11  C   UNL     1       1.361   2.956  21.127  0.00  0.00    +0.000 C 
ATOM     12  C   UNL     1       0.858   3.395  19.760  0.00  0.00    +0.000 C 
ENDBRANCH  10  12
ENDBRANCH   1  10
BRANCH   2  13
ATOM     13  S   UNL     1       2.334   5.857  17.469  0.00  0.00    +0.000 S 
BRANCH  13  14
ATOM     14  C   UNL     1       1.954   6.998  18.797  0.00  0.00    +0.000 A 
ATOM     15  C   UNL     1       1.982   6.651  20.149  0.00  0.00    +0.000 A 
ATOM     16  C   UNL     1       1.703   7.608  21.132  0.00  0.00    +0.000 A 
ATOM     17  C   UNL     1       1.402   8.921  20.771  0.00  0.00    +0.000 A 
ATOM     18  C   UNL     1       1.388   9.284  19.426  0.00  0.00    +0.000 A 
ATOM     19  C   UNL     1       1.667   8.327  18.446  0.00  0.00    +0.000 A 
ENDBRANCH  13  14
ENDBRANCH   2  13
BRANCH   3  20
ATOM     20  C   UNL     1       5.376   6.446  17.637  0.00  0.00    +0.000 C 
BRANCH  20  21
ATOM     21  S   UNL     1       5.335   6.333  15.817  0.00  0.00    +0.000 S 
BRANCH  21  22
ATOM     22  C   UNL     1       6.328   4.812  15.616  0.00  0.00    +0.000 C 
BRANCH  22  23
ATOM     23  C   UNL     1       6.681   4.605  14.145  0.00  0.00    +0.000 C 
BRANCH  23  24
ATOM     24  O   UNL     1       6.365   3.283  13.719  0.00  0.00    +0.000 OA
ATOM     25  H   UNL     1       5.890   2.864  14.461  0.00  0.00    +0.000 HD
ENDBRANCH  23  24
ENDBRANCH  22  23
ENDBRANCH  21  22
ENDBRANCH  20  21
ENDBRANCH   3  20
TORSDOF 9
ENDMDL
