MODEL 1
REMARK VINA RESULT:      -7.3      0.000      0.000
REMARK  Name = 
REMARK  6 active torsions:
REMARK  status: ('A' for Active; 'I' for Inactive)
REMARK    1  A    between atoms: C_1  and  O_2
REMARK    2  A    between atoms: O_2  and  C_3
REMARK    3  A    between atoms: C_6  and  C_7
REMARK    4  A    between atoms: C_9  and  C_10
REMARK    5  A    between atoms: N_16  and  C_17
REMARK    6  A    between atoms: C_18  and  C_19
REMARK                            x       y       z     vdW  Elec       q    Type
REMARK                         _______ _______ _______ _____ _____    ______ ____
ROOT
ATOM      1  C   UNL     1       1.324   9.870  18.396  0.00  0.00    +0.000 A 
ATOM      2  C   UNL     1       2.061  11.034  18.566  0.00  0.00    +0.000 A 
ATOM      3  C   UNL     1       1.448  12.295  18.675  0.00  0.00    +0.000 A 
ATOM      4  N   UNL     1       0.077  12.384  18.608  0.00  0.00    +0.000 N 
ATOM      5  C   UNL     1      -0.626  13.583  19.137  0.00  0.00    +0.000 C 
ATOM      6  C   UNL     1      -0.660  11.287  18.219  0.00  0.00    +0.000 A 
ATOM      7  C   UNL     1      -0.032  10.031  18.138  0.00  0.00    +0.000 A 
ENDROOT
BRANCH   1  11
ATOM      8  C   UNL     1       3.358   6.145  19.061  0.00  0.00    +0.000 A 
ATOM      9  C   UNL     1       3.466   6.794  17.839  0.00  0.00    +0.000 A 
ATOM     10  C   UNL     1       2.767   7.983  17.618  0.00  0.00    +0.000 A 
ATOM     11  C   UNL     1       1.920   8.537  18.599  0.00  0.00    +0.000 A 
ATOM     12  C   UNL     1       1.757   7.818  19.791  0.00  0.00    +0.000 A 
ATOM     13  C   UNL     1       2.473   6.639  20.017  0.00  0.00    +0.000 A 
BRANCH   8  15
ATOM     14  C   UNL     1       5.478   5.082  19.223  0.00  0.00    +0.000 C 
ATOM     15  O   UNL     1       4.077   5.054  19.448  0.00  0.00    +0.000 OA
ENDBRANCH   8  15
ENDBRANCH   1  11
BRANCH   3  16
ATOM     16  C   UNL     1       2.272  13.497  18.960  0.00  0.00    +0.000 A 
ATOM     17  C   UNL     1       2.681  14.398  17.955  0.00  0.00    +0.000 A 
ATOM     18  C   UNL     1       3.397  15.558  18.269  0.00  0.00    +0.000 A 
ATOM     19  C   UNL     1       3.796  15.809  19.578  0.00  0.00    +0.000 A 
ATOM     20  C   UNL     1       3.481  14.896  20.579  0.00  0.00    +0.000 A 
ATOM     21  C   UNL     1       2.713  13.767  20.273  0.00  0.00    +0.000 A 
ENDBRANCH   3  16
BRANCH   6  22
ATOM     22  C   UNL     1      -2.123  11.408  17.988  0.00  0.00    +0.000 A 
ATOM     23  C   UNL     1      -3.026  11.794  18.998  0.00  0.00    +0.000 A 
ATOM     24  C   UNL     1      -4.407  11.831  18.770  0.00  0.00    +0.000 A 
ATOM     25  C   UNL     1      -4.915  11.572  17.502  0.00  0.00    +0.000 A 
ATOM     26  C   UNL     1      -4.042  11.280  16.461  0.00  0.00    +0.000 A 
ATOM     27  C   UNL     1      -2.669  11.184  16.706  0.00  0.00    +0.000 A 
ENDBRANCH   6  22
TORSDOF 4
ENDMDL
MODEL 2
REMARK VINA RESULT:      -7.3      0.466      1.032
REMARK  Name = 
REMARK  6 active torsions:
REMARK  status: ('A' for Active; 'I' for Inactive)
REMARK    1  A    between atoms: C_1  and  O_2
REMARK    2  A    between atoms: O_2  and  C_3
REMARK    3  A    between atoms: C_6  and  C_7
REMARK    4  A    between atoms: C_9  and  C_10
REMARK    5  A    between atoms: N_16  and  C_17
REMARK    6  A    between atoms: C_18  and  C_19
REMARK                            x       y       z     vdW  Elec       q    Type
REMARK                         _______ _______ _______ _____ _____    ______ ____
ROOT
ATOM      1  C   UNL     1       1.291   9.841  18.559  0.00  0.00    +0.000 A 
ATOM      2  C   UNL     1       2.019  11.014  18.704  0.00  0.00    +0.000 A 
ATOM      3  C   UNL     1       1.401  12.277  18.718  0.00  0.00    +0.000 A 
ATOM      4  N   UNL     1       0.035  12.359  18.581  0.00  0.00    +0.000 N 
ATOM      5  C   UNL     1      -0.693  13.582  19.013  0.00  0.00    +0.000 C 
ATOM      6  C   UNL     1      -0.682  11.241  18.215  0.00  0.00    +0.000 A 
ATOM      7  C   UNL     1      -0.051   9.985  18.229  0.00  0.00    +0.000 A 
ENDROOT
BRANCH   1  11
ATOM      8  C   UNL     1       2.688   5.862  19.382  0.00  0.00    +0.000 A 
ATOM      9  C   UNL     1       2.066   6.606  20.375  0.00  0.00    +0.000 A 
ATOM     10  C   UNL     1       1.653   7.914  20.110  0.00  0.00    +0.000 A 
ATOM     11  C   UNL     1       1.878   8.521  18.859  0.00  0.00    +0.000 A 
ATOM     12  C   UNL     1       2.587   7.784  17.901  0.00  0.00    +0.000 A 
ATOM     13  C   UNL     1       2.982   6.469  18.161  0.00  0.00    +0.000 A 
BRANCH   8  15
ATOM     14  C   UNL     1       4.266   4.150  18.905  0.00  0.00    +0.000 C 
ATOM     15  O   UNL     1       3.025   4.545  19.469  0.00  0.00    +0.000 OA
ENDBRANCH   8  15
ENDBRANCH   1  11
BRANCH   3  16
ATOM     16  C   UNL     1       2.211  13.495  18.980  0.00  0.00    +0.000 A 
ATOM     17  C   UNL     1       2.634  14.365  17.953  0.00  0.00    +0.000 A 
ATOM     18  C   UNL     1       3.334  15.540  18.243  0.00  0.00    +0.000 A 
ATOM     19  C   UNL     1       3.703  15.839  19.550  0.00  0.00    +0.000 A 
ATOM     20  C   UNL     1       3.374  14.958  20.576  0.00  0.00    +0.000 A 
ATOM     21  C   UNL     1       2.621  13.813  20.292  0.00  0.00    +0.000 A 
ENDBRANCH   3  16
BRANCH   6  22
ATOM     22  C   UNL     1      -2.133  11.346  17.908  0.00  0.00    +0.000 A 
ATOM     23  C   UNL     1      -3.093  11.712  18.873  0.00  0.00    +0.000 A 
ATOM     24  C   UNL     1      -4.460  11.734  18.572  0.00  0.00    +0.000 A 
ATOM     25  C   UNL     1      -4.897  11.479  17.277  0.00  0.00    +0.000 A 
ATOM     26  C   UNL     1      -3.967  11.207  16.281  0.00  0.00    +0.000 A 
ATOM     27  C   UNL     1      -2.608  11.126  16.597  0.00  0.00    +0.000 A 
ENDBRANCH   6  22
TORSDOF 4
ENDMDL
MODEL 3
REMARK VINA RESULT:      -7.2      0.757      5.193
REMARK  Name = 
REMARK  6 active torsions:
REMARK  status: ('A' for Active; 'I' for Inactive)
REMARK    1  A    between atoms: C_1  and  O_2
REMARK    2  A    between atoms: O_2  and  C_3
REMARK    3  A    between atoms: C_6  and  C_7
REMARK    4  A    between atoms: C_9  and  C_10
REMARK    5  A    between atoms: N_16  and  C_17
REMARK    6  A    between atoms: C_18  and  C_19
REMARK                            x       y       z     vdW  Elec       q    Type
REMARK                         _______ _______ _______ _____ _____    ______ ____
ROOT
ATOM      1  C   UNL     1       1.098   9.675  19.060  0.00  0.00    +0.000 A 
ATOM      2  C   UNL     1      -0.201   9.825  18.595  0.00  0.00    +0.000 A 
ATOM      3  C   UNL     1      -0.801  11.088  18.452  0.00  0.00    +0.000 A 
ATOM      4  N   UNL     1      -0.084  12.214  18.785  0.00  0.00    +0.000 N 
ATOM      5  C   UNL     1      -0.488  13.546  18.260  0.00  0.00    +0.000 C 
ATOM      6  C   UNL     1       1.114  12.087  19.454  0.00  0.00    +0.000 A 
ATOM      7  C   UNL     1       1.707  10.817  19.566  0.00  0.00    +0.000 A 
ENDROOT
BRANCH   1  11
ATOM      8  C   UNL     1       3.527   6.147  18.726  0.00  0.00    +0.000 A 
ATOM      9  C   UNL     1       3.475   7.064  17.685  0.00  0.00    +0.000 A 
ATOM     10  C   UNL     1       2.651   8.187  17.786  0.00  0.00    +0.000 A 
ATOM     11  C   UNL     1       1.834   8.406  18.913  0.00  0.00    +0.000 A 
ATOM     12  C   UNL     1       1.834   7.423  19.912  0.00  0.00    +0.000 A 
ATOM     13  C   UNL     1       2.676   6.310  19.818  0.00  0.00    +0.000 A 
BRANCH   8  15
ATOM     14  C   UNL     1       5.729   5.354  19.135  0.00  0.00    +0.000 C 
ATOM     15  O   UNL     1       4.376   5.084  18.808  0.00  0.00    +0.000 OA
ENDBRANCH   8  15
ENDBRANCH   1  11
BRANCH   3  16
ATOM     16  C   UNL     1      -2.155  11.202  17.852  0.00  0.00    +0.000 A 
ATOM     17  C   UNL     1      -2.409  10.949  16.488  0.00  0.00    +0.000 A 
ATOM     18  C   UNL     1      -3.708  10.997  15.972  0.00  0.00    +0.000 A 
ATOM     19  C   UNL     1      -4.775  11.378  16.779  0.00  0.00    +0.000 A 
ATOM     20  C   UNL     1      -4.545  11.715  18.109  0.00  0.00    +0.000 A 
ATOM     21  C   UNL     1      -3.254  11.609  18.639  0.00  0.00    +0.000 A 
ENDBRANCH   3  16
BRANCH   6  22
ATOM     22  C   UNL     1       1.822  13.292  19.960  0.00  0.00    +0.000 A 
ATOM     23  C   UNL     1       1.499  13.910  21.184  0.00  0.00    +0.000 A 
ATOM     24  C   UNL     1       2.136  15.085  21.601  0.00  0.00    +0.000 A 
ATOM     25  C   UNL     1       3.176  15.622  20.850  0.00  0.00    +0.000 A 
ATOM     26  C   UNL     1       3.582  14.983  19.686  0.00  0.00    +0.000 A 
ATOM     27  C   UNL     1       2.903  13.845  19.240  0.00  0.00    +0.000 A 
ENDBRANCH   6  22
TORSDOF 4
ENDMDL
MODEL 4
REMARK VINA RESULT:      -7.2      0.853      5.264
REMARK  Name = 
REMARK  6 active torsions:
REMARK  status: ('A' for Active; 'I' for Inactive)
REMARK    1  A    between atoms: C_1  and  O_2
REMARK    2  A    between atoms: O_2  and  C_3
REMARK    3  A    between atoms: C_6  and  C_7
REMARK    4  A    between atoms: C_9  and  C_10
REMARK    5  A    between atoms: N_16  and  C_17
REMARK    6  A    between atoms: C_18  and  C_19
REMARK                            x       y       z     vdW  Elec       q    Type
REMARK                         _______ _______ _______ _____ _____    ______ ____
ROOT
ATOM      1  C   UNL     1       1.116   9.609  19.067  0.00  0.00    +0.000 A 
ATOM      2  C   UNL     1      -0.181   9.748  18.592  0.00  0.00    +0.000 A 
ATOM      3  C   UNL     1      -0.784  11.008  18.431  0.00  0.00    +0.000 A 
ATOM      4  N   UNL     1      -0.073  12.140  18.756  0.00  0.00    +0.000 N 
ATOM      5  C   UNL     1      -0.478  13.465  18.213  0.00  0.00    +0.000 C 
ATOM      6  C   UNL     1       1.121  12.025  19.433  0.00  0.00    +0.000 A 
ATOM      7  C   UNL     1       1.717  10.758  19.564  0.00  0.00    +0.000 A 
ENDROOT
BRANCH   1  11
ATOM      8  C   UNL     1       3.558   6.084  18.790  0.00  0.00    +0.000 A 
ATOM      9  C   UNL     1       3.518   6.994  17.743  0.00  0.00    +0.000 A 
ATOM     10  C   UNL     1       2.690   8.116  17.825  0.00  0.00    +0.000 A 
ATOM     11  C   UNL     1       1.857   8.340  18.939  0.00  0.00    +0.000 A 
ATOM     12  C   UNL     1       1.845   7.364  19.944  0.00  0.00    +0.000 A 
ATOM     13  C   UNL     1       2.690   6.253  19.870  0.00  0.00    +0.000 A 
BRANCH   8  15
ATOM     14  C   UNL     1       4.469   4.130  17.792  0.00  0.00    +0.000 C 
ATOM     15  O   UNL     1       4.407   5.024  18.892  0.00  0.00    +0.000 OA
ENDBRANCH   8  15
ENDBRANCH   1  11
BRANCH   3  16
ATOM     16  C   UNL     1      -2.135  11.111  17.822  0.00  0.00    +0.000 A 
ATOM     17  C   UNL     1      -3.269  11.534  18.546  0.00  0.00    +0.000 A 
ATOM     18  C   UNL     1      -4.511  11.687  17.923  0.00  0.00    +0.000 A 
ATOM     19  C   UNL     1      -4.677  11.344  16.585  0.00  0.00    +0.000 A 
ATOM     20  C   UNL     1      -3.598  10.843  15.865  0.00  0.00    +0.000 A 
ATOM     21  C   UNL     1      -2.341  10.748  16.474  0.00  0.00    +0.000 A 
ENDBRANCH   3  16
BRANCH   6  22
ATOM     22  C   UNL     1       1.822  13.238  19.931  0.00  0.00    +0.000 A 
ATOM     23  C   UNL     1       1.516  13.846  21.163  0.00  0.00    +0.000 A 
ATOM     24  C   UNL     1       2.145  15.028  21.573  0.00  0.00    +0.000 A 
ATOM     25  C   UNL     1       3.161  15.584  20.803  0.00  0.00    +0.000 A 
ATOM     26  C   UNL     1       3.552  14.955  19.627  0.00  0.00    +0.000 A 
ATOM     27  C   UNL     1       2.880  13.809  19.191  0.00  0.00    +0.000 A 
ENDBRANCH   6  22
TORSDOF 4
ENDMDL
MODEL 5
REMARK VINA RESULT:      -7.2      0.890      5.329
REMARK  Name = 
REMARK  6 active torsions:
REMARK  status: ('A' for Active; 'I' for Inactive)
REMARK    1  A    between atoms: C_1  and  O_2
REMARK    2  A    between atoms: O_2  and  C_3
REMARK    3  A    between atoms: C_6  and  C_7
REMARK    4  A    between atoms: C_9  and  C_10
REMARK    5  A    between atoms: N_16  and  C_17
REMARK    6  A    between atoms: C_18  and  C_19
REMARK                            x       y       z     vdW  Elec       q    Type
REMARK                         _______ _______ _______ _____ _____    ______ ____
ROOT
ATOM      1  C   UNL     1       1.075   9.697  19.208  0.00  0.00    +0.000 A 
ATOM      2  C   UNL     1      -0.204   9.816  18.682  0.00  0.00    +0.000 A 
ATOM      3  C   UNL     1      -0.823  11.066  18.504  0.00  0.00    +0.000 A 
ATOM      4  N   UNL     1      -0.147  12.209  18.864  0.00  0.00    +0.000 N 
ATOM      5  C   UNL     1      -0.555  13.529  18.313  0.00  0.00    +0.000 C 
ATOM      6  C   UNL     1       1.020  12.111  19.589  0.00  0.00    +0.000 A 
ATOM      7  C   UNL     1       1.634  10.855  19.736  0.00  0.00    +0.000 A 
ENDROOT
BRANCH   1  11
ATOM      8  C   UNL     1       3.022   5.887  18.824  0.00  0.00    +0.000 A 
ATOM      9  C   UNL     1       2.371   6.226  20.002  0.00  0.00    +0.000 A 
ATOM     10  C   UNL     1       1.777   7.484  20.133  0.00  0.00    +0.000 A 
ATOM     11  C   UNL     1       1.845   8.444  19.104  0.00  0.00    +0.000 A 
ATOM     12  C   UNL     1       2.583   8.113  17.959  0.00  0.00    +0.000 A 
ATOM     13  C   UNL     1       3.159   6.847  17.822  0.00  0.00    +0.000 A 
BRANCH   8  15
ATOM     14  C   UNL     1       4.819   4.345  19.025  0.00  0.00    +0.000 C 
ATOM     15  O   UNL     1       3.531   4.659  18.522  0.00  0.00    +0.000 OA
ENDBRANCH   8  15
ENDBRANCH   1  11
BRANCH   3  16
ATOM     16  C   UNL     1      -2.150  11.147  17.840  0.00  0.00    +0.000 A 
ATOM     17  C   UNL     1      -3.323  11.527  18.525  0.00  0.00    +0.000 A 
ATOM     18  C   UNL     1      -4.542  11.661  17.853  0.00  0.00    +0.000 A 
ATOM     19  C   UNL     1      -4.644  11.342  16.503  0.00  0.00    +0.000 A 
ATOM     20  C   UNL     1      -3.522  10.884  15.819  0.00  0.00    +0.000 A 
ATOM     21  C   UNL     1      -2.291  10.807  16.478  0.00  0.00    +0.000 A 
ENDBRANCH   3  16
BRANCH   6  22
ATOM     22  C   UNL     1       1.678  13.333  20.121  0.00  0.00    +0.000 A 
ATOM     23  C   UNL     1       1.279  13.954  21.321  0.00  0.00    +0.000 A 
ATOM     24  C   UNL     1       1.871  15.145  21.761  0.00  0.00    +0.000 A 
ATOM     25  C   UNL     1       2.937  15.696  21.061  0.00  0.00    +0.000 A 
ATOM     26  C   UNL     1       3.416  15.057  19.925  0.00  0.00    +0.000 A 
ATOM     27  C   UNL     1       2.784  13.902  19.454  0.00  0.00    +0.000 A 
ENDBRANCH   6  22
TORSDOF 4
ENDMDL
MODEL 6
REMARK VINA RESULT:      -7.2      0.750      5.326
REMARK  Name = 
REMARK  6 active torsions:
REMARK  status: ('A' for Active; 'I' for Inactive)
REMARK    1  A    between atoms: C_1  and  O_2
REMARK    2  A    between atoms: O_2  and  C_3
REMARK    3  A    between atoms: C_6  and  C_7
REMARK    4  A    between atoms: C_9  and  C_10
REMARK    5  A    between atoms: N_16  and  C_17
REMARK    6  A    between atoms: C_18  and  C_19
REMARK                            x       y       z     vdW  Elec       q    Type
REMARK                         _______ _______ _______ _____ _____    ______ ____
ROOT
ATOM      1  C   UNL     1       1.072   9.702  19.087  0.00  0.00    +0.000 A 
ATOM      2  C   UNL     1      -0.233   9.849  18.637  0.00  0.00    +0.000 A 
ATOM      3  C   UNL     1      -0.828  11.113  18.477  0.00  0.00    +0.000 A 
ATOM      4  N   UNL     1      -0.100  12.242  18.777  0.00  0.00    +0.000 N 
ATOM      5  C   UNL     1      -0.504  13.565  18.231  0.00  0.00    +0.000 C 
ATOM      6  C   UNL     1       1.106  12.122  19.432  0.00  0.00    +0.000 A 
ATOM      7  C   UNL     1       1.694  10.851  19.561  0.00  0.00    +0.000 A 
ENDROOT
BRANCH   1  11
ATOM      8  C   UNL     1       3.476   6.153  18.796  0.00  0.00    +0.000 A 
ATOM      9  C   UNL     1       3.432   7.059  17.745  0.00  0.00    +0.000 A 
ATOM     10  C   UNL     1       2.616   8.189  17.832  0.00  0.00    +0.000 A 
ATOM     11  C   UNL     1       1.799   8.426  18.956  0.00  0.00    +0.000 A 
ATOM     12  C   UNL     1       1.791   7.454  19.965  0.00  0.00    +0.000 A 
ATOM     13  C   UNL     1       2.624   6.335  19.885  0.00  0.00    +0.000 A 
BRANCH   8  15
ATOM     14  C   UNL     1       5.710   5.350  18.899  0.00  0.00    +0.000 C 
ATOM     15  O   UNL     1       4.317   5.085  18.891  0.00  0.00    +0.000 OA
ENDBRANCH   8  15
ENDBRANCH   1  11
BRANCH   3  16
ATOM     16  C   UNL     1      -2.190  11.223  17.894  0.00  0.00    +0.000 A 
ATOM     17  C   UNL     1      -3.316  11.605  18.653  0.00  0.00    +0.000 A 
ATOM     18  C   UNL     1      -4.570  11.767  18.056  0.00  0.00    +0.000 A 
ATOM     19  C   UNL     1      -4.755  11.472  16.709  0.00  0.00    +0.000 A 
ATOM     20  C   UNL     1      -3.682  11.011  15.953  0.00  0.00    +0.000 A 
ATOM     21  C   UNL     1      -2.415  10.908  16.537  0.00  0.00    +0.000 A 
ENDBRANCH   3  16
BRANCH   6  22
ATOM     22  C   UNL     1       1.828  13.332  19.904  0.00  0.00    +0.000 A 
ATOM     23  C   UNL     1       2.834  13.965  19.148  0.00  0.00    +0.000 A 
ATOM     24  C   UNL     1       3.546  15.061  19.649  0.00  0.00    +0.000 A 
ATOM     25  C   UNL     1       3.209  15.611  20.881  0.00  0.00    +0.000 A 
ATOM     26  C   UNL     1       2.159  15.068  21.609  0.00  0.00    +0.000 A 
ATOM     27  C   UNL     1       1.491  13.936  21.134  0.00  0.00    +0.000 A 
ENDBRANCH   6  22
TORSDOF 4
ENDMDL
MODEL 7
REMARK VINA RESULT:      -7.2      0.474      1.666
REMARK  Name = 
REMARK  6 active torsions:
REMARK  status: ('A' for Active; 'I' for Inactive)
REMARK    1  A    between atoms: C_1  and  O_2
REMARK    2  A    between atoms: O_2  and  C_3
REMARK    3  A    between atoms: C_6  and  C_7
REMARK    4  A    between atoms: C_9  and  C_10
REMARK    5  A    between atoms: N_16  and  C_17
REMARK    6  A    between atoms: C_18  and  C_19
REMARK                            x       y       z     vdW  Elec       q    Type
REMARK                         _______ _______ _______ _____ _____    ______ ____
ROOT
ATOM      1  C   UNL     1       1.292   9.833  18.562  0.00  0.00    +0.000 A 
ATOM      2  C   UNL     1       2.016  11.007  18.718  0.00  0.00    +0.000 A 
ATOM      3  C   UNL     1       1.397  12.270  18.727  0.00  0.00    +0.000 A 
ATOM      4  N   UNL     1       0.032  12.350  18.574  0.00  0.00    +0.000 N 
ATOM      5  C   UNL     1      -0.702  13.571  18.999  0.00  0.00    +0.000 C 
ATOM      6  C   UNL     1      -0.679  11.232  18.196  0.00  0.00    +0.000 A 
ATOM      7  C   UNL     1      -0.046   9.976  18.215  0.00  0.00    +0.000 A 
ENDROOT
BRANCH   1  11
ATOM      8  C   UNL     1       2.682   5.855  19.398  0.00  0.00    +0.000 A 
ATOM      9  C   UNL     1       2.059   6.602  20.388  0.00  0.00    +0.000 A 
ATOM     10  C   UNL     1       1.648   7.910  20.118  0.00  0.00    +0.000 A 
ATOM     11  C   UNL     1       1.877   8.514  18.866  0.00  0.00    +0.000 A 
ATOM     12  C   UNL     1       2.587   7.774  17.912  0.00  0.00    +0.000 A 
ATOM     13  C   UNL     1       2.979   6.458  18.176  0.00  0.00    +0.000 A 
BRANCH   8  15
ATOM     14  C   UNL     1       4.259   4.140  18.928  0.00  0.00    +0.000 C 
ATOM     15  O   UNL     1       3.018   4.537  19.488  0.00  0.00    +0.000 OA
ENDBRANCH   8  15
ENDBRANCH   1  11
BRANCH   3  16
ATOM     16  C   UNL     1       2.201  13.488  19.002  0.00  0.00    +0.000 A 
ATOM     17  C   UNL     1       2.530  13.907  20.308  0.00  0.00    +0.000 A 
ATOM     18  C   UNL     1       3.349  15.020  20.527  0.00  0.00    +0.000 A 
ATOM     19  C   UNL     1       3.793  15.791  19.458  0.00  0.00    +0.000 A 
ATOM     20  C   UNL     1       3.416  15.453  18.163  0.00  0.00    +0.000 A 
ATOM     21  C   UNL     1       2.647  14.305  17.941  0.00  0.00    +0.000 A 
ENDBRANCH   3  16
BRANCH   6  22
ATOM     22  C   UNL     1      -2.126  11.336  17.872  0.00  0.00    +0.000 A 
ATOM     23  C   UNL     1      -2.641  11.079  16.586  0.00  0.00    +0.000 A 
ATOM     24  C   UNL     1      -3.999  11.254  16.294  0.00  0.00    +0.000 A 
ATOM     25  C   UNL     1      -4.893  11.603  17.301  0.00  0.00    +0.000 A 
ATOM     26  C   UNL     1      -4.431  11.771  18.600  0.00  0.00    +0.000 A 
ATOM     27  C   UNL     1      -3.065  11.656  18.876  0.00  0.00    +0.000 A 
ENDBRANCH   6  22
TORSDOF 4
ENDMDL
MODEL 8
REMARK VINA RESULT:      -7.2      0.141      1.314
REMARK  Name = 
REMARK  6 active torsions:
REMARK  status: ('A' for Active; 'I' for Inactive)
REMARK    1  A    between atoms: C_1  and  O_2
REMARK    2  A    between atoms: O_2  and  C_3
REMARK    3  A    between atoms: C_6  and  C_7
REMARK    4  A    between atoms: C_9  and  C_10
REMARK    5  A    between atoms: N_16  and  C_17
REMARK    6  A    between atoms: C_18  and  C_19
REMARK                            x       y       z     vdW  Elec       q    Type
REMARK                         _______ _______ _______ _____ _____    ______ ____
ROOT
ATOM      1  C   UNL     1       1.230   9.884  18.481  0.00  0.00    +0.000 A 
ATOM      2  C   UNL     1       1.966  11.047  18.661  0.00  0.00    +0.000 A 
ATOM      3  C   UNL     1       1.355  12.311  18.746  0.00  0.00    +0.000 A 
ATOM      4  N   UNL     1      -0.015  12.403  18.646  0.00  0.00    +0.000 N 
ATOM      5  C   UNL     1      -0.726  13.607  19.150  0.00  0.00    +0.000 C 
ATOM      6  C   UNL     1      -0.745  11.305  18.247  0.00  0.00    +0.000 A 
ATOM      7  C   UNL     1      -0.119  10.047  18.190  0.00  0.00    +0.000 A 
ENDROOT
BRANCH   1  11
ATOM      8  C   UNL     1       3.242   6.158  19.205  0.00  0.00    +0.000 A 
ATOM      9  C   UNL     1       3.336   6.776  17.966  0.00  0.00    +0.000 A 
ATOM     10  C   UNL     1       2.645   7.966  17.727  0.00  0.00    +0.000 A 
ATOM     11  C   UNL     1       1.818   8.551  18.707  0.00  0.00    +0.000 A 
ATOM     12  C   UNL     1       1.667   7.863  19.919  0.00  0.00    +0.000 A 
ATOM     13  C   UNL     1       2.376   6.684  20.163  0.00  0.00    +0.000 A 
BRANCH   8  15
ATOM     14  C   UNL     1       5.302   4.973  19.166  0.00  0.00    +0.000 C 
ATOM     15  O   UNL     1       3.958   5.070  19.608  0.00  0.00    +0.000 OA
ENDBRANCH   8  15
ENDBRANCH   1  11
BRANCH   3  16
ATOM     16  C   UNL     1       2.175  13.513  19.042  0.00  0.00    +0.000 A 
ATOM     17  C   UNL     1       2.538  13.884  20.354  0.00  0.00    +0.000 A 
ATOM     18  C   UNL     1       3.371  14.983  20.591  0.00  0.00    +0.000 A 
ATOM     19  C   UNL     1       3.796  15.788  19.539  0.00  0.00    +0.000 A 
ATOM     20  C   UNL     1       3.385  15.497  18.242  0.00  0.00    +0.000 A 
ATOM     21  C   UNL     1       2.602  14.363  18.000  0.00  0.00    +0.000 A 
ENDBRANCH   3  16
BRANCH   6  22
ATOM     22  C   UNL     1      -2.202  11.428  17.981  0.00  0.00    +0.000 A 
ATOM     23  C   UNL     1      -2.772  11.180  16.717  0.00  0.00    +0.000 A 
ATOM     24  C   UNL     1      -4.138  11.373  16.479  0.00  0.00    +0.000 A 
ATOM     25  C   UNL     1      -4.986  11.732  17.520  0.00  0.00    +0.000 A 
ATOM     26  C   UNL     1      -4.470  11.893  18.800  0.00  0.00    +0.000 A 
ATOM     27  C   UNL     1      -3.097  11.760  19.022  0.00  0.00    +0.000 A 
ENDBRANCH   6  22
TORSDOF 4
ENDMDL
MODEL 9
REMARK VINA RESULT:      -7.2      0.770      1.574
REMARK  Name = 
REMARK  6 active torsions:
REMARK  status: ('A' for Active; 'I' for Inactive)
REMARK    1  A    between atoms: C_1  and  O_2
REMARK    2  A    between atoms: O_2  and  C_3
REMARK    3  A    between atoms: C_6  and  C_7
REMARK    4  A    between atoms: C_9  and  C_10
REMARK    5  A    between atoms: N_16  and  C_17
REMARK    6  A    between atoms: C_18  and  C_19
REMARK                            x       y       z     vdW  Elec       q    Type
REMARK                         _______ _______ _______ _____ _____    ______ ____
ROOT
ATOM      1  C   UNL     1       1.182   9.862  18.682  0.00  0.00    +0.000 A 
ATOM      2  C   UNL     1       1.942  11.020  18.775  0.00  0.00    +0.000 A 
ATOM      3  C   UNL     1       1.358  12.299  18.752  0.00  0.00    +0.000 A 
ATOM      4  N   UNL     1      -0.008  12.412  18.631  0.00  0.00    +0.000 N 
ATOM      5  C   UNL     1      -0.698  13.668  19.028  0.00  0.00    +0.000 C 
ATOM      6  C   UNL     1      -0.759  11.301  18.314  0.00  0.00    +0.000 A 
ATOM      7  C   UNL     1      -0.160  10.030  18.365  0.00  0.00    +0.000 A 
ENDROOT
BRANCH   1  11
ATOM      8  C   UNL     1       2.484   5.882  19.642  0.00  0.00    +0.000 A 
ATOM      9  C   UNL     1       1.937   6.696  20.623  0.00  0.00    +0.000 A 
ATOM     10  C   UNL     1       1.555   8.003  20.311  0.00  0.00    +0.000 A 
ATOM     11  C   UNL     1       1.739   8.539  19.021  0.00  0.00    +0.000 A 
ATOM     12  C   UNL     1       2.375   7.730  18.070  0.00  0.00    +0.000 A 
ATOM     13  C   UNL     1       2.737   6.416  18.378  0.00  0.00    +0.000 A 
BRANCH   8  15
ATOM     14  C   UNL     1       2.203   3.872  20.878  0.00  0.00    +0.000 C 
ATOM     15  O   UNL     1       2.781   4.559  19.780  0.00  0.00    +0.000 OA
ENDBRANCH   8  15
ENDBRANCH   1  11
BRANCH   3  16
ATOM     16  C   UNL     1       2.202  13.503  18.959  0.00  0.00    +0.000 A 
ATOM     17  C   UNL     1       2.597  13.947  20.238  0.00  0.00    +0.000 A 
ATOM     18  C   UNL     1       3.451  15.044  20.392  0.00  0.00    +0.000 A 
ATOM     19  C   UNL     1       3.866  15.777  19.285  0.00  0.00    +0.000 A 
ATOM     20  C   UNL     1       3.424  15.416  18.016  0.00  0.00    +0.000 A 
ATOM     21  C   UNL     1       2.619  14.282  17.859  0.00  0.00    +0.000 A 
ENDBRANCH   3  16
BRANCH   6  22
ATOM     22  C   UNL     1      -2.211  11.433  18.024  0.00  0.00    +0.000 A 
ATOM     23  C   UNL     1      -3.152  11.827  18.996  0.00  0.00    +0.000 A 
ATOM     24  C   UNL     1      -4.522  11.875  18.712  0.00  0.00    +0.000 A 
ATOM     25  C   UNL     1      -4.979  11.618  17.424  0.00  0.00    +0.000 A 
ATOM     26  C   UNL     1      -4.067  11.319  16.419  0.00  0.00    +0.000 A 
ATOM     27  C   UNL     1      -2.706  11.212  16.720  0.00  0.00    +0.000 A 
ENDBRANCH   6  22
TORSDOF 4
ENDMDL
