MODEL 1
REMARK VINA RESULT:      -7.4      0.000      0.000
REMARK  Name = 
REMARK  8 active torsions:
REMARK  status: ('A' for Active; 'I' for Inactive)
REMARK    1  A    between atoms: C_1  and  O_2
REMARK    2  A    between atoms: O_2  and  C_3
REMARK    3  A    between atoms: C_8  and  C_9
REMARK    4  A    between atoms: C_9  and  N_10
REMARK    5  A    between atoms: C_16  and  C_17
REMARK    6  A    between atoms: N_19  and  C_20
REMARK    7  A    between atoms: C_20  and  C_21
REMARK    8  A    between atoms: C_21  and  N_22
REMARK                            x       y       z     vdW  Elec       q    Type
REMARK                         _______ _______ _______ _____ _____    ______ ____
ROOT
ATOM      1  N   UNL     1      -1.477  12.200  21.826  0.00  0.00    +0.000 N 
ATOM      2  C   UNL     1      -0.782  12.661  20.722  0.00  0.00    +0.000 A 
ATOM      3  S   UNL     1       0.174  14.043  20.659  0.00  0.00    +0.000 S 
ATOM      4  N   UNL     1      -0.706  11.728  19.705  0.00  0.00    +0.000 N 
ATOM      5  C   UNL     1      -0.117  10.510  20.110  0.00  0.00    +0.000 A 
ATOM      6  C   UNL     1       0.597   9.785  19.162  0.00  0.00    +0.000 A 
ATOM      7  C   UNL     1       1.463   8.753  19.549  0.00  0.00    +0.000 A 
ATOM      8  C   UNL     1       1.576   8.460  20.913  0.00  0.00    +0.000 A 
ATOM      9  C   UNL     1       0.776   9.153  21.868  0.00  0.00    +0.000 A 
ATOM     10  C   UNL     1      -0.087  10.176  21.454  0.00  0.00    +0.000 A 
ATOM     11  C   UNL     1      -0.986  10.997  22.361  0.00  0.00    +0.000 A 
ATOM     12  O   UNL     1      -1.169  10.616  23.518  0.00  0.00    +0.000 OA
ATOM     13  H   UNL     1      -1.637  11.534  19.341  0.00  0.00    +0.000 HD
ENDROOT
BRANCH   7  14
ATOM     14  C   UNL     1       2.259   8.153  18.424  0.00  0.00    +0.000 C 
ATOM     15  O   UNL     1       2.234   8.716  17.331  0.00  0.00    +0.000 OA
ATOM     16  N   UNL     1       2.947   6.962  18.600  0.00  0.00    +0.000 N 
ATOM     17  H   UNL     1       2.751   6.408  19.418  0.00  0.00    +0.000 HD
BRANCH  16  18
ATOM     18  C   UNL     1       3.458   6.268  17.406  0.00  0.00    +0.000 C 
BRANCH  18  19
ATOM     19  C   UNL     1       4.900   6.671  16.978  0.00  0.00    +0.000 C 
BRANCH  19  20
ATOM     20  N   UNL     1       5.880   5.561  16.890  0.00  0.00    +0.000 NA
ATOM     21  C   UNL     1       5.630   4.542  17.946  0.00  0.00    +0.000 C 
ATOM     22  C   UNL     1       6.088   4.938  19.366  0.00  0.00    +0.000 C 
ATOM     23  O   UNL     1       7.455   5.365  19.392  0.00  0.00    +0.000 OA
ATOM     24  C   UNL     1       7.662   6.438  18.465  0.00  0.00    +0.000 C 
ATOM     25  C   UNL     1       7.291   5.995  17.040  0.00  0.00    +0.000 C 
ENDBRANCH  19  20
ENDBRANCH  18  19
ENDBRANCH  16  18
ENDBRANCH   7  14
BRANCH   1  26
ATOM     26  C   UNL     1      -2.182  13.169  22.679  0.00  0.00    +0.000 C 
BRANCH  26  32
ATOM     27  C   UNL     1      -4.734  13.443  22.145  0.00  0.00    +0.000 A 
ATOM     28  C   UNL     1      -6.073  13.244  22.565  0.00  0.00    +0.000 A 
ATOM     29  C   UNL     1      -6.368  12.769  23.839  0.00  0.00    +0.000 A 
ATOM     30  C   UNL     1      -5.332  12.460  24.704  0.00  0.00    +0.000 A 
ATOM     31  C   UNL     1      -4.006  12.556  24.259  0.00  0.00    +0.000 A 
ATOM     32  C   UNL     1      -3.682  13.000  22.963  0.00  0.00    +0.000 A 
BRANCH  27  34
ATOM     33  C   UNL     1      -5.004  15.427  20.905  0.00  0.00    +0.000 C 
ATOM     34  O   UNL     1      -4.446  14.111  20.980  0.00  0.00    +0.000 OA
ENDBRANCH  27  34
ENDBRANCH  26  32
ENDBRANCH   1  26
TORSDOF 7
ENDMDL
MODEL 2
REMARK VINA RESULT:      -7.4      1.431      1.945
REMARK  Name = 
REMARK  8 active torsions:
REMARK  status: ('A' for Active; 'I' for Inactive)
REMARK    1  A    between atoms: C_1  and  O_2
REMARK    2  A    between atoms: O_2  and  C_3
REMARK    3  A    between atoms: C_8  and  C_9
REMARK    4  A    between atoms: C_9  and  N_10
REMARK    5  A    between atoms: C_16  and  C_17
REMARK    6  A    between atoms: N_19  and  C_20
REMARK    7  A    between atoms: C_20  and  C_21
REMARK    8  A    between atoms: C_21  and  N_22
REMARK                            x       y       z     vdW  Elec       q    Type
REMARK                         _______ _______ _______ _____ _____    ______ ____
ROOT
ATOM      1  N   UNL     1      -1.084  12.425  20.855  0.00  0.00    +0.000 N 
ATOM      2  C   UNL     1      -0.161  12.627  19.845  0.00  0.00    +0.000 A 
ATOM      3  S   UNL     1       0.998  13.845  19.790  0.00  0.00    +0.000 S 
ATOM      4  N   UNL     1      -0.074  11.558  18.972  0.00  0.00    +0.000 N 
ATOM      5  C   UNL     1       0.246  10.341  19.614  0.00  0.00    +0.000 A 
ATOM      6  C   UNL     1       0.976   9.400  18.897  0.00  0.00    +0.000 A 
ATOM      7  C   UNL     1       1.598   8.325  19.548  0.00  0.00    +0.000 A 
ATOM      8  C   UNL     1       1.448   8.216  20.936  0.00  0.00    +0.000 A 
ATOM      9  C   UNL     1       0.628   9.138  21.648  0.00  0.00    +0.000 A 
ATOM     10  C   UNL     1       0.011  10.200  20.972  0.00  0.00    +0.000 A 
ATOM     11  C   UNL     1      -0.878  11.255  21.605  0.00  0.00    +0.000 A 
ATOM     12  O   UNL     1      -1.297  11.069  22.748  0.00  0.00    +0.000 OA
ATOM     13  H   UNL     1      -0.955  11.443  18.476  0.00  0.00    +0.000 HD
ENDROOT
BRANCH   7  14
ATOM     14  C   UNL     1       2.455   7.471  18.658  0.00  0.00    +0.000 C 
ATOM     15  O   UNL     1       3.058   8.015  17.735  0.00  0.00    +0.000 OA
ATOM     16  N   UNL     1       2.511   6.097  18.836  0.00  0.00    +0.000 N 
ATOM     17  H   UNL     1       1.829   5.660  19.434  0.00  0.00    +0.000 HD
BRANCH  16  18
ATOM     18  C   UNL     1       3.118   5.279  17.772  0.00  0.00    +0.000 C 
BRANCH  18  19
ATOM     19  C   UNL     1       4.621   4.932  17.985  0.00  0.00    +0.000 C 
BRANCH  19  20
ATOM     20  N   UNL     1       5.593   5.885  17.398  0.00  0.00    +0.000 NA
ATOM     21  C   UNL     1       5.809   5.606  15.951  0.00  0.00    +0.000 C 
ATOM     22  C   UNL     1       6.702   4.385  15.642  0.00  0.00    +0.000 C 
ATOM     23  O   UNL     1       7.953   4.443  16.337  0.00  0.00    +0.000 OA
ATOM     24  C   UNL     1       7.738   4.580  17.747  0.00  0.00    +0.000 C 
ATOM     25  C   UNL     1       6.928   5.853  18.044  0.00  0.00    +0.000 C 
ENDBRANCH  19  20
ENDBRANCH  18  19
ENDBRANCH  16  18
ENDBRANCH   7  14
BRANCH   1  26
ATOM     26  C   UNL     1      -1.753  13.591  21.453  0.00  0.00    +0.000 C 
BRANCH  26  32
ATOM     27  C   UNL     1      -3.852  13.617  23.023  0.00  0.00    +0.000 A 
ATOM     28  C   UNL     1      -5.261  13.527  23.139  0.00  0.00    +0.000 A 
ATOM     29  C   UNL     1      -6.058  13.211  22.043  0.00  0.00    +0.000 A 
ATOM     30  C   UNL     1      -5.463  13.005  20.810  0.00  0.00    +0.000 A 
ATOM     31  C   UNL     1      -4.081  13.194  20.667  0.00  0.00    +0.000 A 
ATOM     32  C   UNL     1      -3.258  13.549  21.753  0.00  0.00    +0.000 A 
BRANCH  27  34
ATOM     33  C   UNL     1      -2.991  15.025  24.704  0.00  0.00    +0.000 C 
ATOM     34  O   UNL     1      -3.052  13.712  24.136  0.00  0.00    +0.000 OA
ENDBRANCH  27  34
ENDBRANCH  26  32
ENDBRANCH   1  26
TORSDOF 7
ENDMDL
MODEL 3
REMARK VINA RESULT:      -7.4      2.228      2.824
REMARK  Name = 
REMARK  8 active torsions:
REMARK  status: ('A' for Active; 'I' for Inactive)
REMARK    1  A    between atoms: C_1  and  O_2
REMARK    2  A    between atoms: O_2  and  C_3
REMARK    3  A    between atoms: C_8  and  C_9
REMARK    4  A    between atoms: C_9  and  N_10
REMARK    5  A    between atoms: C_16  and  C_17
REMARK    6  A    between atoms: N_19  and  C_20
REMARK    7  A    between atoms: C_20  and  C_21
REMARK    8  A    between atoms: C_21  and  N_22
REMARK                            x       y       z     vdW  Elec       q    Type
REMARK                         _______ _______ _______ _____ _____    ______ ____
ROOT
ATOM      1  N   UNL     1      -1.202  12.315  20.266  0.00  0.00    +0.000 N 
ATOM      2  C   UNL     1      -0.313  12.577  19.239  0.00  0.00    +0.000 A 
ATOM      3  S   UNL     1       0.727  13.895  19.141  0.00  0.00    +0.000 S 
ATOM      4  N   UNL     1      -0.137  11.500  18.390  0.00  0.00    +0.000 N 
ATOM      5  C   UNL     1       0.302  10.334  19.056  0.00  0.00    +0.000 A 
ATOM      6  C   UNL     1       1.109   9.447  18.352  0.00  0.00    +0.000 A 
ATOM      7  C   UNL     1       1.835   8.451  19.019  0.00  0.00    +0.000 A 
ATOM      8  C   UNL     1       1.711   8.362  20.411  0.00  0.00    +0.000 A 
ATOM      9  C   UNL     1       0.816   9.221  21.112  0.00  0.00    +0.000 A 
ATOM     10  C   UNL     1       0.096  10.205  20.420  0.00  0.00    +0.000 A 
ATOM     11  C   UNL     1      -0.881  11.188  21.040  0.00  0.00    +0.000 A 
ATOM     12  O   UNL     1      -1.268  10.992  22.192  0.00  0.00    +0.000 OA
ATOM     13  H   UNL     1      -1.008  11.291  17.908  0.00  0.00    +0.000 HD
ENDROOT
BRANCH   7  14
ATOM     14  C   UNL     1       2.759   7.658  18.139  0.00  0.00    +0.000 C 
ATOM     15  O   UNL     1       2.866   7.992  16.960  0.00  0.00    +0.000 OA
ATOM     16  N   UNL     1       3.420   6.542  18.628  0.00  0.00    +0.000 N 
ATOM     17  H   UNL     1       3.127   6.157  19.512  0.00  0.00    +0.000 HD
BRANCH  16  18
ATOM     18  C   UNL     1       4.069   5.637  17.666  0.00  0.00    +0.000 C 
BRANCH  18  19
ATOM     19  C   UNL     1       3.286   4.324  17.365  0.00  0.00    +0.000 C 
BRANCH  19  20
ATOM     20  N   UNL     1       3.803   3.099  18.021  0.00  0.00    +0.000 NA
ATOM     21  C   UNL     1       2.813   1.989  17.937  0.00  0.00    +0.000 C 
ATOM     22  C   UNL     1       1.617   2.098  18.907  0.00  0.00    +0.000 C 
ATOM     23  O   UNL     1       2.038   2.297  20.262  0.00  0.00    +0.000 OA
ATOM     24  C   UNL     1       2.888   3.447  20.360  0.00  0.00    +0.000 C 
ATOM     25  C   UNL     1       4.123   3.279  19.459  0.00  0.00    +0.000 C 
ENDBRANCH  19  20
ENDBRANCH  18  19
ENDBRANCH  16  18
ENDBRANCH   7  14
BRANCH   1  26
ATOM     26  C   UNL     1      -1.971  13.428  20.845  0.00  0.00    +0.000 C 
BRANCH  26  32
ATOM     27  C   UNL     1      -4.003  13.262  22.492  0.00  0.00    +0.000 A 
ATOM     28  C   UNL     1      -5.391  13.036  22.661  0.00  0.00    +0.000 A 
ATOM     29  C   UNL     1      -6.193  12.633  21.598  0.00  0.00    +0.000 A 
ATOM     30  C   UNL     1      -5.626  12.476  20.344  0.00  0.00    +0.000 A 
ATOM     31  C   UNL     1      -4.276  12.798  20.148  0.00  0.00    +0.000 A 
ATOM     32  C   UNL     1      -3.452  13.241  21.200  0.00  0.00    +0.000 A 
BRANCH  27  34
ATOM     33  C   UNL     1      -3.582  14.502  24.451  0.00  0.00    +0.000 C 
ATOM     34  O   UNL     1      -3.176  13.446  23.574  0.00  0.00    +0.000 OA
ENDBRANCH  27  34
ENDBRANCH  26  32
ENDBRANCH   1  26
TORSDOF 7
ENDMDL
MODEL 4
REMARK VINA RESULT:      -7.3      2.206      3.043
REMARK  Name = 
REMARK  8 active torsions:
REMARK  status: ('A' for Active; 'I' for Inactive)
REMARK    1  A    between atoms: C_1  and  O_2
REMARK    2  A    between atoms: O_2  and  C_3
REMARK    3  A    between atoms: C_8  and  C_9
REMARK    4  A    between atoms: C_9  and  N_10
REMARK    5  A    between atoms: C_16  and  C_17
REMARK    6  A    between atoms: N_19  and  C_20
REMARK    7  A    between atoms: C_20  and  C_21
REMARK    8  A    between atoms: C_21  and  N_22
REMARK                            x       y       z     vdW  Elec       q    Type
REMARK                         _______ _______ _______ _____ _____    ______ ____
ROOT
ATOM      1  N   UNL     1      -1.903  12.607  20.188  0.00  0.00    +0.000 N 
ATOM      2  C   UNL     1      -1.078  12.897  19.116  0.00  0.00    +0.000 A 
ATOM      3  S   UNL     1      -0.180  14.304  18.910  0.00  0.00    +0.000 S 
ATOM      4  N   UNL     1      -0.821  11.796  18.321  0.00  0.00    +0.000 N 
ATOM      5  C   UNL     1      -0.245  10.719  19.031  0.00  0.00    +0.000 A 
ATOM      6  C   UNL     1       0.624   9.878  18.345  0.00  0.00    +0.000 A 
ATOM      7  C   UNL     1       1.469   8.998  19.037  0.00  0.00    +0.000 A 
ATOM      8  C   UNL     1       1.398   8.976  20.435  0.00  0.00    +0.000 A 
ATOM      9  C   UNL     1       0.444   9.781  21.123  0.00  0.00    +0.000 A 
ATOM     10  C   UNL     1      -0.394  10.648  20.407  0.00  0.00    +0.000 A 
ATOM     11  C   UNL     1      -1.445  11.563  21.009  0.00  0.00    +0.000 A 
ATOM     12  O   UNL     1      -1.773  11.395  22.184  0.00  0.00    +0.000 OA
ATOM     13  H   UNL     1      -1.682  11.475  17.883  0.00  0.00    +0.000 HD
ENDROOT
BRANCH   7  14
ATOM     14  C   UNL     1       2.439   8.252  18.166  0.00  0.00    +0.000 C 
ATOM     15  O   UNL     1       2.672   8.697  17.044  0.00  0.00    +0.000 OA
ATOM     16  N   UNL     1       3.004   7.061  18.595  0.00  0.00    +0.000 N 
ATOM     17  H   UNL     1       2.612   6.605  19.403  0.00  0.00    +0.000 HD
BRANCH  16  18
ATOM     18  C   UNL     1       3.705   6.225  17.606  0.00  0.00    +0.000 C 
BRANCH  18  19
ATOM     19  C   UNL     1       3.443   4.695  17.733  0.00  0.00    +0.000 C 
BRANCH  19  20
ATOM     20  N   UNL     1       3.172   4.198  19.104  0.00  0.00    +0.000 NA
ATOM     21  C   UNL     1       3.890   2.918  19.361  0.00  0.00    +0.000 C 
ATOM     22  C   UNL     1       3.267   1.670  18.701  0.00  0.00    +0.000 C 
ATOM     23  O   UNL     1       1.874   1.537  19.008  0.00  0.00    +0.000 OA
ATOM     24  C   UNL     1       1.163   2.724  18.636  0.00  0.00    +0.000 C 
ATOM     25  C   UNL     1       1.736   3.945  19.376  0.00  0.00    +0.000 C 
ENDBRANCH  19  20
ENDBRANCH  18  19
ENDBRANCH  16  18
ENDBRANCH   7  14
BRANCH   1  26
ATOM     26  C   UNL     1      -2.761  13.669  20.736  0.00  0.00    +0.000 C 
BRANCH  26  32
ATOM     27  C   UNL     1      -4.822  13.352  22.324  0.00  0.00    +0.000 A 
ATOM     28  C   UNL     1      -6.197  13.038  22.452  0.00  0.00    +0.000 A 
ATOM     29  C   UNL     1      -6.945  12.605  21.361  0.00  0.00    +0.000 A 
ATOM     30  C   UNL     1      -6.336  12.503  20.121  0.00  0.00    +0.000 A 
ATOM     31  C   UNL     1      -5.004  12.911  19.967  0.00  0.00    +0.000 A 
ATOM     32  C   UNL     1      -4.237  13.386  21.048  0.00  0.00    +0.000 A 
BRANCH  27  34
ATOM     33  C   UNL     1      -4.196  12.589  24.463  0.00  0.00    +0.000 C 
ATOM     34  O   UNL     1      -4.036  13.567  23.431  0.00  0.00    +0.000 OA
ENDBRANCH  27  34
ENDBRANCH  26  32
ENDBRANCH   1  26
TORSDOF 7
ENDMDL
MODEL 5
REMARK VINA RESULT:      -7.3      3.095      3.629
REMARK  Name = 
REMARK  8 active torsions:
REMARK  status: ('A' for Active; 'I' for Inactive)
REMARK    1  A    between atoms: C_1  and  O_2
REMARK    2  A    between atoms: O_2  and  C_3
REMARK    3  A    between atoms: C_8  and  C_9
REMARK    4  A    between atoms: C_9  and  N_10
REMARK    5  A    between atoms: C_16  and  C_17
REMARK    6  A    between atoms: N_19  and  C_20
REMARK    7  A    between atoms: C_20  and  C_21
REMARK    8  A    between atoms: C_21  and  N_22
REMARK                            x       y       z     vdW  Elec       q    Type
REMARK                         _______ _______ _______ _____ _____    ______ ____
ROOT
ATOM      1  N   UNL     1      -3.872  11.449  18.216  0.00  0.00    +0.000 N 
ATOM      2  C   UNL     1      -3.480  10.674  17.139  0.00  0.00    +0.000 A 
ATOM      3  S   UNL     1      -3.629  11.086  15.515  0.00  0.00    +0.000 S 
ATOM      4  N   UNL     1      -2.681   9.608  17.505  0.00  0.00    +0.000 N 
ATOM      5  C   UNL     1      -1.517   9.999  18.203  0.00  0.00    +0.000 A 
ATOM      6  C   UNL     1      -0.377   9.215  18.059  0.00  0.00    +0.000 A 
ATOM      7  C   UNL     1       0.880   9.696  18.449  0.00  0.00    +0.000 A 
ATOM      8  C   UNL     1       0.955  10.979  19.004  0.00  0.00    +0.000 A 
ATOM      9  C   UNL     1      -0.230  11.740  19.224  0.00  0.00    +0.000 A 
ATOM     10  C   UNL     1      -1.476  11.233  18.831  0.00  0.00    +0.000 A 
ATOM     11  C   UNL     1      -2.811  11.937  18.997  0.00  0.00    +0.000 A 
ATOM     12  O   UNL     1      -2.874  12.924  19.731  0.00  0.00    +0.000 OA
ATOM     13  H   UNL     1      -3.208   8.962  18.088  0.00  0.00    +0.000 HD
ENDROOT
BRANCH   7  14
ATOM     14  C   UNL     1       2.027   8.786  18.112  0.00  0.00    +0.000 C 
ATOM     15  O   UNL     1       2.681   9.027  17.099  0.00  0.00    +0.000 OA
ATOM     16  N   UNL     1       2.297   7.669  18.888  0.00  0.00    +0.000 N 
ATOM     17  H   UNL     1       1.606   7.368  19.556  0.00  0.00    +0.000 HD
BRANCH  16  18
ATOM     18  C   UNL     1       3.227   6.659  18.357  0.00  0.00    +0.000 C 
BRANCH  18  19
ATOM     19  C   UNL     1       2.567   5.310  17.941  0.00  0.00    +0.000 C 
BRANCH  19  20
ATOM     20  N   UNL     1       3.472   4.313  17.320  0.00  0.00    +0.000 NA
ATOM     21  C   UNL     1       2.856   2.957  17.325  0.00  0.00    +0.000 C 
ATOM     22  C   UNL     1       2.866   2.233  18.688  0.00  0.00    +0.000 C 
ATOM     23  O   UNL     1       4.176   2.194  19.267  0.00  0.00    +0.000 OA
ATOM     24  C   UNL     1       4.713   3.518  19.383  0.00  0.00    +0.000 C 
ATOM     25  C   UNL     1       4.784   4.189  18.001  0.00  0.00    +0.000 C 
ENDBRANCH  19  20
ENDBRANCH  18  19
ENDBRANCH  16  18
ENDBRANCH   7  14
BRANCH   1  26
ATOM     26  C   UNL     1      -5.147  12.180  18.142  0.00  0.00    +0.000 C 
BRANCH  26  32
ATOM     27  C   UNL     1      -6.447  13.080  20.232  0.00  0.00    +0.000 A 
ATOM     28  C   UNL     1      -7.389  12.821  21.259  0.00  0.00    +0.000 A 
ATOM     29  C   UNL     1      -7.916  11.548  21.452  0.00  0.00    +0.000 A 
ATOM     30  C   UNL     1      -7.532  10.520  20.607  0.00  0.00    +0.000 A 
ATOM     31  C   UNL     1      -6.681  10.793  19.526  0.00  0.00    +0.000 A 
ATOM     32  C   UNL     1      -6.162  12.080  19.289  0.00  0.00    +0.000 A 
BRANCH  27  34
ATOM     33  C   UNL     1      -6.609  15.428  20.129  0.00  0.00    +0.000 C 
ATOM     34  O   UNL     1      -5.766  14.272  20.177  0.00  0.00    +0.000 OA
ENDBRANCH  27  34
ENDBRANCH  26  32
ENDBRANCH   1  26
TORSDOF 7
ENDMDL
MODEL 6
REMARK VINA RESULT:      -7.3      1.327      2.194
REMARK  Name = 
REMARK  8 active torsions:
REMARK  status: ('A' for Active; 'I' for Inactive)
REMARK    1  A    between atoms: C_1  and  O_2
REMARK    2  A    between atoms: O_2  and  C_3
REMARK    3  A    between atoms: C_8  and  C_9
REMARK    4  A    between atoms: C_9  and  N_10
REMARK    5  A    between atoms: C_16  and  C_17
REMARK    6  A    between atoms: N_19  and  C_20
REMARK    7  A    between atoms: C_20  and  C_21
REMARK    8  A    between atoms: C_21  and  N_22
REMARK                            x       y       z     vdW  Elec       q    Type
REMARK                         _______ _______ _______ _____ _____    ______ ____
ROOT
ATOM      1  N   UNL     1      -0.507  12.437  21.738  0.00  0.00    +0.000 N 
ATOM      2  C   UNL     1       0.396  12.682  20.719  0.00  0.00    +0.000 A 
ATOM      3  S   UNL     1       1.689  13.757  20.779  0.00  0.00    +0.000 S 
ATOM      4  N   UNL     1       0.325  11.751  19.699  0.00  0.00    +0.000 N 
ATOM      5  C   UNL     1       0.522  10.425  20.143  0.00  0.00    +0.000 A 
ATOM      6  C   UNL     1       1.109   9.524  19.261  0.00  0.00    +0.000 A 
ATOM      7  C   UNL     1       1.623   8.302  19.717  0.00  0.00    +0.000 A 
ATOM      8  C   UNL     1       1.511   8.006  21.081  0.00  0.00    +0.000 A 
ATOM      9  C   UNL     1       0.832   8.898  21.960  0.00  0.00    +0.000 A 
ATOM     10  C   UNL     1       0.321  10.111  21.477  0.00  0.00    +0.000 A 
ATOM     11  C   UNL     1      -0.414  11.153  22.300  0.00  0.00    +0.000 A 
ATOM     12  O   UNL     1      -0.811  10.847  23.426  0.00  0.00    +0.000 OA
ATOM     13  H   UNL     1      -0.581  11.810  19.238  0.00  0.00    +0.000 HD
ENDROOT
BRANCH   7  14
ATOM     14  C   UNL     1       2.341   7.499  18.670  0.00  0.00    +0.000 C 
ATOM     15  O   UNL     1       2.796   8.092  17.694  0.00  0.00    +0.000 OA
ATOM     16  N   UNL     1       2.428   6.119  18.773  0.00  0.00    +0.000 N 
ATOM     17  H   UNL     1       1.845   5.647  19.445  0.00  0.00    +0.000 HD
BRANCH  16  18
ATOM     18  C   UNL     1       2.872   5.358  17.594  0.00  0.00    +0.000 C 
BRANCH  18  19
ATOM     19  C   UNL     1       4.397   5.447  17.288  0.00  0.00    +0.000 C 
BRANCH  19  20
ATOM     20  N   UNL     1       5.153   4.175  17.398  0.00  0.00    +0.000 NA
ATOM     21  C   UNL     1       6.289   4.310  18.351  0.00  0.00    +0.000 C 
ATOM     22  C   UNL     1       7.513   5.082  17.812  0.00  0.00    +0.000 C 
ATOM     23  O   UNL     1       7.967   4.563  16.556  0.00  0.00    +0.000 OA
ATOM     24  C   UNL     1       6.899   4.558  15.600  0.00  0.00    +0.000 C 
ATOM     25  C   UNL     1       5.725   3.706  16.112  0.00  0.00    +0.000 C 
ENDBRANCH  19  20
ENDBRANCH  18  19
ENDBRANCH  16  18
ENDBRANCH   7  14
BRANCH   1  26
ATOM     26  C   UNL     1      -1.012  13.569  22.531  0.00  0.00    +0.000 C 
BRANCH  26  32
ATOM     27  C   UNL     1      -3.633  13.575  22.561  0.00  0.00    +0.000 A 
ATOM     28  C   UNL     1      -4.832  14.231  22.189  0.00  0.00    +0.000 A 
ATOM     29  C   UNL     1      -4.818  15.356  21.370  0.00  0.00    +0.000 A 
ATOM     30  C   UNL     1      -3.604  15.859  20.932  0.00  0.00    +0.000 A 
ATOM     31  C   UNL     1      -2.410  15.277  21.381  0.00  0.00    +0.000 A 
ATOM     32  C   UNL     1      -2.398  14.160  22.238  0.00  0.00    +0.000 A 
BRANCH  27  34
ATOM     33  C   UNL     1      -4.139  12.384  24.529  0.00  0.00    +0.000 C 
ATOM     34  O   UNL     1      -3.656  12.350  23.182  0.00  0.00    +0.000 OA
ENDBRANCH  27  34
ENDBRANCH  26  32
ENDBRANCH   1  26
TORSDOF 7
ENDMDL
MODEL 7
REMARK VINA RESULT:      -7.2      2.131      2.954
REMARK  Name = 
REMARK  8 active torsions:
REMARK  status: ('A' for Active; 'I' for Inactive)
REMARK    1  A    between atoms: C_1  and  O_2
REMARK    2  A    between atoms: O_2  and  C_3
REMARK    3  A    between atoms: C_8  and  C_9
REMARK    4  A    between atoms: C_9  and  N_10
REMARK    5  A    between atoms: C_16  and  C_17
REMARK    6  A    between atoms: N_19  and  C_20
REMARK    7  A    between atoms: C_20  and  C_21
REMARK    8  A    between atoms: C_21  and  N_22
REMARK                            x       y       z     vdW  Elec       q    Type
REMARK                         _______ _______ _______ _____ _____    ______ ____
ROOT
ATOM      1  N   UNL     1      -1.562  12.577  21.578  0.00  0.00    +0.000 N 
ATOM      2  C   UNL     1      -0.685  12.852  20.544  0.00  0.00    +0.000 A 
ATOM      3  S   UNL     1       0.401  14.135  20.481  0.00  0.00    +0.000 S 
ATOM      4  N   UNL     1      -0.565  11.808  19.647  0.00  0.00    +0.000 N 
ATOM      5  C   UNL     1      -0.156  10.599  20.252  0.00  0.00    +0.000 A 
ATOM      6  C   UNL     1       0.604   9.715  19.493  0.00  0.00    +0.000 A 
ATOM      7  C   UNL     1       1.307   8.666  20.101  0.00  0.00    +0.000 A 
ATOM      8  C   UNL     1       1.207   8.520  21.490  0.00  0.00    +0.000 A 
ATOM      9  C   UNL     1       0.358   9.379  22.247  0.00  0.00    +0.000 A 
ATOM     10  C   UNL     1      -0.339  10.417  21.613  0.00  0.00    +0.000 A 
ATOM     11  C   UNL     1      -1.267  11.407  22.296  0.00  0.00    +0.000 A 
ATOM     12  O   UNL     1      -1.638  11.174  23.447  0.00  0.00    +0.000 OA
ATOM     13  H   UNL     1      -1.453  11.652  19.175  0.00  0.00    +0.000 HD
ENDROOT
BRANCH   7  14
ATOM     14  C   UNL     1       2.183   7.880  19.168  0.00  0.00    +0.000 C 
ATOM     15  O   UNL     1       2.256   8.244  17.995  0.00  0.00    +0.000 OA
ATOM     16  N   UNL     1       2.838   6.738  19.604  0.00  0.00    +0.000 N 
ATOM     17  H   UNL     1       2.569   6.335  20.487  0.00  0.00    +0.000 HD
BRANCH  16  18
ATOM     18  C   UNL     1       3.435   5.847  18.595  0.00  0.00    +0.000 C 
BRANCH  18  19
ATOM     19  C   UNL     1       4.223   4.634  19.173  0.00  0.00    +0.000 C 
BRANCH  19  20
ATOM     20  N   UNL     1       3.674   3.295  18.850  0.00  0.00    +0.000 NA
ATOM     21  C   UNL     1       2.216   3.372  18.555  0.00  0.00    +0.000 C 
ATOM     22  C   UNL     1       1.302   3.535  19.787  0.00  0.00    +0.000 C 
ATOM     23  O   UNL     1       1.563   2.542  20.787  0.00  0.00    +0.000 OA
ATOM     24  C   UNL     1       2.945   2.562  21.164  0.00  0.00    +0.000 C 
ATOM     25  C   UNL     1       3.838   2.302  19.939  0.00  0.00    +0.000 C 
ENDBRANCH  19  20
ENDBRANCH  18  19
ENDBRANCH  16  18
ENDBRANCH   7  14
BRANCH   1  26
ATOM     26  C   UNL     1      -2.278  13.691  22.220  0.00  0.00    +0.000 C 
BRANCH  26  32
ATOM     27  C   UNL     1      -4.840  13.189  22.460  0.00  0.00    +0.000 A 
ATOM     28  C   UNL     1      -6.163  13.503  22.063  0.00  0.00    +0.000 A 
ATOM     29  C   UNL     1      -6.414  14.411  21.039  0.00  0.00    +0.000 A 
ATOM     30  C   UNL     1      -5.350  15.038  20.413  0.00  0.00    +0.000 A 
ATOM     31  C   UNL     1      -4.045  14.810  20.871  0.00  0.00    +0.000 A 
ATOM     32  C   UNL     1      -3.767  13.924  21.929  0.00  0.00    +0.000 A 
BRANCH  27  34
ATOM     33  C   UNL     1      -4.702  12.473  24.700  0.00  0.00    +0.000 C 
ATOM     34  O   UNL     1      -4.582  12.143  23.312  0.00  0.00    +0.000 OA
ENDBRANCH  27  34
ENDBRANCH  26  32
ENDBRANCH   1  26
TORSDOF 7
ENDMDL
MODEL 8
REMARK VINA RESULT:      -7.2      3.474     11.795
REMARK  Name = 
REMARK  8 active torsions:
REMARK  status: ('A' for Active; 'I' for Inactive)
REMARK    1  A    between atoms: C_1  and  O_2
REMARK    2  A    between atoms: O_2  and  C_3
REMARK    3  A    between atoms: C_8  and  C_9
REMARK    4  A    between atoms: C_9  and  N_10
REMARK    5  A    between atoms: C_16  and  C_17
REMARK    6  A    between atoms: N_19  and  C_20
REMARK    7  A    between atoms: C_20  and  C_21
REMARK    8  A    between atoms: C_21  and  N_22
REMARK                            x       y       z     vdW  Elec       q    Type
REMARK                         _______ _______ _______ _____ _____    ______ ____
ROOT
ATOM      1  N   UNL     1       5.852   5.262  16.965  0.00  0.00    +0.000 N 
ATOM      2  C   UNL     1       5.987   5.183  18.340  0.00  0.00    +0.000 A 
ATOM      3  S   UNL     1       7.361   5.579  19.225  0.00  0.00    +0.000 S 
ATOM      4  N   UNL     1       4.780   5.005  18.990  0.00  0.00    +0.000 N 
ATOM      5  C   UNL     1       3.839   6.019  18.705  0.00  0.00    +0.000 A 
ATOM      6  C   UNL     1       2.918   6.350  19.693  0.00  0.00    +0.000 A 
ATOM      7  C   UNL     1       2.174   7.535  19.615  0.00  0.00    +0.000 A 
ATOM      8  C   UNL     1       2.370   8.367  18.506  0.00  0.00    +0.000 A 
ATOM      9  C   UNL     1       3.254   7.977  17.458  0.00  0.00    +0.000 A 
ATOM     10  C   UNL     1       3.981   6.783  17.558  0.00  0.00    +0.000 A 
ATOM     11  C   UNL     1       4.959   6.252  16.524  0.00  0.00    +0.000 A 
ATOM     12  O   UNL     1       4.971   6.762  15.403  0.00  0.00    +0.000 OA
ATOM     13  H   UNL     1       4.377   4.106  18.735  0.00  0.00    +0.000 HD
ENDROOT
BRANCH   7  14
ATOM     14  C   UNL     1       1.320   7.815  20.818  0.00  0.00    +0.000 C 
ATOM     15  O   UNL     1       0.325   7.115  20.999  0.00  0.00    +0.000 OA
ATOM     16  N   UNL     1       1.612   8.874  21.663  0.00  0.00    +0.000 N 
ATOM     17  H   UNL     1       2.278   9.566  21.358  0.00  0.00    +0.000 HD
BRANCH  16  18
ATOM     18  C   UNL     1       0.594   9.287  22.644  0.00  0.00    +0.000 C 
BRANCH  18  19
ATOM     19  C   UNL     1      -0.469  10.291  22.106  0.00  0.00    +0.000 C 
BRANCH  19  20
ATOM     20  N   UNL     1      -0.514  11.608  22.786  0.00  0.00    +0.000 NA
ATOM     21  C   UNL     1      -1.871  11.878  23.339  0.00  0.00    +0.000 C 
ATOM     22  C   UNL     1      -2.935  12.290  22.300  0.00  0.00    +0.000 C 
ATOM     23  O   UNL     1      -2.497  13.382  21.483  0.00  0.00    +0.000 OA
ATOM     24  C   UNL     1      -1.252  13.065  20.847  0.00  0.00    +0.000 C 
ATOM     25  C   UNL     1      -0.178  12.750  21.901  0.00  0.00    +0.000 C 
ENDBRANCH  19  20
ENDBRANCH  18  19
ENDBRANCH  16  18
ENDBRANCH   7  14
BRANCH   1  26
ATOM     26  C   UNL     1       6.970   4.827  16.113  0.00  0.00    +0.000 C 
BRANCH  26  32
ATOM     27  C   UNL     1       7.390   4.812  13.526  0.00  0.00    +0.000 A 
ATOM     28  C   UNL     1       7.007   4.318  12.255  0.00  0.00    +0.000 A 
ATOM     29  C   UNL     1       5.870   3.531  12.096  0.00  0.00    +0.000 A 
ATOM     30  C   UNL     1       5.114   3.203  13.209  0.00  0.00    +0.000 A 
ATOM     31  C   UNL     1       5.545   3.602  14.482  0.00  0.00    +0.000 A 
ATOM     32  C   UNL     1       6.710   4.368  14.672  0.00  0.00    +0.000 A 
BRANCH  27  34
ATOM     33  C   UNL     1       8.827   6.308  12.410  0.00  0.00    +0.000 C 
ATOM     34  O   UNL     1       8.377   5.759  13.653  0.00  0.00    +0.000 OA
ENDBRANCH  27  34
ENDBRANCH  26  32
ENDBRANCH   1  26
TORSDOF 7
ENDMDL
MODEL 9
REMARK VINA RESULT:      -7.1      2.290      2.891
REMARK  Name = 
REMARK  8 active torsions:
REMARK  status: ('A' for Active; 'I' for Inactive)
REMARK    1  A    between atoms: C_1  and  O_2
REMARK    2  A    between atoms: O_2  and  C_3
REMARK    3  A    between atoms: C_8  and  C_9
REMARK    4  A    between atoms: C_9  and  N_10
REMARK    5  A    between atoms: C_16  and  C_17
REMARK    6  A    between atoms: N_19  and  C_20
REMARK    7  A    between atoms: C_20  and  C_21
REMARK    8  A    between atoms: C_21  and  N_22
REMARK                            x       y       z     vdW  Elec       q    Type
REMARK                         _______ _______ _______ _____ _____    ______ ____
ROOT
ATOM      1  N   UNL     1      -2.176  12.952  20.964  0.00  0.00    +0.000 N 
ATOM      2  C   UNL     1      -1.429  13.246  19.836  0.00  0.00    +0.000 A 
ATOM      3  S   UNL     1      -0.530  14.644  19.580  0.00  0.00    +0.000 S 
ATOM      4  N   UNL     1      -1.247  12.152  19.010  0.00  0.00    +0.000 N 
ATOM      5  C   UNL     1      -0.635  11.059  19.663  0.00  0.00    +0.000 A 
ATOM      6  C   UNL     1       0.170  10.216  18.904  0.00  0.00    +0.000 A 
ATOM      7  C   UNL     1       1.052   9.317  19.520  0.00  0.00    +0.000 A 
ATOM      8  C   UNL     1       1.085   9.278  20.919  0.00  0.00    +0.000 A 
ATOM      9  C   UNL     1       0.196  10.085  21.685  0.00  0.00    +0.000 A 
ATOM     10  C   UNL     1      -0.681  10.972  21.044  0.00  0.00    +0.000 A 
ATOM     11  C   UNL     1      -1.671  11.892  21.735  0.00  0.00    +0.000 A 
ATOM     12  O   UNL     1      -1.914  11.713  22.929  0.00  0.00    +0.000 OA
ATOM     13  H   UNL     1      -2.142  11.848  18.635  0.00  0.00    +0.000 HD
ENDROOT
BRANCH   7  14
ATOM     14  C   UNL     1       1.944   8.570  18.570  0.00  0.00    +0.000 C 
ATOM     15  O   UNL     1       2.040   8.985  17.416  0.00  0.00    +0.000 OA
ATOM     16  N   UNL     1       2.588   7.409  18.967  0.00  0.00    +0.000 N 
ATOM     17  H   UNL     1       2.301   6.968  19.827  0.00  0.00    +0.000 HD
BRANCH  16  18
ATOM     18  C   UNL     1       3.203   6.561  17.932  0.00  0.00    +0.000 C 
BRANCH  18  19
ATOM     19  C   UNL     1       2.812   5.055  17.997  0.00  0.00    +0.000 C 
BRANCH  19  20
ATOM     20  N   UNL     1       3.289   4.315  19.191  0.00  0.00    +0.000 NA
ATOM     21  C   UNL     1       3.238   2.844  18.963  0.00  0.00    +0.000 C 
ATOM     22  C   UNL     1       1.831   2.214  19.038  0.00  0.00    +0.000 C 
ATOM     23  O   UNL     1       1.149   2.561  20.250  0.00  0.00    +0.000 OA
ATOM     24  C   UNL     1       1.085   3.985  20.399  0.00  0.00    +0.000 C 
ATOM     25  C   UNL     1       2.501   4.586  20.418  0.00  0.00    +0.000 C 
ENDBRANCH  19  20
ENDBRANCH  18  19
ENDBRANCH  16  18
ENDBRANCH   7  14
BRANCH   1  26
ATOM     26  C   UNL     1      -2.976  14.018  21.586  0.00  0.00    +0.000 C 
BRANCH  26  32
ATOM     27  C   UNL     1      -4.882  13.957  23.385  0.00  0.00    +0.000 A 
ATOM     28  C   UNL     1      -6.213  13.596  23.706  0.00  0.00    +0.000 A 
ATOM     29  C   UNL     1      -7.000  12.870  22.817  0.00  0.00    +0.000 A 
ATOM     30  C   UNL     1      -6.478  12.515  21.585  0.00  0.00    +0.000 A 
ATOM     31  C   UNL     1      -5.199  12.958  21.221  0.00  0.00    +0.000 A 
ATOM     32  C   UNL     1      -4.397  13.724  22.088  0.00  0.00    +0.000 A 
BRANCH  27  34
ATOM     33  C   UNL     1      -4.168  15.891  24.525  0.00  0.00    +0.000 C 
ATOM     34  O   UNL     1      -4.038  14.479  24.336  0.00  0.00    +0.000 OA
ENDBRANCH  27  34
ENDBRANCH  26  32
ENDBRANCH   1  26
TORSDOF 7
ENDMDL
