MODEL 1
REMARK VINA RESULT:      -6.0      0.000      0.000
REMARK  Name = 
REMARK  11 active torsions:
REMARK  status: ('A' for Active; 'I' for Inactive)
REMARK    1  A    between atoms: C_1  and  C_2
REMARK    2  A    between atoms: C_2  and  O_4
REMARK    3  A    between atoms: O_4  and  C_5
REMARK    4  A    between atoms: C_5  and  C_6
REMARK    5  A    between atoms: C_6  and  C_7
REMARK    6  A    between atoms: C_11  and  C_12
REMARK    7  A    between atoms: C_14  and  C_15
REMARK    8  A    between atoms: C_23  and  C_24
REMARK    9  A    between atoms: C_27  and  O_28
REMARK   10  A    between atoms: O_28  and  C_29
REMARK   11  A    between atoms: C_29  and  C_30
REMARK                            x       y       z     vdW  Elec       q    Type
REMARK                         _______ _______ _______ _____ _____    ______ ____
ROOT
ATOM      1  C   UNL     1       1.591  14.930  20.124  0.00  0.00    +0.000 C 
ATOM      2  C   UNL     1       1.705  15.692  21.464  0.00  0.00    +0.000 C 
ATOM      3  C   UNL     1       1.185  13.377  20.388  0.00  0.00    +0.000 C 
ATOM      4  C   UNL     1       0.056  13.114  21.394  0.00  0.00    +0.000 C 
ATOM      5  C   UNL     1      -0.032  11.618  21.753  0.00  0.00    +0.000 C 
ATOM      6  C   UNL     1      -0.235  10.678  20.564  0.00  0.00    +0.000 C 
ATOM      7  C   UNL     1      -0.114   9.212  21.054  0.00  0.00    +0.000 C 
ATOM      8  O   UNL     1      -1.566  10.835  20.055  0.00  0.00    +0.000 OA
ATOM      9  C   UNL     1      -1.639  10.198  18.763  0.00  0.00    +0.000 C 
ATOM     10  C   UNL     1      -0.179  10.282  18.219  0.00  0.00    +0.000 C 
ATOM     11  C   UNL     1       0.653  10.976  19.348  0.00  0.00    +0.000 C 
ATOM     12  C   UNL     1       0.966  12.532  19.079  0.00  0.00    +0.000 C 
ATOM     13  C   UNL     1      -0.192  13.117  18.244  0.00  0.00    +0.000 C 
ATOM     14  C   UNL     1       2.330  12.617  18.317  0.00  0.00    +0.000 C 
ATOM     15  C   UNL     1       2.963  14.011  18.158  0.00  0.00    +0.000 C 
ATOM     16  C   UNL     1       2.996  14.886  19.436  0.00  0.00    +0.000 C 
ENDROOT
BRANCH   9  17
ATOM     17  C   UNL     1      -2.777  10.794  17.995  0.00  0.00    +0.000 C 
ATOM     18  C   UNL     1      -3.733  11.669  18.323  0.00  0.00    +0.000 C 
ATOM     19  C   UNL     1      -4.675  11.878  17.207  0.00  0.00    +0.000 C 
ATOM     20  O   UNL     1      -4.187  11.036  16.171  0.00  0.00    +0.000 OA
ATOM     21  C   UNL     1      -3.052  10.409  16.595  0.00  0.00    +0.000 C 
ATOM     22  O   UNL     1      -2.386   9.666  15.895  0.00  0.00    +0.000 OA
ENDBRANCH   9  17
BRANCH   1  23
ATOM     23  C   UNL     1       0.610  15.776  19.235  0.00  0.00    +0.000 C 
BRANCH  23  24
ATOM     24  O   UNL     1      -0.090  16.852  19.901  0.00  0.00    +0.000 OA
BRANCH  24  26
ATOM     25  C   UNL     1      -2.197  16.037  20.586  0.00  0.00    +0.000 C 
ATOM     26  C   UNL     1      -1.432  16.929  19.658  0.00  0.00    +0.000 C 
ATOM     27  O   UNL     1      -1.980  17.594  18.781  0.00  0.00    +0.000 OA
ENDBRANCH  24  26
ENDBRANCH  23  24
ENDBRANCH   1  23
BRANCH  16  28
ATOM     28  O   UNL     1       3.400  16.228  19.078  0.00  0.00    +0.000 OA
BRANCH  28  29
ATOM     29  C   UNL     1       4.679  16.612  19.337  0.00  0.00    +0.000 C 
ATOM     30  C   UNL     1       5.276  15.758  20.420  0.00  0.00    +0.000 C 
ATOM     31  O   UNL     1       5.274  17.517  18.773  0.00  0.00    +0.000 OA
ENDBRANCH  28  29
ENDBRANCH  16  28
TORSDOF 6
ENDMDL
MODEL 2
REMARK VINA RESULT:      -6.0      0.939      1.139
REMARK  Name = 
REMARK  11 active torsions:
REMARK  status: ('A' for Active; 'I' for Inactive)
REMARK    1  A    between atoms: C_1  and  C_2
REMARK    2  A    between atoms: C_2  and  O_4
REMARK    3  A    between atoms: O_4  and  C_5
REMARK    4  A    between atoms: C_5  and  C_6
REMARK    5  A    between atoms: C_6  and  C_7
REMARK    6  A    between atoms: C_11  and  C_12
REMARK    7  A    between atoms: C_14  and  C_15
REMARK    8  A    between atoms: C_23  and  C_24
REMARK    9  A    between atoms: C_27  and  O_28
REMARK   10  A    between atoms: O_28  and  C_29
REMARK   11  A    between atoms: C_29  and  C_30
REMARK                            x       y       z     vdW  Elec       q    Type
REMARK                         _______ _______ _______ _____ _____    ______ ____
ROOT
ATOM      1  C   UNL     1       1.667  15.011  19.895  0.00  0.00    +0.000 C 
ATOM      2  C   UNL     1       1.788  15.868  21.176  0.00  0.00    +0.000 C 
ATOM      3  C   UNL     1       1.229  13.490  20.271  0.00  0.00    +0.000 C 
ATOM      4  C   UNL     1       0.090  13.325  21.285  0.00  0.00    +0.000 C 
ATOM      5  C   UNL     1      -0.030  11.861  21.753  0.00  0.00    +0.000 C 
ATOM      6  C   UNL     1      -0.244  10.840  20.636  0.00  0.00    +0.000 C 
ATOM      7  C   UNL     1      -0.155   9.412  21.234  0.00  0.00    +0.000 C 
ATOM      8  O   UNL     1      -1.568  10.983  20.107  0.00  0.00    +0.000 OA
ATOM      9  C   UNL     1      -1.646  10.253  18.866  0.00  0.00    +0.000 C 
ATOM     10  C   UNL     1      -0.182  10.269  18.327  0.00  0.00    +0.000 C 
ATOM     11  C   UNL     1       0.657  11.028  19.408  0.00  0.00    +0.000 C 
ATOM     12  C   UNL     1       1.002  12.554  19.026  0.00  0.00    +0.000 C 
ATOM     13  C   UNL     1      -0.139  13.098  18.142  0.00  0.00    +0.000 C 
ATOM     14  C   UNL     1       2.372  12.556  18.271  0.00  0.00    +0.000 C 
ATOM     15  C   UNL     1       3.033  13.923  18.013  0.00  0.00    +0.000 C 
ATOM     16  C   UNL     1       3.075  14.889  19.223  0.00  0.00    +0.000 C 
ENDROOT
BRANCH   9  17
ATOM     17  C   UNL     1      -2.768  10.812  18.047  0.00  0.00    +0.000 C 
ATOM     18  C   UNL     1      -3.762  11.660  18.330  0.00  0.00    +0.000 C 
ATOM     19  C   UNL     1      -4.662  11.837  17.173  0.00  0.00    +0.000 C 
ATOM     20  O   UNL     1      -4.106  11.005  16.164  0.00  0.00    +0.000 OA
ATOM     21  C   UNL     1      -2.972  10.413  16.639  0.00  0.00    +0.000 C 
ATOM     22  O   UNL     1      -2.256   9.687  15.971  0.00  0.00    +0.000 OA
ENDBRANCH   9  17
BRANCH   1  23
ATOM     23  C   UNL     1       0.709  15.807  18.938  0.00  0.00    +0.000 C 
BRANCH  23  24
ATOM     24  O   UNL     1       0.525  17.209  19.239  0.00  0.00    +0.000 OA
BRANCH  24  26
ATOM     25  C   UNL     1      -0.868  18.190  17.604  0.00  0.00    +0.000 C 
ATOM     26  C   UNL     1       0.514  18.053  18.165  0.00  0.00    +0.000 C 
ATOM     27  O   UNL     1       1.487  18.613  17.665  0.00  0.00    +0.000 OA
ENDBRANCH  24  26
ENDBRANCH  23  24
ENDBRANCH   1  23
BRANCH  16  28
ATOM     28  O   UNL     1       3.507  16.193  18.769  0.00  0.00    +0.000 OA
BRANCH  28  29
ATOM     29  C   UNL     1       4.657  16.711  19.281  0.00  0.00    +0.000 C 
ATOM     30  C   UNL     1       5.628  15.613  19.611  0.00  0.00    +0.000 C 
ATOM     31  O   UNL     1       4.884  17.899  19.449  0.00  0.00    +0.000 OA
ENDBRANCH  28  29
ENDBRANCH  16  28
TORSDOF 6
ENDMDL
MODEL 3
REMARK VINA RESULT:      -5.9      3.424      6.512
REMARK  Name = 
REMARK  11 active torsions:
REMARK  status: ('A' for Active; 'I' for Inactive)
REMARK    1  A    between atoms: C_1  and  C_2
REMARK    2  A    between atoms: C_2  and  O_4
REMARK    3  A    between atoms: O_4  and  C_5
REMARK    4  A    between atoms: C_5  and  C_6
REMARK    5  A    between atoms: C_6  and  C_7
REMARK    6  A    between atoms: C_11  and  C_12
REMARK    7  A    between atoms: C_14  and  C_15
REMARK    8  A    between atoms: C_23  and  C_24
REMARK    9  A    between atoms: C_27  and  O_28
REMARK   10  A    between atoms: O_28  and  C_29
REMARK   11  A    between atoms: C_29  and  C_30
REMARK                            x       y       z     vdW  Elec       q    Type
REMARK                         _______ _______ _______ _____ _____    ______ ____
ROOT
ATOM      1  C   UNL     1      -0.868  12.257  19.669  0.00  0.00    +0.000 C 
ATOM      2  C   UNL     1      -0.127  12.920  18.485  0.00  0.00    +0.000 C 
ATOM      3  C   UNL     1      -1.007  13.304  20.907  0.00  0.00    +0.000 C 
ATOM      4  C   UNL     1      -1.454  14.731  20.564  0.00  0.00    +0.000 C 
ATOM      5  C   UNL     1      -1.275  15.675  21.770  0.00  0.00    +0.000 C 
ATOM      6  C   UNL     1      -2.007  15.246  23.042  0.00  0.00    +0.000 C 
ATOM      7  C   UNL     1      -1.582  16.177  24.206  0.00  0.00    +0.000 C 
ATOM      8  O   UNL     1      -3.417  15.425  22.863  0.00  0.00    +0.000 OA
ATOM      9  C   UNL     1      -4.104  14.729  23.922  0.00  0.00    +0.000 C 
ATOM     10  C   UNL     1      -3.130  13.574  24.308  0.00  0.00    +0.000 C 
ATOM     11  C   UNL     1      -1.875  13.757  23.391  0.00  0.00    +0.000 C 
ATOM     12  C   UNL     1      -1.818  12.750  22.137  0.00  0.00    +0.000 C 
ATOM     13  C   UNL     1      -3.267  12.417  21.723  0.00  0.00    +0.000 C 
ATOM     14  C   UNL     1      -1.035  11.473  22.587  0.00  0.00    +0.000 C 
ATOM     15  C   UNL     1      -0.640  10.465  21.492  0.00  0.00    +0.000 C 
ATOM     16  C   UNL     1      -0.006  11.072  20.216  0.00  0.00    +0.000 C 
ENDROOT
BRANCH   9  17
ATOM     17  C   UNL     1      -5.503  14.433  23.477  0.00  0.00    +0.000 C 
ATOM     18  C   UNL     1      -6.397  15.132  22.772  0.00  0.00    +0.000 C 
ATOM     19  C   UNL     1      -7.680  14.410  22.665  0.00  0.00    +0.000 C 
ATOM     20  O   UNL     1      -7.465  13.202  23.382  0.00  0.00    +0.000 OA
ATOM     21  C   UNL     1      -6.182  13.173  23.846  0.00  0.00    +0.000 C 
ATOM     22  O   UNL     1      -5.701  12.230  24.451  0.00  0.00    +0.000 OA
ENDBRANCH   9  17
BRANCH   1  23
ATOM     23  C   UNL     1      -2.205  11.688  19.071  0.00  0.00    +0.000 C 
BRANCH  23  24
ATOM     24  O   UNL     1      -2.344  11.761  17.634  0.00  0.00    +0.000 OA
BRANCH  24  26
ATOM     25  C   UNL     1      -2.818  10.799  15.530  0.00  0.00    +0.000 C 
ATOM     26  C   UNL     1      -2.723  10.605  17.012  0.00  0.00    +0.000 C 
ATOM     27  O   UNL     1      -2.999   9.538  17.557  0.00  0.00    +0.000 OA
ENDBRANCH  24  26
ENDBRANCH  23  24
ENDBRANCH   1  23
BRANCH  16  28
ATOM     28  O   UNL     1       0.093  10.041  19.205  0.00  0.00    +0.000 OA
BRANCH  28  29
ATOM     29  C   UNL     1       1.239   9.311  19.133  0.00  0.00    +0.000 C 
ATOM     30  C   UNL     1       2.020   9.675  17.902  0.00  0.00    +0.000 C 
ATOM     31  O   UNL     1       1.599   8.478  19.950  0.00  0.00    +0.000 OA
ENDBRANCH  28  29
ENDBRANCH  16  28
TORSDOF 6
ENDMDL
MODEL 4
REMARK VINA RESULT:      -5.9      3.862      6.219
REMARK  Name = 
REMARK  11 active torsions:
REMARK  status: ('A' for Active; 'I' for Inactive)
REMARK    1  A    between atoms: C_1  and  C_2
REMARK    2  A    between atoms: C_2  and  O_4
REMARK    3  A    between atoms: O_4  and  C_5
REMARK    4  A    between atoms: C_5  and  C_6
REMARK    5  A    between atoms: C_6  and  C_7
REMARK    6  A    between atoms: C_11  and  C_12
REMARK    7  A    between atoms: C_14  and  C_15
REMARK    8  A    between atoms: C_23  and  C_24
REMARK    9  A    between atoms: C_27  and  O_28
REMARK   10  A    between atoms: O_28  and  C_29
REMARK   11  A    between atoms: C_29  and  C_30
REMARK                            x       y       z     vdW  Elec       q    Type
REMARK                         _______ _______ _______ _____ _____    ______ ____
ROOT
ATOM      1  C   UNL     1      -3.782  13.859  23.922  0.00  0.00    +0.000 C 
ATOM      2  C   UNL     1      -3.922  13.196  25.311  0.00  0.00    +0.000 C 
ATOM      3  C   UNL     1      -2.467  13.287  23.152  0.00  0.00    +0.000 C 
ATOM      4  C   UNL     1      -2.248  11.769  23.184  0.00  0.00    +0.000 C 
ATOM      5  C   UNL     1      -0.844  11.399  22.667  0.00  0.00    +0.000 C 
ATOM      6  C   UNL     1      -0.524  11.889  21.255  0.00  0.00    +0.000 C 
ATOM      7  C   UNL     1       0.971  11.611  20.951  0.00  0.00    +0.000 C 
ATOM      8  O   UNL     1      -1.286  11.135  20.304  0.00  0.00    +0.000 OA
ATOM      9  C   UNL     1      -1.223  11.809  19.031  0.00  0.00    +0.000 C 
ATOM     10  C   UNL     1      -1.010  13.307  19.407  0.00  0.00    +0.000 C 
ATOM     11  C   UNL     1      -0.929  13.342  20.969  0.00  0.00    +0.000 C 
ATOM     12  C   UNL     1      -2.278  13.843  21.691  0.00  0.00    +0.000 C 
ATOM     13  C   UNL     1      -3.474  13.445  20.802  0.00  0.00    +0.000 C 
ATOM     14  C   UNL     1      -2.176  15.394  21.865  0.00  0.00    +0.000 C 
ATOM     15  C   UNL     1      -3.239  16.076  22.747  0.00  0.00    +0.000 C 
ATOM     16  C   UNL     1      -3.527  15.391  24.106  0.00  0.00    +0.000 C 
ENDROOT
BRANCH   9  17
ATOM     17  C   UNL     1      -2.398  11.387  18.204  0.00  0.00    +0.000 C 
ATOM     18  C   UNL     1      -3.658  11.827  18.129  0.00  0.00    +0.000 C 
ATOM     19  C   UNL     1      -4.456  11.013  17.191  0.00  0.00    +0.000 C 
ATOM     20  O   UNL     1      -3.543  10.035  16.710  0.00  0.00    +0.000 OA
ATOM     21  C   UNL     1      -2.315  10.249  17.264  0.00  0.00    +0.000 C 
ATOM     22  O   UNL     1      -1.324   9.595  16.991  0.00  0.00    +0.000 OA
ENDBRANCH   9  17
BRANCH   1  23
ATOM     23  C   UNL     1      -5.166  13.651  23.209  0.00  0.00    +0.000 C 
BRANCH  23  24
ATOM     24  O   UNL     1      -5.773  12.347  23.360  0.00  0.00    +0.000 OA
BRANCH  24  26
ATOM     25  C   UNL     1      -7.531  13.715  24.144  0.00  0.00    +0.000 C 
ATOM     26  C   UNL     1      -7.083  12.342  23.748  0.00  0.00    +0.000 C 
ATOM     27  O   UNL     1      -7.821  11.361  23.818  0.00  0.00    +0.000 OA
ENDBRANCH  24  26
ENDBRANCH  23  24
ENDBRANCH   1  23
BRANCH  16  28
ATOM     28  O   UNL     1      -4.692  16.006  24.705  0.00  0.00    +0.000 OA
BRANCH  28  29
ATOM     29  C   UNL     1      -4.668  17.345  24.947  0.00  0.00    +0.000 C 
ATOM     30  C   UNL     1      -5.883  18.007  24.363  0.00  0.00    +0.000 C 
ATOM     31  O   UNL     1      -3.792  17.937  25.557  0.00  0.00    +0.000 OA
ENDBRANCH  28  29
ENDBRANCH  16  28
TORSDOF 6
ENDMDL
MODEL 5
REMARK VINA RESULT:      -5.7      3.292      6.283
REMARK  Name = 
REMARK  11 active torsions:
REMARK  status: ('A' for Active; 'I' for Inactive)
REMARK    1  A    between atoms: C_1  and  C_2
REMARK    2  A    between atoms: C_2  and  O_4
REMARK    3  A    between atoms: O_4  and  C_5
REMARK    4  A    between atoms: C_5  and  C_6
REMARK    5  A    between atoms: C_6  and  C_7
REMARK    6  A    between atoms: C_11  and  C_12
REMARK    7  A    between atoms: C_14  and  C_15
REMARK    8  A    between atoms: C_23  and  C_24
REMARK    9  A    between atoms: C_27  and  O_28
REMARK   10  A    between atoms: O_28  and  C_29
REMARK   11  A    between atoms: C_29  and  C_30
REMARK                            x       y       z     vdW  Elec       q    Type
REMARK                         _______ _______ _______ _____ _____    ______ ____
ROOT
ATOM      1  C   UNL     1      -0.178  11.632  19.667  0.00  0.00    +0.000 C 
ATOM      2  C   UNL     1       0.779  12.223  18.606  0.00  0.00    +0.000 C 
ATOM      3  C   UNL     1      -0.351  12.665  20.911  0.00  0.00    +0.000 C 
ATOM      4  C   UNL     1      -0.584  14.141  20.563  0.00  0.00    +0.000 C 
ATOM      5  C   UNL     1      -0.453  15.035  21.812  0.00  0.00    +0.000 C 
ATOM      6  C   UNL     1      -1.384  14.673  22.968  0.00  0.00    +0.000 C 
ATOM      7  C   UNL     1      -1.007  15.527  24.206  0.00  0.00    +0.000 C 
ATOM      8  O   UNL     1      -2.731  15.021  22.622  0.00  0.00    +0.000 OA
ATOM      9  C   UNL     1      -3.623  14.392  23.564  0.00  0.00    +0.000 C 
ATOM     10  C   UNL     1      -2.844  13.123  24.029  0.00  0.00    +0.000 C 
ATOM     11  C   UNL     1      -1.470  13.173  23.283  0.00  0.00    +0.000 C 
ATOM     12  C   UNL     1      -1.371  12.189  22.012  0.00  0.00    +0.000 C 
ATOM     13  C   UNL     1      -2.784  12.037  21.412  0.00  0.00    +0.000 C 
ATOM     14  C   UNL     1      -0.804  10.821  22.515  0.00  0.00    +0.000 C 
ATOM     15  C   UNL     1      -0.391   9.793  21.445  0.00  0.00    +0.000 C 
ATOM     16  C   UNL     1       0.465  10.343  20.278  0.00  0.00    +0.000 C 
ENDROOT
BRANCH   9  17
ATOM     17  C   UNL     1      -4.978  14.272  22.939  0.00  0.00    +0.000 C 
ATOM     18  C   UNL     1      -5.576  14.925  21.939  0.00  0.00    +0.000 C 
ATOM     19  C   UNL     1      -6.967  14.467  21.754  0.00  0.00    +0.000 C 
ATOM     20  O   UNL     1      -7.145  13.469  22.750  0.00  0.00    +0.000 OA
ATOM     21  C   UNL     1      -5.980  13.310  23.443  0.00  0.00    +0.000 C 
ATOM     22  O   UNL     1      -5.823  12.481  24.324  0.00  0.00    +0.000 OA
ENDBRANCH   9  17
BRANCH   1  23
ATOM     23  C   UNL     1      -1.484  11.235  18.889  0.00  0.00    +0.000 C 
BRANCH  23  24
ATOM     24  O   UNL     1      -1.495  11.521  17.472  0.00  0.00    +0.000 OA
BRANCH  24  26
ATOM     25  C   UNL     1      -3.069   9.761  17.519  0.00  0.00    +0.000 C 
ATOM     26  C   UNL     1      -2.468  10.894  16.746  0.00  0.00    +0.000 C 
ATOM     27  O   UNL     1      -2.808  11.161  15.595  0.00  0.00    +0.000 OA
ENDBRANCH  24  26
ENDBRANCH  23  24
ENDBRANCH   1  23
BRANCH  16  28
ATOM     28  O   UNL     1       0.574   9.326  19.254  0.00  0.00    +0.000 OA
BRANCH  28  29
ATOM     29  C   UNL     1       1.687   8.544  19.231  0.00  0.00    +0.000 C 
ATOM     30  C   UNL     1       2.386   8.661  17.906  0.00  0.00    +0.000 C 
ATOM     31  O   UNL     1       2.079   7.844  20.152  0.00  0.00    +0.000 OA
ENDBRANCH  28  29
ENDBRANCH  16  28
TORSDOF 6
ENDMDL
MODEL 6
REMARK VINA RESULT:      -5.7      3.572      6.547
REMARK  Name = 
REMARK  11 active torsions:
REMARK  status: ('A' for Active; 'I' for Inactive)
REMARK    1  A    between atoms: C_1  and  C_2
REMARK    2  A    between atoms: C_2  and  O_4
REMARK    3  A    between atoms: O_4  and  C_5
REMARK    4  A    between atoms: C_5  and  C_6
REMARK    5  A    between atoms: C_6  and  C_7
REMARK    6  A    between atoms: C_11  and  C_12
REMARK    7  A    between atoms: C_14  and  C_15
REMARK    8  A    between atoms: C_23  and  C_24
REMARK    9  A    between atoms: C_27  and  O_28
REMARK   10  A    between atoms: O_28  and  C_29
REMARK   11  A    between atoms: C_29  and  C_30
REMARK                            x       y       z     vdW  Elec       q    Type
REMARK                         _______ _______ _______ _____ _____    ______ ____
ROOT
ATOM      1  C   UNL     1      -1.076  12.595  19.568  0.00  0.00    +0.000 C 
ATOM      2  C   UNL     1      -0.573  13.318  18.297  0.00  0.00    +0.000 C 
ATOM      3  C   UNL     1      -1.239  13.653  20.793  0.00  0.00    +0.000 C 
ATOM      4  C   UNL     1      -1.929  14.986  20.474  0.00  0.00    +0.000 C 
ATOM      5  C   UNL     1      -1.767  15.988  21.635  0.00  0.00    +0.000 C 
ATOM      6  C   UNL     1      -2.287  15.501  22.988  0.00  0.00    +0.000 C 
ATOM      7  C   UNL     1      -1.886  16.526  24.080  0.00  0.00    +0.000 C 
ATOM      8  O   UNL     1      -3.719  15.464  22.962  0.00  0.00    +0.000 OA
ATOM      9  C   UNL     1      -4.178  14.712  24.104  0.00  0.00    +0.000 C 
ATOM     10  C   UNL     1      -3.005  13.727  24.401  0.00  0.00    +0.000 C 
ATOM     11  C   UNL     1      -1.896  14.061  23.349  0.00  0.00    +0.000 C 
ATOM     12  C   UNL     1      -1.823  13.030  22.115  0.00  0.00    +0.000 C 
ATOM     13  C   UNL     1      -3.240  12.472  21.870  0.00  0.00    +0.000 C 
ATOM     14  C   UNL     1      -0.813  11.899  22.501  0.00  0.00    +0.000 C 
ATOM     15  C   UNL     1      -0.389  10.922  21.389  0.00  0.00    +0.000 C 
ATOM     16  C   UNL     1       0.007  11.570  20.039  0.00  0.00    +0.000 C 
ENDROOT
BRANCH   9  17
ATOM     17  C   UNL     1      -5.555  14.198  23.821  0.00  0.00    +0.000 C 
ATOM     18  C   UNL     1      -6.048  12.966  23.665  0.00  0.00    +0.000 C 
ATOM     19  C   UNL     1      -7.484  13.001  23.324  0.00  0.00    +0.000 C 
ATOM     20  O   UNL     1      -7.804  14.385  23.290  0.00  0.00    +0.000 OA
ATOM     21  C   UNL     1      -6.695  15.114  23.610  0.00  0.00    +0.000 C 
ATOM     22  O   UNL     1      -6.689  16.329  23.712  0.00  0.00    +0.000 OA
ENDBRANCH   9  17
BRANCH   1  23
ATOM     23  C   UNL     1      -2.368  11.815  19.131  0.00  0.00    +0.000 C 
BRANCH  23  24
ATOM     24  O   UNL     1      -2.651  11.789  17.714  0.00  0.00    +0.000 OA
BRANCH  24  26
ATOM     25  C   UNL     1      -2.719  10.607  15.671  0.00  0.00    +0.000 C 
ATOM     26  C   UNL     1      -2.823  10.550  17.163  0.00  0.00    +0.000 C 
ATOM     27  O   UNL     1      -3.074   9.509  17.769  0.00  0.00    +0.000 OA
ENDBRANCH  24  26
ENDBRANCH  23  24
ENDBRANCH   1  23
BRANCH  16  28
ATOM     28  O   UNL     1       0.152  10.530  19.043  0.00  0.00    +0.000 OA
BRANCH  28  29
ATOM     29  C   UNL     1       1.361  10.378  18.435  0.00  0.00    +0.000 C 
ATOM     30  C   UNL     1       1.531   8.967  17.948  0.00  0.00    +0.000 C 
ATOM     31  O   UNL     1       2.196  11.257  18.293  0.00  0.00    +0.000 OA
ENDBRANCH  28  29
ENDBRANCH  16  28
TORSDOF 6
ENDMDL
MODEL 7
REMARK VINA RESULT:      -5.7      3.348      6.416
REMARK  Name = 
REMARK  11 active torsions:
REMARK  status: ('A' for Active; 'I' for Inactive)
REMARK    1  A    between atoms: C_1  and  C_2
REMARK    2  A    between atoms: C_2  and  O_4
REMARK    3  A    between atoms: O_4  and  C_5
REMARK    4  A    between atoms: C_5  and  C_6
REMARK    5  A    between atoms: C_6  and  C_7
REMARK    6  A    between atoms: C_11  and  C_12
REMARK    7  A    between atoms: C_14  and  C_15
REMARK    8  A    between atoms: C_23  and  C_24
REMARK    9  A    between atoms: C_27  and  O_28
REMARK   10  A    between atoms: O_28  and  C_29
REMARK   11  A    between atoms: C_29  and  C_30
REMARK                            x       y       z     vdW  Elec       q    Type
REMARK                         _______ _______ _______ _____ _____    ______ ____
ROOT
ATOM      1  C   UNL     1      -0.514  12.053  19.705  0.00  0.00    +0.000 C 
ATOM      2  C   UNL     1       0.367  12.730  18.629  0.00  0.00    +0.000 C 
ATOM      3  C   UNL     1      -0.691  13.035  20.990  0.00  0.00    +0.000 C 
ATOM      4  C   UNL     1      -1.015  14.507  20.702  0.00  0.00    +0.000 C 
ATOM      5  C   UNL     1      -0.880  15.365  21.976  0.00  0.00    +0.000 C 
ATOM      6  C   UNL     1      -1.744  14.916  23.154  0.00  0.00    +0.000 C 
ATOM      7  C   UNL     1      -1.362  15.748  24.405  0.00  0.00    +0.000 C 
ATOM      8  O   UNL     1      -3.120  15.203  22.872  0.00  0.00    +0.000 OA
ATOM      9  C   UNL     1      -3.939  14.496  23.825  0.00  0.00    +0.000 C 
ATOM     10  C   UNL     1      -3.077  13.256  24.216  0.00  0.00    +0.000 C 
ATOM     11  C   UNL     1      -1.738  13.404  23.419  0.00  0.00    +0.000 C 
ATOM     12  C   UNL     1      -1.639  12.469  22.113  0.00  0.00    +0.000 C 
ATOM     13  C   UNL     1      -3.065  12.261  21.562  0.00  0.00    +0.000 C 
ATOM     14  C   UNL     1      -0.982  11.117  22.545  0.00  0.00    +0.000 C 
ATOM     15  C   UNL     1      -0.559  10.148  21.425  0.00  0.00    +0.000 C 
ATOM     16  C   UNL     1       0.219  10.782  20.245  0.00  0.00    +0.000 C 
ENDROOT
BRANCH   9  17
ATOM     17  C   UNL     1      -5.310  14.324  23.250  0.00  0.00    +0.000 C 
ATOM     18  C   UNL     1      -5.995  13.250  22.846  0.00  0.00    +0.000 C 
ATOM     19  C   UNL     1      -7.304  13.629  22.279  0.00  0.00    +0.000 C 
ATOM     20  O   UNL     1      -7.334  15.046  22.382  0.00  0.00    +0.000 OA
ATOM     21  C   UNL     1      -6.187  15.482  22.979  0.00  0.00    +0.000 C 
ATOM     22  O   UNL     1      -5.962  16.650  23.246  0.00  0.00    +0.000 OA
ENDBRANCH   9  17
BRANCH   1  23
ATOM     23  C   UNL     1      -1.828  11.613  18.965  0.00  0.00    +0.000 C 
BRANCH  23  24
ATOM     24  O   UNL     1      -1.881  11.878  17.545  0.00  0.00    +0.000 OA
BRANCH  24  26
ATOM     25  C   UNL     1      -2.908   9.753  17.616  0.00  0.00    +0.000 C 
ATOM     26  C   UNL     1      -2.519  10.938  16.786  0.00  0.00    +0.000 C 
ATOM     27  O   UNL     1      -2.730  10.994  15.576  0.00  0.00    +0.000 OA
ENDBRANCH  24  26
ENDBRANCH  23  24
ENDBRANCH   1  23
BRANCH  16  28
ATOM     28  O   UNL     1       0.339   9.806  19.183  0.00  0.00    +0.000 OA
BRANCH  28  29
ATOM     29  C   UNL     1       1.448   9.018  19.148  0.00  0.00    +0.000 C 
ATOM     30  C   UNL     1       2.156   9.163  17.831  0.00  0.00    +0.000 C 
ATOM     31  O   UNL     1       1.830   8.294  20.054  0.00  0.00    +0.000 OA
ENDBRANCH  28  29
ENDBRANCH  16  28
TORSDOF 6
ENDMDL
MODEL 8
REMARK VINA RESULT:      -5.7      1.006      1.288
REMARK  Name = 
REMARK  11 active torsions:
REMARK  status: ('A' for Active; 'I' for Inactive)
REMARK    1  A    between atoms: C_1  and  C_2
REMARK    2  A    between atoms: C_2  and  O_4
REMARK    3  A    between atoms: O_4  and  C_5
REMARK    4  A    between atoms: C_5  and  C_6
REMARK    5  A    between atoms: C_6  and  C_7
REMARK    6  A    between atoms: C_11  and  C_12
REMARK    7  A    between atoms: C_14  and  C_15
REMARK    8  A    between atoms: C_23  and  C_24
REMARK    9  A    between atoms: C_27  and  O_28
REMARK   10  A    between atoms: O_28  and  C_29
REMARK   11  A    between atoms: C_29  and  C_30
REMARK                            x       y       z     vdW  Elec       q    Type
REMARK                         _______ _______ _______ _____ _____    ______ ____
ROOT
ATOM      1  C   UNL     1       1.164  15.144  20.218  0.00  0.00    +0.000 C 
ATOM      2  C   UNL     1       0.954  15.974  21.505  0.00  0.00    +0.000 C 
ATOM      3  C   UNL     1       0.876  13.569  20.508  0.00  0.00    +0.000 C 
ATOM      4  C   UNL     1      -0.384  13.228  21.314  0.00  0.00    +0.000 C 
ATOM      5  C   UNL     1      -0.385  11.749  21.747  0.00  0.00    +0.000 C 
ATOM      6  C   UNL     1      -0.272  10.740  20.605  0.00  0.00    +0.000 C 
ATOM      7  C   UNL     1      -0.094   9.320  21.203  0.00  0.00    +0.000 C 
ATOM      8  O   UNL     1      -1.496  10.724  19.860  0.00  0.00    +0.000 OA
ATOM      9  C   UNL     1      -1.268  10.024  18.621  0.00  0.00    +0.000 C 
ATOM     10  C   UNL     1       0.250  10.245  18.337  0.00  0.00    +0.000 C 
ATOM     11  C   UNL     1       0.788  11.078  19.548  0.00  0.00    +0.000 C 
ATOM     12  C   UNL     1       0.986  12.645  19.237  0.00  0.00    +0.000 C 
ATOM     13  C   UNL     1      -0.054  13.059  18.176  0.00  0.00    +0.000 C 
ATOM     14  C   UNL     1       2.450  12.847  18.724  0.00  0.00    +0.000 C 
ATOM     15  C   UNL     1       2.957  14.294  18.589  0.00  0.00    +0.000 C 
ATOM     16  C   UNL     1       2.667  15.224  19.793  0.00  0.00    +0.000 C 
ENDROOT
BRANCH   9  17
ATOM     17  C   UNL     1      -2.302  10.454  17.627  0.00  0.00    +0.000 C 
ATOM     18  C   UNL     1      -2.506  10.150  16.342  0.00  0.00    +0.000 C 
ATOM     19  C   UNL     1      -3.642  10.910  15.784  0.00  0.00    +0.000 C 
ATOM     20  O   UNL     1      -4.099  11.706  16.868  0.00  0.00    +0.000 OA
ATOM     21  C   UNL     1      -3.350  11.436  17.976  0.00  0.00    +0.000 C 
ATOM     22  O   UNL     1      -3.553  11.934  19.070  0.00  0.00    +0.000 OA
ENDBRANCH   9  17
BRANCH   1  23
ATOM     23  C   UNL     1       0.281  15.834  19.117  0.00  0.00    +0.000 C 
BRANCH  23  24
ATOM     24  O   UNL     1      -0.279  17.121  19.461  0.00  0.00    +0.000 OA
BRANCH  24  26
ATOM     25  C   UNL     1      -2.473  17.915  19.096  0.00  0.00    +0.000 C 
ATOM     26  C   UNL     1      -1.107  17.679  18.529  0.00  0.00    +0.000 C 
ATOM     27  O   UNL     1      -0.826  17.931  17.359  0.00  0.00    +0.000 OA
ENDBRANCH  24  26
ENDBRANCH  23  24
ENDBRANCH   1  23
BRANCH  16  28
ATOM     28  O   UNL     1       2.992  16.586  19.425  0.00  0.00    +0.000 OA
BRANCH  28  29
ATOM     29  C   UNL     1       4.261  17.030  19.636  0.00  0.00    +0.000 C 
ATOM     30  C   UNL     1       4.521  17.204  21.105  0.00  0.00    +0.000 C 
ATOM     31  O   UNL     1       5.086  17.254  18.764  0.00  0.00    +0.000 OA
ENDBRANCH  28  29
ENDBRANCH  16  28
TORSDOF 6
ENDMDL
MODEL 9
REMARK VINA RESULT:      -5.6      3.527      7.394
REMARK  Name = 
REMARK  11 active torsions:
REMARK  status: ('A' for Active; 'I' for Inactive)
REMARK    1  A    between atoms: C_1  and  C_2
REMARK    2  A    between atoms: C_2  and  O_4
REMARK    3  A    between atoms: O_4  and  C_5
REMARK    4  A    between atoms: C_5  and  C_6
REMARK    5  A    between atoms: C_6  and  C_7
REMARK    6  A    between atoms: C_11  and  C_12
REMARK    7  A    between atoms: C_14  and  C_15
REMARK    8  A    between atoms: C_23  and  C_24
REMARK    9  A    between atoms: C_27  and  O_28
REMARK   10  A    between atoms: O_28  and  C_29
REMARK   11  A    between atoms: C_29  and  C_30
REMARK                            x       y       z     vdW  Elec       q    Type
REMARK                         _______ _______ _______ _____ _____    ______ ____
ROOT
ATOM      1  C   UNL     1      -5.310  12.897  20.499  0.00  0.00    +0.000 C 
ATOM      2  C   UNL     1      -6.423  12.311  19.600  0.00  0.00    +0.000 C 
ATOM      3  C   UNL     1      -3.875  12.223  20.133  0.00  0.00    +0.000 C 
ATOM      4  C   UNL     1      -3.523  12.098  18.645  0.00  0.00    +0.000 C 
ATOM      5  C   UNL     1      -2.285  11.203  18.439  0.00  0.00    +0.000 C 
ATOM      6  C   UNL     1      -1.028  11.657  19.181  0.00  0.00    +0.000 C 
ATOM      7  C   UNL     1       0.066  10.568  19.033  0.00  0.00    +0.000 C 
ATOM      8  O   UNL     1      -0.514  12.845  18.566  0.00  0.00    +0.000 OA
ATOM      9  C   UNL     1       0.460  13.433  19.451  0.00  0.00    +0.000 C 
ATOM     10  C   UNL     1       0.003  12.977  20.871  0.00  0.00    +0.000 C 
ATOM     11  C   UNL     1      -1.256  12.077  20.640  0.00  0.00    +0.000 C 
ATOM     12  C   UNL     1      -2.658  12.810  20.941  0.00  0.00    +0.000 C 
ATOM     13  C   UNL     1      -2.487  14.314  20.645  0.00  0.00    +0.000 C 
ATOM     14  C   UNL     1      -3.015  12.552  22.442  0.00  0.00    +0.000 C 
ATOM     15  C   UNL     1      -4.428  12.948  22.909  0.00  0.00    +0.000 C 
ATOM     16  C   UNL     1      -5.591  12.505  21.987  0.00  0.00    +0.000 C 
ENDROOT
BRANCH   9  17
ATOM     17  C   UNL     1       0.595  14.888  19.122  0.00  0.00    +0.000 C 
ATOM     18  C   UNL     1      -0.244  15.775  18.579  0.00  0.00    +0.000 C 
ATOM     19  C   UNL     1       0.408  17.088  18.397  0.00  0.00    +0.000 C 
ATOM     20  O   UNL     1       1.728  16.896  18.887  0.00  0.00    +0.000 OA
ATOM     21  C   UNL     1       1.858  15.619  19.350  0.00  0.00    +0.000 C 
ATOM     22  O   UNL     1       2.870  15.190  19.878  0.00  0.00    +0.000 OA
ENDBRANCH   9  17
BRANCH   1  23
ATOM     23  C   UNL     1      -5.417  14.457  20.349  0.00  0.00    +0.000 C 
BRANCH  23  24
ATOM     24  O   UNL     1      -6.601  14.955  19.686  0.00  0.00    +0.000 OA
BRANCH  24  26
ATOM     25  C   UNL     1      -6.927  15.423  17.395  0.00  0.00    +0.000 C 
ATOM     26  C   UNL     1      -6.390  15.890  18.712  0.00  0.00    +0.000 C 
ATOM     27  O   UNL     1      -5.807  16.965  18.844  0.00  0.00    +0.000 OA
ENDBRANCH  24  26
ENDBRANCH  23  24
ENDBRANCH   1  23
BRANCH  16  28
ATOM     28  O   UNL     1      -6.812  13.142  22.431  0.00  0.00    +0.000 OA
BRANCH  28  29
ATOM     29  C   UNL     1      -7.404  12.688  23.569  0.00  0.00    +0.000 C 
ATOM     30  C   UNL     1      -7.850  13.840  24.426  0.00  0.00    +0.000 C 
ATOM     31  O   UNL     1      -7.564  11.514  23.864  0.00  0.00    +0.000 OA
ENDBRANCH  28  29
ENDBRANCH  16  28
TORSDOF 6
ENDMDL
