MODEL 1
REMARK VINA RESULT:      -7.2      0.000      0.000
REMARK  Name = 
REMARK  12 active torsions:
REMARK  status: ('A' for Active; 'I' for Inactive)
REMARK    1  A    between atoms: C_1  and  C_2
REMARK    2  A    between atoms: N_4  and  C_5
REMARK    3  A    between atoms: C_7  and  O_8
REMARK    4  A    between atoms: C_9  and  C_10
REMARK    5  A    between atoms: C_10  and  O_11
REMARK    6  A    between atoms: C_13  and  O_14
REMARK    7  A    between atoms: O_14  and  C_15
REMARK    8  A    between atoms: C_16  and  C_17
REMARK    9  A    between atoms: C_17  and  O_19
REMARK   10  A    between atoms: C_21  and  O_22
REMARK   11  A    between atoms: C_23  and  O_24
REMARK   12  A    between atoms: C_25  and  O_26
REMARK                            x       y       z     vdW  Elec       q    Type
REMARK                         _______ _______ _______ _____ _____    ______ ____
ROOT
ATOM      1  O   UNL     1       4.630   5.619  18.077  0.00  0.00    +0.000 OA
ENDROOT
BRANCH   1   7
ATOM      2  C   UNL     1       2.871   5.281  19.714  0.00  0.00    +0.000 C 
ATOM      3  C   UNL     1       2.450   4.510  20.971  0.00  0.00    +0.000 C 
ATOM      4  C   UNL     1       2.819   3.036  20.878  0.00  0.00    +0.000 C 
ATOM      5  C   UNL     1       4.280   2.859  20.439  0.00  0.00    +0.000 C 
ATOM      6  O   UNL     1       4.534   3.563  19.208  0.00  0.00    +0.000 OA
ATOM      7  C   UNL     1       4.352   4.976  19.333  0.00  0.00    +0.000 C 
BRANCH   2  11
ATOM      8  C   UNL     1       1.918   8.931  19.180  0.00  0.00    +0.000 C 
ATOM      9  C   UNL     1       2.097   7.484  18.817  0.00  0.00    +0.000 C 
ATOM     10  O   UNL     1       1.868   7.052  17.695  0.00  0.00    +0.000 OA
ATOM     11  N   UNL     1       2.554   6.707  19.856  0.00  0.00    +0.000 N 
ATOM     12  H   UNL     1       2.698   7.130  20.764  0.00  0.00    +0.000 HD
ENDBRANCH   2  11
BRANCH   4  13
ATOM     13  O   UNL     1       2.564   2.410  22.135  0.00  0.00    +0.000 OA
ATOM     14  H   UNL     1       3.393   2.014  22.460  0.00  0.00    +0.000 HD
ENDBRANCH   4  13
BRANCH   5  15
ATOM     15  C   UNL     1       4.583   1.375  20.182  0.00  0.00    +0.000 C 
BRANCH  15  16
ATOM     16  O   UNL     1       4.423   1.069  18.797  0.00  0.00    +0.000 OA
ATOM     17  H   UNL     1       4.864   0.209  18.659  0.00  0.00    +0.000 HD
ENDBRANCH  15  16
ENDBRANCH   5  15
ENDBRANCH   1   7
BRANCH   1  18
ATOM     18  C   UNL     1       5.865   5.249  17.414  0.00  0.00    +0.000 C 
ATOM     19  C   UNL     1       6.659   6.487  16.952  0.00  0.00    +0.000 C 
ATOM     20  O   UNL     1       7.626   6.247  15.913  0.00  0.00    +0.000 OA
ATOM     21  C   UNL     1       7.157   5.543  14.789  0.00  0.00    +0.000 C 
ATOM     22  C   UNL     1       6.564   4.181  15.175  0.00  0.00    +0.000 C 
ATOM     23  C   UNL     1       5.429   4.408  16.182  0.00  0.00    +0.000 C 
BRANCH  19  24
ATOM     24  C   UNL     1       7.601   7.034  18.028  0.00  0.00    +0.000 C 
ATOM     25  O   UNL     1       8.150   8.129  18.036  0.00  0.00    +0.000 OA
BRANCH  24  26
ATOM     26  O   UNL     1       7.770   6.142  19.048  0.00  0.00    +0.000 OA
ATOM     27  H   UNL     1       6.917   5.692  19.230  0.00  0.00    +0.000 HD
ENDBRANCH  24  26
ENDBRANCH  19  24
BRANCH  21  28
ATOM     28  O   UNL     1       8.273   5.395  13.928  0.00  0.00    +0.000 OA
ATOM     29  H   UNL     1       8.571   6.296  13.712  0.00  0.00    +0.000 HD
ENDBRANCH  21  28
BRANCH  22  30
ATOM     30  O   UNL     1       6.093   3.467  14.026  0.00  0.00    +0.000 OA
ATOM     31  H   UNL     1       6.856   3.181  13.488  0.00  0.00    +0.000 HD
ENDBRANCH  22  30
BRANCH  23  32
ATOM     32  O   UNL     1       4.875   3.152  16.609  0.00  0.00    +0.000 OA
ATOM     33  H   UNL     1       5.580   2.482  16.619  0.00  0.00    +0.000 HD
ENDBRANCH  23  32
ENDBRANCH   1  18
TORSDOF 11
ENDMDL
MODEL 2
REMARK VINA RESULT:      -7.1      1.004      1.197
REMARK  Name = 
REMARK  12 active torsions:
REMARK  status: ('A' for Active; 'I' for Inactive)
REMARK    1  A    between atoms: C_1  and  C_2
REMARK    2  A    between atoms: N_4  and  C_5
REMARK    3  A    between atoms: C_7  and  O_8
REMARK    4  A    between atoms: C_9  and  C_10
REMARK    5  A    between atoms: C_10  and  O_11
REMARK    6  A    between atoms: C_13  and  O_14
REMARK    7  A    between atoms: O_14  and  C_15
REMARK    8  A    between atoms: C_16  and  C_17
REMARK    9  A    between atoms: C_17  and  O_19
REMARK   10  A    between atoms: C_21  and  O_22
REMARK   11  A    between atoms: C_23  and  O_24
REMARK   12  A    between atoms: C_25  and  O_26
REMARK                            x       y       z     vdW  Elec       q    Type
REMARK                         _______ _______ _______ _____ _____    ______ ____
ROOT
ATOM      1  O   UNL     1       4.510   6.212  18.671  0.00  0.00    +0.000 OA
ENDROOT
BRANCH   1   7
ATOM      2  C   UNL     1       2.290   5.862  19.589  0.00  0.00    +0.000 C 
ATOM      3  C   UNL     1       1.441   5.019  20.547  0.00  0.00    +0.000 C 
ATOM      4  C   UNL     1       1.761   3.535  20.425  0.00  0.00    +0.000 C 
ATOM      5  C   UNL     1       3.276   3.290  20.477  0.00  0.00    +0.000 C 
ATOM      6  O   UNL     1       3.957   4.077  19.481  0.00  0.00    +0.000 OA
ATOM      7  C   UNL     1       3.801   5.484  19.688  0.00  0.00    +0.000 C 
BRANCH   2  11
ATOM      8  C   UNL     1       1.654   9.594  19.150  0.00  0.00    +0.000 C 
ATOM      9  C   UNL     1       1.867   8.169  18.720  0.00  0.00    +0.000 C 
ATOM     10  O   UNL     1       1.926   7.838  17.543  0.00  0.00    +0.000 OA
ATOM     11  N   UNL     1       2.002   7.290  19.769  0.00  0.00    +0.000 N 
ATOM     12  H   UNL     1       1.917   7.634  20.717  0.00  0.00    +0.000 HD
ENDBRANCH   2  11
BRANCH   4  13
ATOM     13  O   UNL     1       1.072   2.823  21.452  0.00  0.00    +0.000 OA
ATOM     14  H   UNL     1       0.722   1.994  21.076  0.00  0.00    +0.000 HD
ENDBRANCH   4  13
BRANCH   5  15
ATOM     15  C   UNL     1       3.587   1.816  20.178  0.00  0.00    +0.000 C 
BRANCH  15  16
ATOM     16  O   UNL     1       4.973   1.653  19.873  0.00  0.00    +0.000 OA
ATOM     17  H   UNL     1       5.457   2.200  20.520  0.00  0.00    +0.000 HD
ENDBRANCH  15  16
ENDBRANCH   5  15
ENDBRANCH   1   7
BRANCH   1  18
ATOM     18  C   UNL     1       5.514   5.478  17.925  0.00  0.00    +0.000 C 
ATOM     19  C   UNL     1       6.773   6.330  17.672  0.00  0.00    +0.000 C 
ATOM     20  O   UNL     1       7.608   5.889  16.585  0.00  0.00    +0.000 OA
ATOM     21  C   UNL     1       6.951   5.649  15.366  0.00  0.00    +0.000 C 
ATOM     22  C   UNL     1       5.826   4.616  15.516  0.00  0.00    +0.000 C 
ATOM     23  C   UNL     1       4.835   5.121  16.574  0.00  0.00    +0.000 C 
BRANCH  19  24
ATOM     24  C   UNL     1       7.798   6.241  18.807  0.00  0.00    +0.000 C 
ATOM     25  O   UNL     1       8.000   5.281  19.541  0.00  0.00    +0.000 OA
BRANCH  24  26
ATOM     26  O   UNL     1       8.520   7.393  18.922  0.00  0.00    +0.000 OA
ATOM     27  H   UNL     1       8.021   8.037  19.470  0.00  0.00    +0.000 HD
ENDBRANCH  24  26
ENDBRANCH  19  24
BRANCH  21  28
ATOM     28  O   UNL     1       7.950   5.197  14.467  0.00  0.00    +0.000 OA
ATOM     29  H   UNL     1       8.511   4.583  14.972  0.00  0.00    +0.000 HD
ENDBRANCH  21  28
BRANCH  22  30
ATOM     30  O   UNL     1       5.164   4.371  14.270  0.00  0.00    +0.000 OA
ATOM     31  H   UNL     1       4.320   3.908  14.438  0.00  0.00    +0.000 HD
ENDBRANCH  22  30
BRANCH  23  32
ATOM     32  O   UNL     1       3.787   4.158  16.783  0.00  0.00    +0.000 OA
ATOM     33  H   UNL     1       3.053   4.588  17.256  0.00  0.00    +0.000 HD
ENDBRANCH  23  32
ENDBRANCH   1  18
TORSDOF 11
ENDMDL
MODEL 3
REMARK VINA RESULT:      -6.9      2.095      5.084
REMARK  Name = 
REMARK  12 active torsions:
REMARK  status: ('A' for Active; 'I' for Inactive)
REMARK    1  A    between atoms: C_1  and  C_2
REMARK    2  A    between atoms: N_4  and  C_5
REMARK    3  A    between atoms: C_7  and  O_8
REMARK    4  A    between atoms: C_9  and  C_10
REMARK    5  A    between atoms: C_10  and  O_11
REMARK    6  A    between atoms: C_13  and  O_14
REMARK    7  A    between atoms: O_14  and  C_15
REMARK    8  A    between atoms: C_16  and  C_17
REMARK    9  A    between atoms: C_17  and  O_19
REMARK   10  A    between atoms: C_21  and  O_22
REMARK   11  A    between atoms: C_23  and  O_24
REMARK   12  A    between atoms: C_25  and  O_26
REMARK                            x       y       z     vdW  Elec       q    Type
REMARK                         _______ _______ _______ _____ _____    ______ ____
ROOT
ATOM      1  O   UNL     1       3.861   5.790  18.702  0.00  0.00    +0.000 OA
ENDROOT
BRANCH   1   7
ATOM      2  C   UNL     1       2.455   6.490  20.553  0.00  0.00    +0.000 C 
ATOM      3  C   UNL     1       1.245   7.336  20.967  0.00  0.00    +0.000 C 
ATOM      4  C   UNL     1       1.256   8.702  20.294  0.00  0.00    +0.000 C 
ATOM      5  C   UNL     1       1.500   8.572  18.784  0.00  0.00    +0.000 C 
ATOM      6  O   UNL     1       2.704   7.826  18.521  0.00  0.00    +0.000 OA
ATOM      7  C   UNL     1       2.637   6.481  19.003  0.00  0.00    +0.000 C 
BRANCH   2  11
ATOM      8  C   UNL     1       1.603   2.915  21.558  0.00  0.00    +0.000 C 
ATOM      9  C   UNL     1       1.557   4.162  20.721  0.00  0.00    +0.000 C 
ATOM     10  O   UNL     1       0.832   4.271  19.740  0.00  0.00    +0.000 OA
ATOM     11  N   UNL     1       2.388   5.160  21.170  0.00  0.00    +0.000 N 
ATOM     12  H   UNL     1       2.978   4.988  21.975  0.00  0.00    +0.000 HD
ENDBRANCH   2  11
BRANCH   4  13
ATOM     13  O   UNL     1       0.028   9.372  20.578  0.00  0.00    +0.000 OA
ATOM     14  H   UNL     1      -0.579   9.242  19.826  0.00  0.00    +0.000 HD
ENDBRANCH   4  13
BRANCH   5  15
ATOM     15  C   UNL     1       1.681   9.961  18.153  0.00  0.00    +0.000 C 
BRANCH  15  16
ATOM     16  O   UNL     1       0.410  10.546  17.865  0.00  0.00    +0.000 OA
ATOM     17  H   UNL     1       0.560  11.510  17.830  0.00  0.00    +0.000 HD
ENDBRANCH  15  16
ENDBRANCH   5  15
ENDBRANCH   1   7
BRANCH   1  18
ATOM     18  C   UNL     1       3.951   5.161  17.399  0.00  0.00    +0.000 C 
ATOM     19  C   UNL     1       4.346   3.675  17.508  0.00  0.00    +0.000 C 
ATOM     20  O   UNL     1       4.900   3.095  16.313  0.00  0.00    +0.000 OA
ATOM     21  C   UNL     1       5.946   3.816  15.709  0.00  0.00    +0.000 C 
ATOM     22  C   UNL     1       5.524   5.249  15.359  0.00  0.00    +0.000 C 
ATOM     23  C   UNL     1       5.055   5.949  16.642  0.00  0.00    +0.000 C 
BRANCH  19  24
ATOM     24  C   UNL     1       3.142   2.743  17.685  0.00  0.00    +0.000 C 
ATOM     25  O   UNL     1       3.131   1.657  18.251  0.00  0.00    +0.000 OA
BRANCH  24  26
ATOM     26  O   UNL     1       2.012   3.275  17.136  0.00  0.00    +0.000 OA
ATOM     27  H   UNL     1       1.874   4.181  17.487  0.00  0.00    +0.000 HD
ENDBRANCH  24  26
ENDBRANCH  19  24
BRANCH  21  28
ATOM     28  O   UNL     1       6.304   3.085  14.549  0.00  0.00    +0.000 OA
ATOM     29  H   UNL     1       5.583   3.221  13.909  0.00  0.00    +0.000 HD
ENDBRANCH  21  28
BRANCH  22  30
ATOM     30  O   UNL     1       6.591   5.977  14.741  0.00  0.00    +0.000 OA
ATOM     31  H   UNL     1       7.041   5.402  14.092  0.00  0.00    +0.000 HD
ENDBRANCH  22  30
BRANCH  23  32
ATOM     32  O   UNL     1       4.603   7.283  16.352  0.00  0.00    +0.000 OA
ATOM     33  H   UNL     1       4.167   7.288  15.483  0.00  0.00    +0.000 HD
ENDBRANCH  23  32
ENDBRANCH   1  18
TORSDOF 11
ENDMDL
MODEL 4
REMARK VINA RESULT:      -6.8      2.344      6.356
REMARK  Name = 
REMARK  12 active torsions:
REMARK  status: ('A' for Active; 'I' for Inactive)
REMARK    1  A    between atoms: C_1  and  C_2
REMARK    2  A    between atoms: N_4  and  C_5
REMARK    3  A    between atoms: C_7  and  O_8
REMARK    4  A    between atoms: C_9  and  C_10
REMARK    5  A    between atoms: C_10  and  O_11
REMARK    6  A    between atoms: C_13  and  O_14
REMARK    7  A    between atoms: O_14  and  C_15
REMARK    8  A    between atoms: C_16  and  C_17
REMARK    9  A    between atoms: C_17  and  O_19
REMARK   10  A    between atoms: C_21  and  O_22
REMARK   11  A    between atoms: C_23  and  O_24
REMARK   12  A    between atoms: C_25  and  O_26
REMARK                            x       y       z     vdW  Elec       q    Type
REMARK                         _______ _______ _______ _____ _____    ______ ____
ROOT
ATOM      1  O   UNL     1       5.006   3.909  16.720  0.00  0.00    +0.000 OA
ENDROOT
BRANCH   1   7
ATOM      2  C   UNL     1       6.910   4.799  15.504  0.00  0.00    +0.000 C 
ATOM      3  C   UNL     1       7.439   5.230  14.131  0.00  0.00    +0.000 C 
ATOM      4  C   UNL     1       7.044   4.244  13.041  0.00  0.00    +0.000 C 
ATOM      5  C   UNL     1       5.546   3.914  13.110  0.00  0.00    +0.000 C 
ATOM      6  O   UNL     1       5.184   3.446  14.423  0.00  0.00    +0.000 OA
ATOM      7  C   UNL     1       5.395   4.433  15.437  0.00  0.00    +0.000 C 
BRANCH   2  11
ATOM      8  C   UNL     1       7.910   6.650  18.681  0.00  0.00    +0.000 C 
ATOM      9  C   UNL     1       7.694   5.463  17.785  0.00  0.00    +0.000 C 
ATOM     10  O   UNL     1       7.881   4.313  18.158  0.00  0.00    +0.000 OA
ATOM     11  N   UNL     1       7.255   5.796  16.524  0.00  0.00    +0.000 N 
ATOM     12  H   UNL     1       7.147   6.772  16.280  0.00  0.00    +0.000 HD
ENDBRANCH   2  11
BRANCH   4  13
ATOM     13  O   UNL     1       7.411   4.781  11.770  0.00  0.00    +0.000 OA
ATOM     14  H   UNL     1       7.923   5.598  11.913  0.00  0.00    +0.000 HD
ENDBRANCH   4  13
BRANCH   5  15
ATOM     15  C   UNL     1       5.202   2.791  12.120  0.00  0.00    +0.000 C 
BRANCH  15  16
ATOM     16  O   UNL     1       6.365   2.014  11.827  0.00  0.00    +0.000 OA
ATOM     17  H   UNL     1       6.399   1.314  12.506  0.00  0.00    +0.000 HD
ENDBRANCH  15  16
ENDBRANCH   5  15
ENDBRANCH   1   7
BRANCH   1  18
ATOM     18  C   UNL     1       3.758   4.397  17.272  0.00  0.00    +0.000 C 
ATOM     19  C   UNL     1       3.984   5.572  18.244  0.00  0.00    +0.000 C 
ATOM     20  O   UNL     1       2.912   5.820  19.172  0.00  0.00    +0.000 OA
ATOM     21  C   UNL     1       2.449   4.701  19.887  0.00  0.00    +0.000 C 
ATOM     22  C   UNL     1       1.983   3.578  18.951  0.00  0.00    +0.000 C 
ATOM     23  C   UNL     1       3.150   3.187  18.034  0.00  0.00    +0.000 C 
BRANCH  19  24
ATOM     24  C   UNL     1       4.010   6.935  17.545  0.00  0.00    +0.000 C 
ATOM     25  O   UNL     1       4.899   7.375  16.826  0.00  0.00    +0.000 OA
BRANCH  24  26
ATOM     26  O   UNL     1       2.877   7.652  17.801  0.00  0.00    +0.000 OA
ATOM     27  H   UNL     1       2.152   7.331  17.223  0.00  0.00    +0.000 HD
ENDBRANCH  24  26
ENDBRANCH  19  24
BRANCH  21  28
ATOM     28  O   UNL     1       1.386   5.170  20.699  0.00  0.00    +0.000 OA
ATOM     29  H   UNL     1       0.855   5.760  20.137  0.00  0.00    +0.000 HD
ENDBRANCH  21  28
BRANCH  22  30
ATOM     30  O   UNL     1       1.508   2.443  19.684  0.00  0.00    +0.000 OA
ATOM     31  H   UNL     1       1.617   1.638  19.141  0.00  0.00    +0.000 HD
ENDBRANCH  22  30
BRANCH  23  32
ATOM     32  O   UNL     1       2.742   2.169  17.104  0.00  0.00    +0.000 OA
ATOM     33  H   UNL     1       2.765   2.535  16.203  0.00  0.00    +0.000 HD
ENDBRANCH  23  32
ENDBRANCH   1  18
TORSDOF 11
ENDMDL
MODEL 5
REMARK VINA RESULT:      -6.7      1.511      1.662
REMARK  Name = 
REMARK  12 active torsions:
REMARK  status: ('A' for Active; 'I' for Inactive)
REMARK    1  A    between atoms: C_1  and  C_2
REMARK    2  A    between atoms: N_4  and  C_5
REMARK    3  A    between atoms: C_7  and  O_8
REMARK    4  A    between atoms: C_9  and  C_10
REMARK    5  A    between atoms: C_10  and  O_11
REMARK    6  A    between atoms: C_13  and  O_14
REMARK    7  A    between atoms: O_14  and  C_15
REMARK    8  A    between atoms: C_16  and  C_17
REMARK    9  A    between atoms: C_17  and  O_19
REMARK   10  A    between atoms: C_21  and  O_22
REMARK   11  A    between atoms: C_23  and  O_24
REMARK   12  A    between atoms: C_25  and  O_26
REMARK                            x       y       z     vdW  Elec       q    Type
REMARK                         _______ _______ _______ _____ _____    ______ ____
ROOT
ATOM      1  O   UNL     1       4.362   5.987  18.579  0.00  0.00    +0.000 OA
ENDROOT
BRANCH   1   7
ATOM      2  C   UNL     1       2.315   5.856  19.877  0.00  0.00    +0.000 C 
ATOM      3  C   UNL     1       1.479   4.993  20.829  0.00  0.00    +0.000 C 
ATOM      4  C   UNL     1       1.434   3.539  20.377  0.00  0.00    +0.000 C 
ATOM      5  C   UNL     1       2.842   3.016  20.057  0.00  0.00    +0.000 C 
ATOM      6  O   UNL     1       3.497   3.864  19.095  0.00  0.00    +0.000 OA
ATOM      7  C   UNL     1       3.697   5.195  19.579  0.00  0.00    +0.000 C 
BRANCH   2  11
ATOM      8  C   UNL     1       1.611   9.326  21.285  0.00  0.00    +0.000 C 
ATOM      9  C   UNL     1       1.321   7.895  20.931  0.00  0.00    +0.000 C 
ATOM     10  O   UNL     1       0.227   7.378  21.121  0.00  0.00    +0.000 OA
ATOM     11  N   UNL     1       2.389   7.237  20.367  0.00  0.00    +0.000 N 
ATOM     12  H   UNL     1       3.270   7.724  20.265  0.00  0.00    +0.000 HD
ENDBRANCH   2  11
BRANCH   4  13
ATOM     13  O   UNL     1       0.794   2.757  21.385  0.00  0.00    +0.000 OA
ATOM     14  H   UNL     1       0.389   1.976  20.964  0.00  0.00    +0.000 HD
ENDBRANCH   4  13
BRANCH   5  15
ATOM     15  C   UNL     1       2.760   1.612  19.440  0.00  0.00    +0.000 C 
BRANCH  15  16
ATOM     16  O   UNL     1       1.548   1.465  18.699  0.00  0.00    +0.000 OA
ATOM     17  H   UNL     1       1.762   1.716  17.780  0.00  0.00    +0.000 HD
ENDBRANCH  15  16
ENDBRANCH   5  15
ENDBRANCH   1   7
BRANCH   1  18
ATOM     18  C   UNL     1       5.420   5.336  17.831  0.00  0.00    +0.000 C 
ATOM     19  C   UNL     1       6.654   6.247  17.675  0.00  0.00    +0.000 C 
ATOM     20  O   UNL     1       7.543   5.903  16.598  0.00  0.00    +0.000 OA
ATOM     21  C   UNL     1       6.940   5.711  15.342  0.00  0.00    +0.000 C 
ATOM     22  C   UNL     1       5.852   4.630  15.390  0.00  0.00    +0.000 C 
ATOM     23  C   UNL     1       4.805   5.034  16.436  0.00  0.00    +0.000 C 
BRANCH  19  24
ATOM     24  C   UNL     1       7.640   6.130  18.842  0.00  0.00    +0.000 C 
ATOM     25  O   UNL     1       7.734   5.199  19.633  0.00  0.00    +0.000 OA
BRANCH  24  26
ATOM     26  O   UNL     1       8.464   7.215  18.913  0.00  0.00    +0.000 OA
ATOM     27  H   UNL     1       8.828   7.406  18.022  0.00  0.00    +0.000 HD
ENDBRANCH  24  26
ENDBRANCH  19  24
BRANCH  21  28
ATOM     28  O   UNL     1       7.988   5.350  14.458  0.00  0.00    +0.000 OA
ATOM     29  H   UNL     1       8.073   4.383  14.518  0.00  0.00    +0.000 HD
ENDBRANCH  21  28
BRANCH  22  30
ATOM     30  O   UNL     1       5.245   4.434  14.108  0.00  0.00    +0.000 OA
ATOM     31  H   UNL     1       4.391   3.973  14.221  0.00  0.00    +0.000 HD
ENDBRANCH  22  30
BRANCH  23  32
ATOM     32  O   UNL     1       3.789   4.023  16.550  0.00  0.00    +0.000 OA
ATOM     33  H   UNL     1       3.919   3.536  17.382  0.00  0.00    +0.000 HD
ENDBRANCH  23  32
ENDBRANCH   1  18
TORSDOF 11
ENDMDL
MODEL 6
REMARK VINA RESULT:      -6.6      2.387      6.039
REMARK  Name = 
REMARK  12 active torsions:
REMARK  status: ('A' for Active; 'I' for Inactive)
REMARK    1  A    between atoms: C_1  and  C_2
REMARK    2  A    between atoms: N_4  and  C_5
REMARK    3  A    between atoms: C_7  and  O_8
REMARK    4  A    between atoms: C_9  and  C_10
REMARK    5  A    between atoms: C_10  and  O_11
REMARK    6  A    between atoms: C_13  and  O_14
REMARK    7  A    between atoms: O_14  and  C_15
REMARK    8  A    between atoms: C_16  and  C_17
REMARK    9  A    between atoms: C_17  and  O_19
REMARK   10  A    between atoms: C_21  and  O_22
REMARK   11  A    between atoms: C_23  and  O_24
REMARK   12  A    between atoms: C_25  and  O_26
REMARK                            x       y       z     vdW  Elec       q    Type
REMARK                         _______ _______ _______ _____ _____    ______ ____
ROOT
ATOM      1  O   UNL     1       3.730   5.714  17.189  0.00  0.00    +0.000 OA
ENDROOT
BRANCH   1   7
ATOM      2  C   UNL     1       5.803   4.880  16.241  0.00  0.00    +0.000 C 
ATOM      3  C   UNL     1       7.161   4.239  16.548  0.00  0.00    +0.000 C 
ATOM      4  C   UNL     1       7.826   4.881  17.758  0.00  0.00    +0.000 C 
ATOM      5  C   UNL     1       6.848   4.981  18.938  0.00  0.00    +0.000 C 
ATOM      6  O   UNL     1       5.644   5.670  18.549  0.00  0.00    +0.000 OA
ATOM      7  C   UNL     1       4.921   4.982  17.524  0.00  0.00    +0.000 C 
BRANCH   2  11
ATOM      8  C   UNL     1       4.844   3.467  12.834  0.00  0.00    +0.000 C 
ATOM      9  C   UNL     1       5.721   4.139  13.853  0.00  0.00    +0.000 C 
ATOM     10  O   UNL     1       6.824   4.593  13.577  0.00  0.00    +0.000 OA
ATOM     11  N   UNL     1       5.161   4.205  15.107  0.00  0.00    +0.000 N 
ATOM     12  H   UNL     1       4.254   3.785  15.266  0.00  0.00    +0.000 HD
ENDBRANCH   2  11
BRANCH   4  13
ATOM     13  O   UNL     1       8.994   4.135  18.099  0.00  0.00    +0.000 OA
ATOM     14  H   UNL     1       9.137   4.203  19.062  0.00  0.00    +0.000 HD
ENDBRANCH   4  13
BRANCH   5  15
ATOM     15  C   UNL     1       7.478   5.784  20.085  0.00  0.00    +0.000 C 
BRANCH  15  16
ATOM     16  O   UNL     1       8.542   5.043  20.684  0.00  0.00    +0.000 OA
ATOM     17  H   UNL     1       9.331   5.617  20.635  0.00  0.00    +0.000 HD
ENDBRANCH  15  16
ENDBRANCH   5  15
ENDBRANCH   1   7
BRANCH   1  18
ATOM     18  C   UNL     1       2.519   5.347  17.896  0.00  0.00    +0.000 C 
ATOM     19  C   UNL     1       2.588   5.733  19.386  0.00  0.00    +0.000 C 
ATOM     20  O   UNL     1       1.678   5.027  20.249  0.00  0.00    +0.000 OA
ATOM     21  C   UNL     1       1.679   3.626  20.127  0.00  0.00    +0.000 C 
ATOM     22  C   UNL     1       1.376   3.178  18.691  0.00  0.00    +0.000 C 
ATOM     23  C   UNL     1       2.416   3.803  17.751  0.00  0.00    +0.000 C 
BRANCH  19  24
ATOM     24  C   UNL     1       2.111   7.163  19.661  0.00  0.00    +0.000 C 
ATOM     25  O   UNL     1       1.633   7.591  20.705  0.00  0.00    +0.000 OA
BRANCH  24  26
ATOM     26  O   UNL     1       2.292   7.969  18.574  0.00  0.00    +0.000 OA
ATOM     27  H   UNL     1       3.127   7.722  18.122  0.00  0.00    +0.000 HD
ENDBRANCH  24  26
ENDBRANCH  19  24
BRANCH  21  28
ATOM     28  O   UNL     1       0.696   3.155  21.033  0.00  0.00    +0.000 OA
ATOM     29  H   UNL     1       0.423   3.925  21.561  0.00  0.00    +0.000 HD
ENDBRANCH  21  28
BRANCH  22  30
ATOM     30  O   UNL     1       1.373   1.751  18.572  0.00  0.00    +0.000 OA
ATOM     31  H   UNL     1       0.518   1.459  18.199  0.00  0.00    +0.000 HD
ENDBRANCH  22  30
BRANCH  23  32
ATOM     32  O   UNL     1       2.140   3.449  16.386  0.00  0.00    +0.000 OA
ATOM     33  H   UNL     1       1.736   2.564  16.363  0.00  0.00    +0.000 HD
ENDBRANCH  23  32
ENDBRANCH   1  18
TORSDOF 11
ENDMDL
MODEL 7
REMARK VINA RESULT:      -6.6      2.156      6.234
REMARK  Name = 
REMARK  12 active torsions:
REMARK  status: ('A' for Active; 'I' for Inactive)
REMARK    1  A    between atoms: C_1  and  C_2
REMARK    2  A    between atoms: N_4  and  C_5
REMARK    3  A    between atoms: C_7  and  O_8
REMARK    4  A    between atoms: C_9  and  C_10
REMARK    5  A    between atoms: C_10  and  O_11
REMARK    6  A    between atoms: C_13  and  O_14
REMARK    7  A    between atoms: O_14  and  C_15
REMARK    8  A    between atoms: C_16  and  C_17
REMARK    9  A    between atoms: C_17  and  O_19
REMARK   10  A    between atoms: C_21  and  O_22
REMARK   11  A    between atoms: C_23  and  O_24
REMARK   12  A    between atoms: C_25  and  O_26
REMARK                            x       y       z     vdW  Elec       q    Type
REMARK                         _______ _______ _______ _____ _____    ______ ____
ROOT
ATOM      1  O   UNL     1       5.039   4.284  17.533  0.00  0.00    +0.000 OA
ENDROOT
BRANCH   1   7
ATOM      2  C   UNL     1       7.078   4.773  16.309  0.00  0.00    +0.000 C 
ATOM      3  C   UNL     1       7.671   5.145  14.945  0.00  0.00    +0.000 C 
ATOM      4  C   UNL     1       7.037   4.341  13.818  0.00  0.00    +0.000 C 
ATOM      5  C   UNL     1       5.505   4.366  13.913  0.00  0.00    +0.000 C 
ATOM      6  O   UNL     1       5.065   3.922  15.212  0.00  0.00    +0.000 OA
ATOM      7  C   UNL     1       5.518   4.774  16.268  0.00  0.00    +0.000 C 
BRANCH   2  11
ATOM      8  C   UNL     1       8.232   7.608  18.578  0.00  0.00    +0.000 C 
ATOM      9  C   UNL     1       7.467   6.960  17.458  0.00  0.00    +0.000 C 
ATOM     10  O   UNL     1       6.750   7.595  16.695  0.00  0.00    +0.000 OA
ATOM     11  N   UNL     1       7.664   5.602  17.368  0.00  0.00    +0.000 N 
ATOM     12  H   UNL     1       8.253   5.142  18.050  0.00  0.00    +0.000 HD
ENDBRANCH   2  11
BRANCH   4  13
ATOM     13  O   UNL     1       7.499   4.848  12.566  0.00  0.00    +0.000 OA
ATOM     14  H   UNL     1       8.197   4.256  12.228  0.00  0.00    +0.000 HD
ENDBRANCH   4  13
BRANCH   5  15
ATOM     15  C   UNL     1       4.891   3.412  12.878  0.00  0.00    +0.000 C 
BRANCH  15  16
ATOM     16  O   UNL     1       5.913   2.638  12.248  0.00  0.00    +0.000 OA
ATOM     17  H   UNL     1       6.479   2.301  12.970  0.00  0.00    +0.000 HD
ENDBRANCH  15  16
ENDBRANCH   5  15
ENDBRANCH   1   7
BRANCH   1  18
ATOM     18  C   UNL     1       3.607   4.344  17.755  0.00  0.00    +0.000 C 
ATOM     19  C   UNL     1       3.249   5.287  18.920  0.00  0.00    +0.000 C 
ATOM     20  O   UNL     1       1.955   5.073  19.511  0.00  0.00    +0.000 OA
ATOM     21  C   UNL     1       1.657   3.747  19.872  0.00  0.00    +0.000 C 
ATOM     22  C   UNL     1       1.769   2.791  18.677  0.00  0.00    +0.000 C 
ATOM     23  C   UNL     1       3.188   2.889  18.101  0.00  0.00    +0.000 C 
BRANCH  19  24
ATOM     24  C   UNL     1       3.070   6.745  18.482  0.00  0.00    +0.000 C 
ATOM     25  O   UNL     1       2.228   7.536  18.889  0.00  0.00    +0.000 OA
BRANCH  24  26
ATOM     26  O   UNL     1       4.002   7.107  17.553  0.00  0.00    +0.000 OA
ATOM     27  H   UNL     1       4.666   6.391  17.462  0.00  0.00    +0.000 HD
ENDBRANCH  24  26
ENDBRANCH  19  24
BRANCH  21  28
ATOM     28  O   UNL     1       0.338   3.771  20.392  0.00  0.00    +0.000 OA
ATOM     29  H   UNL     1      -0.248   3.950  19.636  0.00  0.00    +0.000 HD
ENDBRANCH  21  28
BRANCH  22  30
ATOM     30  O   UNL     1       1.460   1.443  19.048  0.00  0.00    +0.000 OA
ATOM     31  H   UNL     1       2.260   0.891  18.957  0.00  0.00    +0.000 HD
ENDBRANCH  22  30
BRANCH  23  32
ATOM     32  O   UNL     1       3.324   2.044  16.946  0.00  0.00    +0.000 OA
ATOM     33  H   UNL     1       4.253   1.765  16.865  0.00  0.00    +0.000 HD
ENDBRANCH  23  32
ENDBRANCH   1  18
TORSDOF 11
ENDMDL
MODEL 8
REMARK VINA RESULT:      -6.5      6.037      9.700
REMARK  Name = 
REMARK  12 active torsions:
REMARK  status: ('A' for Active; 'I' for Inactive)
REMARK    1  A    between atoms: C_1  and  C_2
REMARK    2  A    between atoms: N_4  and  C_5
REMARK    3  A    between atoms: C_7  and  O_8
REMARK    4  A    between atoms: C_9  and  C_10
REMARK    5  A    between atoms: C_10  and  O_11
REMARK    6  A    between atoms: C_13  and  O_14
REMARK    7  A    between atoms: O_14  and  C_15
REMARK    8  A    between atoms: C_16  and  C_17
REMARK    9  A    between atoms: C_17  and  O_19
REMARK   10  A    between atoms: C_21  and  O_22
REMARK   11  A    between atoms: C_23  and  O_24
REMARK   12  A    between atoms: C_25  and  O_26
REMARK                            x       y       z     vdW  Elec       q    Type
REMARK                         _______ _______ _______ _____ _____    ______ ____
ROOT
ATOM      1  O   UNL     1      -0.222  11.995  19.210  0.00  0.00    +0.000 OA
ENDROOT
BRANCH   1   7
ATOM      2  C   UNL     1      -2.608  12.396  19.411  0.00  0.00    +0.000 C 
ATOM      3  C   UNL     1      -4.007  11.906  19.017  0.00  0.00    +0.000 C 
ATOM      4  C   UNL     1      -4.070  11.506  17.549  0.00  0.00    +0.000 C 
ATOM      5  C   UNL     1      -2.904  10.578  17.178  0.00  0.00    +0.000 C 
ATOM      6  O   UNL     1      -1.641  11.180  17.524  0.00  0.00    +0.000 OA
ATOM      7  C   UNL     1      -1.504  11.405  18.930  0.00  0.00    +0.000 C 
BRANCH   2  11
ATOM      8  C   UNL     1      -2.363  14.088  22.817  0.00  0.00    +0.000 C 
ATOM      9  C   UNL     1      -2.479  14.007  21.320  0.00  0.00    +0.000 C 
ATOM     10  O   UNL     1      -2.485  15.000  20.605  0.00  0.00    +0.000 OA
ATOM     11  N   UNL     1      -2.561  12.720  20.841  0.00  0.00    +0.000 N 
ATOM     12  H   UNL     1      -2.576  11.949  21.496  0.00  0.00    +0.000 HD
ENDBRANCH   2  11
BRANCH   4  13
ATOM     13  O   UNL     1      -5.334  10.899  17.285  0.00  0.00    +0.000 OA
ATOM     14  H   UNL     1      -5.843  10.863  18.116  0.00  0.00    +0.000 HD
ENDBRANCH   4  13
BRANCH   5  15
ATOM     15  C   UNL     1      -2.884  10.327  15.663  0.00  0.00    +0.000 C 
BRANCH  15  16
ATOM     16  O   UNL     1      -3.439  11.445  14.967  0.00  0.00    +0.000 OA
ATOM     17  H   UNL     1      -4.406  11.383  15.086  0.00  0.00    +0.000 HD
ENDBRANCH  15  16
ENDBRANCH   5  15
ENDBRANCH   1   7
BRANCH   1  18
ATOM     18  C   UNL     1       0.777  11.131  19.806  0.00  0.00    +0.000 C 
ATOM     19  C   UNL     1       0.857   9.770  19.087  0.00  0.00    +0.000 C 
ATOM     20  O   UNL     1       1.454   8.704  19.848  0.00  0.00    +0.000 OA
ATOM     21  C   UNL     1       0.948   8.520  21.147  0.00  0.00    +0.000 C 
ATOM     22  C   UNL     1       1.064   9.795  21.991  0.00  0.00    +0.000 C 
ATOM     23  C   UNL     1       0.316  10.928  21.276  0.00  0.00    +0.000 C 
BRANCH  19  24
ATOM     24  C   UNL     1       1.819   9.774  17.894  0.00  0.00    +0.000 C 
ATOM     25  O   UNL     1       2.279   8.797  17.317  0.00  0.00    +0.000 OA
BRANCH  24  26
ATOM     26  O   UNL     1       2.122  11.046  17.499  0.00  0.00    +0.000 OA
ATOM     27  H   UNL     1       3.012  11.287  17.835  0.00  0.00    +0.000 HD
ENDBRANCH  24  26
ENDBRANCH  19  24
BRANCH  21  28
ATOM     28  O   UNL     1       1.698   7.457  21.710  0.00  0.00    +0.000 OA
ATOM     29  H   UNL     1       2.627   7.628  21.479  0.00  0.00    +0.000 HD
ENDBRANCH  21  28
BRANCH  22  30
ATOM     30  O   UNL     1       0.552   9.601  23.315  0.00  0.00    +0.000 OA
ATOM     31  H   UNL     1      -0.396   9.835  23.332  0.00  0.00    +0.000 HD
ENDBRANCH  22  30
BRANCH  23  32
ATOM     32  O   UNL     1       0.440  12.158  22.009  0.00  0.00    +0.000 OA
ATOM     33  H   UNL     1      -0.369  12.684  21.885  0.00  0.00    +0.000 HD
ENDBRANCH  23  32
ENDBRANCH   1  18
TORSDOF 11
ENDMDL
MODEL 9
REMARK VINA RESULT:      -6.4      1.235      1.254
REMARK  Name = 
REMARK  12 active torsions:
REMARK  status: ('A' for Active; 'I' for Inactive)
REMARK    1  A    between atoms: C_1  and  C_2
REMARK    2  A    between atoms: N_4  and  C_5
REMARK    3  A    between atoms: C_7  and  O_8
REMARK    4  A    between atoms: C_9  and  C_10
REMARK    5  A    between atoms: C_10  and  O_11
REMARK    6  A    between atoms: C_13  and  O_14
REMARK    7  A    between atoms: O_14  and  C_15
REMARK    8  A    between atoms: C_16  and  C_17
REMARK    9  A    between atoms: C_17  and  O_19
REMARK   10  A    between atoms: C_21  and  O_22
REMARK   11  A    between atoms: C_23  and  O_24
REMARK   12  A    between atoms: C_25  and  O_26
REMARK                            x       y       z     vdW  Elec       q    Type
REMARK                         _______ _______ _______ _____ _____    ______ ____
ROOT
ATOM      1  O   UNL     1       4.445   6.278  18.160  0.00  0.00    +0.000 OA
ENDROOT
BRANCH   1   7
ATOM      2  C   UNL     1       2.348   5.981  19.346  0.00  0.00    +0.000 C 
ATOM      3  C   UNL     1       1.633   5.227  20.474  0.00  0.00    +0.000 C 
ATOM      4  C   UNL     1       1.989   3.747  20.475  0.00  0.00    +0.000 C 
ATOM      5  C   UNL     1       3.508   3.542  20.388  0.00  0.00    +0.000 C 
ATOM      6  O   UNL     1       4.053   4.232  19.246  0.00  0.00    +0.000 OA
ATOM      7  C   UNL     1       3.872   5.649  19.320  0.00  0.00    +0.000 C 
BRANCH   2  11
ATOM      8  C   UNL     1       1.163   9.474  20.302  0.00  0.00    +0.000 C 
ATOM      9  C   UNL     1       1.468   8.016  20.504  0.00  0.00    +0.000 C 
ATOM     10  O   UNL     1       1.220   7.429  21.549  0.00  0.00    +0.000 OA
ATOM     11  N   UNL     1       2.032   7.413  19.404  0.00  0.00    +0.000 N 
ATOM     12  H   UNL     1       2.231   7.969  18.583  0.00  0.00    +0.000 HD
ENDBRANCH   2  11
BRANCH   4  13
ATOM     13  O   UNL     1       1.438   3.135  21.641  0.00  0.00    +0.000 OA
ATOM     14  H   UNL     1       1.714   2.200  21.663  0.00  0.00    +0.000 HD
ENDBRANCH   4  13
BRANCH   5  15
ATOM     15  C   UNL     1       3.836   2.052  20.214  0.00  0.00    +0.000 C 
BRANCH  15  16
ATOM     16  O   UNL     1       5.250   1.858  20.157  0.00  0.00    +0.000 OA
ATOM     17  H   UNL     1       5.649   2.730  20.341  0.00  0.00    +0.000 HD
ENDBRANCH  15  16
ENDBRANCH   5  15
ENDBRANCH   1   7
BRANCH   1  18
ATOM     18  C   UNL     1       5.517   5.564  17.494  0.00  0.00    +0.000 C 
ATOM     19  C   UNL     1       6.711   6.488  17.183  0.00  0.00    +0.000 C 
ATOM     20  O   UNL     1       7.599   6.022  16.150  0.00  0.00    +0.000 OA
ATOM     21  C   UNL     1       6.986   5.625  14.948  0.00  0.00    +0.000 C 
ATOM     22  C   UNL     1       5.943   4.523  15.176  0.00  0.00    +0.000 C 
ATOM     23  C   UNL     1       4.895   5.037  16.172  0.00  0.00    +0.000 C 
BRANCH  19  24
ATOM     24  C   UNL     1       7.717   6.580  18.334  0.00  0.00    +0.000 C 
ATOM     25  O   UNL     1       8.396   7.553  18.641  0.00  0.00    +0.000 OA
BRANCH  24  26
ATOM     26  O   UNL     1       7.780   5.413  19.039  0.00  0.00    +0.000 OA
ATOM     27  H   UNL     1       7.631   4.658  18.431  0.00  0.00    +0.000 HD
ENDBRANCH  24  26
ENDBRANCH  19  24
BRANCH  21  28
ATOM     28  O   UNL     1       8.034   5.177  14.106  0.00  0.00    +0.000 OA
ATOM     29  H   UNL     1       7.669   4.439  13.587  0.00  0.00    +0.000 HD
ENDBRANCH  21  28
BRANCH  22  30
ATOM     30  O   UNL     1       5.326   4.118  13.948  0.00  0.00    +0.000 OA
ATOM     31  H   UNL     1       5.441   3.155  13.830  0.00  0.00    +0.000 HD
ENDBRANCH  22  30
BRANCH  23  32
ATOM     32  O   UNL     1       3.922   4.016  16.453  0.00  0.00    +0.000 OA
ATOM     33  H   UNL     1       3.466   4.234  17.285  0.00  0.00    +0.000 HD
ENDBRANCH  23  32
ENDBRANCH   1  18
TORSDOF 11
ENDMDL
