MODEL 1
REMARK VINA RESULT:      -8.7      0.000      0.000
REMARK  Name = 
REMARK  8 active torsions:
REMARK  status: ('A' for Active; 'I' for Inactive)
REMARK    1  A    between atoms: C_1  and  C_2
REMARK    2  A    between atoms: C_2  and  C_3
REMARK    3  A    between atoms: C_3  and  C_4
REMARK    4  A    between atoms: C_9  and  O_10
REMARK    5  A    between atoms: O_10  and  C_11
REMARK    6  A    between atoms: C_11  and  C_13
REMARK    7  A    between atoms: N_24  and  C_25
REMARK    8  A    between atoms: C_25  and  C_26
REMARK                            x       y       z     vdW  Elec       q    Type
REMARK                         _______ _______ _______ _____ _____    ______ ____
ROOT
ATOM      1  C   UNL     1       3.056   5.428  19.135  0.00  0.00    +0.000 A 
ATOM      2  C   UNL     1       2.658   4.769  17.968  0.00  0.00    +0.000 A 
ATOM      3  C   UNL     1       3.618   4.434  16.981  0.00  0.00    +0.000 A 
ATOM      4  C   UNL     1       4.993   4.704  17.138  0.00  0.00    +0.000 A 
ATOM      5  C   UNL     1       5.324   5.415  18.294  0.00  0.00    +0.000 A 
ATOM      6  C   UNL     1       4.387   5.816  19.253  0.00  0.00    +0.000 A 
ATOM      7  S   UNL     1       7.012   5.653  18.692  0.00  0.00    +0.000 S 
ATOM      8  O   UNL     1       7.170   5.445  20.114  0.00  0.00    +0.000 OA
ATOM      9  O   UNL     1       7.464   6.855  18.035  0.00  0.00    +0.000 OA
ATOM     10  N   UNL     1       7.690   4.332  17.957  0.00  0.00    +0.000 NA
ATOM     11  C   UNL     1       7.383   4.237  16.559  0.00  0.00    +0.000 C 
ATOM     12  N   UNL     1       5.954   4.227  16.250  0.00  0.00    +0.000 N 
ATOM     13  H   UNL     1       7.607   3.484  18.510  0.00  0.00    +0.000 HD
ENDROOT
BRANCH   1  14
ATOM     14  C   UNL     1       2.121   5.606  20.289  0.00  0.00    +0.000 C 
ATOM     15  O   UNL     1       1.558   4.711  20.893  0.00  0.00    +0.000 OA
BRANCH  14  16
ATOM     16  O   UNL     1       2.129   6.971  20.597  0.00  0.00    +0.000 OA
BRANCH  16  22
ATOM     17  C   UNL     1       1.021   9.119  20.679  0.00  0.00    +0.000 A 
ATOM     18  C   UNL     1       0.599  10.288  20.027  0.00  0.00    +0.000 A 
ATOM     19  C   UNL     1       0.796  10.451  18.655  0.00  0.00    +0.000 A 
ATOM     20  C   UNL     1       1.449   9.464  17.917  0.00  0.00    +0.000 A 
ATOM     21  C   UNL     1       1.910   8.307  18.542  0.00  0.00    +0.000 A 
ATOM     22  C   UNL     1       1.694   8.144  19.907  0.00  0.00    +0.000 A 
BRANCH  17  23
ATOM     23  C   UNL     1       0.819   8.940  22.170  0.00  0.00    +0.000 C 
BRANCH  23  25
ATOM     24  C   UNL     1      -0.818  10.681  23.061  0.00  0.00    +0.000 C 
ATOM     25  C   UNL     1      -0.583   9.212  22.737  0.00  0.00    +0.000 C 
ENDBRANCH  23  25
ENDBRANCH  17  23
ENDBRANCH  16  22
ENDBRANCH  14  16
ENDBRANCH   1  14
BRANCH  12  26
ATOM     26  C   UNL     1       5.671   4.244  14.798  0.00  0.00    +0.000 C 
ATOM     27  C   UNL     1       6.890   4.650  13.974  0.00  0.00    +0.000 C 
ENDBRANCH  12  26
TORSDOF 6
ENDMDL
MODEL 2
REMARK VINA RESULT:      -8.5      3.659      7.609
REMARK  Name = 
REMARK  8 active torsions:
REMARK  status: ('A' for Active; 'I' for Inactive)
REMARK    1  A    between atoms: C_1  and  C_2
REMARK    2  A    between atoms: C_2  and  C_3
REMARK    3  A    between atoms: C_3  and  C_4
REMARK    4  A    between atoms: C_9  and  O_10
REMARK    5  A    between atoms: O_10  and  C_11
REMARK    6  A    between atoms: C_11  and  C_13
REMARK    7  A    between atoms: N_24  and  C_25
REMARK    8  A    between atoms: C_25  and  C_26
REMARK                            x       y       z     vdW  Elec       q    Type
REMARK                         _______ _______ _______ _____ _____    ______ ____
ROOT
ATOM      1  C   UNL     1       2.480   7.295  19.147  0.00  0.00    +0.000 A 
ATOM      2  C   UNL     1       2.167   7.985  17.973  0.00  0.00    +0.000 A 
ATOM      3  C   UNL     1       1.345   9.138  18.027  0.00  0.00    +0.000 A 
ATOM      4  C   UNL     1       0.847   9.658  19.238  0.00  0.00    +0.000 A 
ATOM      5  C   UNL     1       1.141   8.895  20.371  0.00  0.00    +0.000 A 
ATOM      6  C   UNL     1       1.896   7.717  20.337  0.00  0.00    +0.000 A 
ATOM      7  S   UNL     1       0.734   9.527  21.952  0.00  0.00    +0.000 S 
ATOM      8  O   UNL     1       1.838   9.247  22.843  0.00  0.00    +0.000 OA
ATOM      9  O   UNL     1      -0.621   9.135  22.257  0.00  0.00    +0.000 OA
ATOM     10  N   UNL     1       0.786  11.155  21.654  0.00  0.00    +0.000 NA
ATOM     11  C   UNL     1      -0.066  11.566  20.576  0.00  0.00    +0.000 C 
ATOM     12  N   UNL     1       0.181  10.879  19.310  0.00  0.00    +0.000 N 
ATOM     13  H   UNL     1       1.730  11.531  21.670  0.00  0.00    +0.000 HD
ENDROOT
BRANCH   1  14
ATOM     14  C   UNL     1       3.510   6.210  19.165  0.00  0.00    +0.000 C 
ATOM     15  O   UNL     1       3.511   5.242  19.902  0.00  0.00    +0.000 OA
BRANCH  14  16
ATOM     16  O   UNL     1       4.380   6.474  18.101  0.00  0.00    +0.000 OA
BRANCH  16  22
ATOM     17  C   UNL     1       6.341   6.064  16.746  0.00  0.00    +0.000 A 
ATOM     18  C   UNL     1       7.023   5.266  15.814  0.00  0.00    +0.000 A 
ATOM     19  C   UNL     1       6.415   4.137  15.262  0.00  0.00    +0.000 A 
ATOM     20  C   UNL     1       5.130   3.768  15.657  0.00  0.00    +0.000 A 
ATOM     21  C   UNL     1       4.440   4.521  16.606  0.00  0.00    +0.000 A 
ATOM     22  C   UNL     1       5.046   5.654  17.138  0.00  0.00    +0.000 A 
BRANCH  17  23
ATOM     23  C   UNL     1       6.999   7.286  17.357  0.00  0.00    +0.000 C 
BRANCH  23  25
ATOM     24  C   UNL     1       7.783   5.806  19.281  0.00  0.00    +0.000 C 
ATOM     25  C   UNL     1       8.050   7.055  18.453  0.00  0.00    +0.000 C 
ENDBRANCH  23  25
ENDBRANCH  17  23
ENDBRANCH  16  22
ENDBRANCH  14  16
ENDBRANCH   1  14
BRANCH  12  26
ATOM     26  C   UNL     1      -0.786  11.241  18.251  0.00  0.00    +0.000 C 
ATOM     27  C   UNL     1      -2.020  10.342  18.261  0.00  0.00    +0.000 C 
ENDBRANCH  12  26
TORSDOF 6
ENDMDL
MODEL 3
REMARK VINA RESULT:      -8.2      3.650      7.591
REMARK  Name = 
REMARK  8 active torsions:
REMARK  status: ('A' for Active; 'I' for Inactive)
REMARK    1  A    between atoms: C_1  and  C_2
REMARK    2  A    between atoms: C_2  and  C_3
REMARK    3  A    between atoms: C_3  and  C_4
REMARK    4  A    between atoms: C_9  and  O_10
REMARK    5  A    between atoms: O_10  and  C_11
REMARK    6  A    between atoms: C_11  and  C_13
REMARK    7  A    between atoms: N_24  and  C_25
REMARK    8  A    between atoms: C_25  and  C_26
REMARK                            x       y       z     vdW  Elec       q    Type
REMARK                         _______ _______ _______ _____ _____    ______ ____
ROOT
ATOM      1  C   UNL     1       2.242   7.435  19.128  0.00  0.00    +0.000 A 
ATOM      2  C   UNL     1       1.975   8.168  17.968  0.00  0.00    +0.000 A 
ATOM      3  C   UNL     1       1.251   9.383  18.048  0.00  0.00    +0.000 A 
ATOM      4  C   UNL     1       0.809   9.923  19.273  0.00  0.00    +0.000 A 
ATOM      5  C   UNL     1       1.052   9.120  20.390  0.00  0.00    +0.000 A 
ATOM      6  C   UNL     1       1.706   7.885  20.331  0.00  0.00    +0.000 A 
ATOM      7  S   UNL     1       0.714   9.759  21.985  0.00  0.00    +0.000 S 
ATOM      8  O   UNL     1       1.800   9.375  22.859  0.00  0.00    +0.000 OA
ATOM      9  O   UNL     1      -0.665   9.475  22.300  0.00  0.00    +0.000 OA
ATOM     10  N   UNL     1       0.897  11.382  21.711  0.00  0.00    +0.000 NA
ATOM     11  C   UNL     1       0.070  11.878  20.650  0.00  0.00    +0.000 C 
ATOM     12  N   UNL     1       0.248  11.194  19.370  0.00  0.00    +0.000 N 
ATOM     13  H   UNL     1       1.869  11.679  21.722  0.00  0.00    +0.000 HD
ENDROOT
BRANCH   1  14
ATOM     14  C   UNL     1       3.180   6.270  19.118  0.00  0.00    +0.000 C 
ATOM     15  O   UNL     1       3.488   5.597  20.084  0.00  0.00    +0.000 OA
BRANCH  14  16
ATOM     16  O   UNL     1       3.520   6.048  17.779  0.00  0.00    +0.000 OA
BRANCH  16  22
ATOM     17  C   UNL     1       4.660   4.273  16.597  0.00  0.00    +0.000 A 
ATOM     18  C   UNL     1       5.803   3.802  15.930  0.00  0.00    +0.000 A 
ATOM     19  C   UNL     1       6.950   4.591  15.836  0.00  0.00    +0.000 A 
ATOM     20  C   UNL     1       6.964   5.876  16.376  0.00  0.00    +0.000 A 
ATOM     21  C   UNL     1       5.834   6.385  17.014  0.00  0.00    +0.000 A 
ATOM     22  C   UNL     1       4.701   5.586  17.119  0.00  0.00    +0.000 A 
BRANCH  17  23
ATOM     23  C   UNL     1       3.408   3.425  16.694  0.00  0.00    +0.000 C 
BRANCH  23  25
ATOM     24  C   UNL     1       1.826   2.768  18.584  0.00  0.00    +0.000 C 
ATOM     25  C   UNL     1       3.208   2.593  17.970  0.00  0.00    +0.000 C 
ENDBRANCH  23  25
ENDBRANCH  17  23
ENDBRANCH  16  22
ENDBRANCH  14  16
ENDBRANCH   1  14
BRANCH  12  26
ATOM     26  C   UNL     1      -0.698  11.650  18.329  0.00  0.00    +0.000 C 
ATOM     27  C   UNL     1      -2.026  10.900  18.380  0.00  0.00    +0.000 C 
ENDBRANCH  12  26
TORSDOF 6
ENDMDL
MODEL 4
REMARK VINA RESULT:      -8.2      3.952      7.894
REMARK  Name = 
REMARK  8 active torsions:
REMARK  status: ('A' for Active; 'I' for Inactive)
REMARK    1  A    between atoms: C_1  and  C_2
REMARK    2  A    between atoms: C_2  and  C_3
REMARK    3  A    between atoms: C_3  and  C_4
REMARK    4  A    between atoms: C_9  and  O_10
REMARK    5  A    between atoms: O_10  and  C_11
REMARK    6  A    between atoms: C_11  and  C_13
REMARK    7  A    between atoms: N_24  and  C_25
REMARK    8  A    between atoms: C_25  and  C_26
REMARK                            x       y       z     vdW  Elec       q    Type
REMARK                         _______ _______ _______ _____ _____    ______ ____
ROOT
ATOM      1  C   UNL     1       1.938   8.152  18.801  0.00  0.00    +0.000 A 
ATOM      2  C   UNL     1       1.331   8.946  17.825  0.00  0.00    +0.000 A 
ATOM      3  C   UNL     1       0.400   9.945  18.202  0.00  0.00    +0.000 A 
ATOM      4  C   UNL     1       0.078  10.211  19.549  0.00  0.00    +0.000 A 
ATOM      5  C   UNL     1       0.670   9.350  20.476  0.00  0.00    +0.000 A 
ATOM      6  C   UNL     1       1.541   8.313  20.124  0.00  0.00    +0.000 A 
ATOM      7  S   UNL     1       0.492   9.687  22.184  0.00  0.00    +0.000 S 
ATOM      8  O   UNL     1       1.768   9.452  22.821  0.00  0.00    +0.000 OA
ATOM      9  O   UNL     1      -0.725   9.061  22.642  0.00  0.00    +0.000 OA
ATOM     10  N   UNL     1       0.291  11.331  22.153  0.00  0.00    +0.000 NA
ATOM     11  C   UNL     1      -0.792  11.757  21.314  0.00  0.00    +0.000 C 
ATOM     12  N   UNL     1      -0.705  11.299  19.929  0.00  0.00    +0.000 N 
ATOM     13  H   UNL     1       1.168  11.836  22.073  0.00  0.00    +0.000 HD
ENDROOT
BRANCH   1  14
ATOM     14  C   UNL     1       3.078   7.241  18.469  0.00  0.00    +0.000 C 
ATOM     15  O   UNL     1       3.805   7.336  17.497  0.00  0.00    +0.000 OA
BRANCH  14  16
ATOM     16  O   UNL     1       3.203   6.357  19.546  0.00  0.00    +0.000 OA
BRANCH  16  22
ATOM     17  C   UNL     1       3.697   3.990  19.563  0.00  0.00    +0.000 A 
ATOM     18  C   UNL     1       3.288   2.670  19.811  0.00  0.00    +0.000 A 
ATOM     19  C   UNL     1       1.982   2.392  20.217  0.00  0.00    +0.000 A 
ATOM     20  C   UNL     1       1.073   3.430  20.415  0.00  0.00    +0.000 A 
ATOM     21  C   UNL     1       1.459   4.754  20.211  0.00  0.00    +0.000 A 
ATOM     22  C   UNL     1       2.757   5.021  19.789  0.00  0.00    +0.000 A 
BRANCH  17  23
ATOM     23  C   UNL     1       5.117   4.299  19.131  0.00  0.00    +0.000 C 
BRANCH  23  25
ATOM     24  C   UNL     1       4.212   3.921  16.776  0.00  0.00    +0.000 C 
ATOM     25  C   UNL     1       5.426   4.269  17.627  0.00  0.00    +0.000 C 
ENDBRANCH  23  25
ENDBRANCH  17  23
ENDBRANCH  16  22
ENDBRANCH  14  16
ENDBRANCH   1  14
BRANCH  12  26
ATOM     26  C   UNL     1      -1.890  11.657  19.120  0.00  0.00    +0.000 C 
ATOM     27  C   UNL     1      -2.900  12.489  19.907  0.00  0.00    +0.000 C 
ENDBRANCH  12  26
TORSDOF 6
ENDMDL
MODEL 5
REMARK VINA RESULT:      -8.2      3.070      4.975
REMARK  Name = 
REMARK  8 active torsions:
REMARK  status: ('A' for Active; 'I' for Inactive)
REMARK    1  A    between atoms: C_1  and  C_2
REMARK    2  A    between atoms: C_2  and  C_3
REMARK    3  A    between atoms: C_3  and  C_4
REMARK    4  A    between atoms: C_9  and  O_10
REMARK    5  A    between atoms: O_10  and  C_11
REMARK    6  A    between atoms: C_11  and  C_13
REMARK    7  A    between atoms: N_24  and  C_25
REMARK    8  A    between atoms: C_25  and  C_26
REMARK                            x       y       z     vdW  Elec       q    Type
REMARK                         _______ _______ _______ _____ _____    ______ ____
ROOT
ATOM      1  C   UNL     1       2.090   7.501  18.584  0.00  0.00    +0.000 A 
ATOM      2  C   UNL     1       1.968   7.311  19.963  0.00  0.00    +0.000 A 
ATOM      3  C   UNL     1       2.270   6.050  20.535  0.00  0.00    +0.000 A 
ATOM      4  C   UNL     1       2.735   4.963  19.768  0.00  0.00    +0.000 A 
ATOM      5  C   UNL     1       2.781   5.191  18.391  0.00  0.00    +0.000 A 
ATOM      6  C   UNL     1       2.425   6.405  17.794  0.00  0.00    +0.000 A 
ATOM      7  S   UNL     1       3.508   3.984  17.352  0.00  0.00    +0.000 S 
ATOM      8  O   UNL     1       4.317   4.669  16.369  0.00  0.00    +0.000 OA
ATOM      9  O   UNL     1       2.487   3.033  16.983  0.00  0.00    +0.000 OA
ATOM     10  N   UNL     1       4.572   3.274  18.406  0.00  0.00    +0.000 NA
ATOM     11  C   UNL     1       3.948   2.780  19.599  0.00  0.00    +0.000 C 
ATOM     12  N   UNL     1       3.190   3.780  20.348  0.00  0.00    +0.000 N 
ATOM     13  H   UNL     1       5.433   3.800  18.514  0.00  0.00    +0.000 HD
ENDROOT
BRANCH   1  14
ATOM     14  C   UNL     1       1.992   8.862  17.970  0.00  0.00    +0.000 C 
ATOM     15  O   UNL     1       2.908   9.479  17.460  0.00  0.00    +0.000 OA
BRANCH  14  16
ATOM     16  O   UNL     1       0.637   9.210  17.997  0.00  0.00    +0.000 OA
BRANCH  16  22
ATOM     17  C   UNL     1      -1.372  10.543  18.183  0.00  0.00    +0.000 A 
ATOM     18  C   UNL     1      -2.148  11.468  18.899  0.00  0.00    +0.000 A 
ATOM     19  C   UNL     1      -1.675  12.029  20.086  0.00  0.00    +0.000 A 
ATOM     20  C   UNL     1      -0.435  11.649  20.597  0.00  0.00    +0.000 A 
ATOM     21  C   UNL     1       0.344  10.706  19.928  0.00  0.00    +0.000 A 
ATOM     22  C   UNL     1      -0.127  10.166  18.735  0.00  0.00    +0.000 A 
BRANCH  17  23
ATOM     23  C   UNL     1      -1.884   9.923  16.898  0.00  0.00    +0.000 C 
BRANCH  23  25
ATOM     24  C   UNL     1      -3.131  10.100  14.680  0.00  0.00    +0.000 C 
ATOM     25  C   UNL     1      -2.723  10.809  15.964  0.00  0.00    +0.000 C 
ENDBRANCH  23  25
ENDBRANCH  17  23
ENDBRANCH  16  22
ENDBRANCH  14  16
ENDBRANCH   1  14
BRANCH  12  26
ATOM     26  C   UNL     1       2.467   3.216  21.508  0.00  0.00    +0.000 C 
ATOM     27  C   UNL     1       1.050   2.777  21.151  0.00  0.00    +0.000 C 
ENDBRANCH  12  26
TORSDOF 6
ENDMDL
MODEL 6
REMARK VINA RESULT:      -8.1      3.930      7.954
REMARK  Name = 
REMARK  8 active torsions:
REMARK  status: ('A' for Active; 'I' for Inactive)
REMARK    1  A    between atoms: C_1  and  C_2
REMARK    2  A    between atoms: C_2  and  C_3
REMARK    3  A    between atoms: C_3  and  C_4
REMARK    4  A    between atoms: C_9  and  O_10
REMARK    5  A    between atoms: O_10  and  C_11
REMARK    6  A    between atoms: C_11  and  C_13
REMARK    7  A    between atoms: N_24  and  C_25
REMARK    8  A    between atoms: C_25  and  C_26
REMARK                            x       y       z     vdW  Elec       q    Type
REMARK                         _______ _______ _______ _____ _____    ______ ____
ROOT
ATOM      1  C   UNL     1       1.955   8.198  18.639  0.00  0.00    +0.000 A 
ATOM      2  C   UNL     1       1.317   9.016  17.703  0.00  0.00    +0.000 A 
ATOM      3  C   UNL     1       0.373   9.981  18.132  0.00  0.00    +0.000 A 
ATOM      4  C   UNL     1       0.066  10.189  19.492  0.00  0.00    +0.000 A 
ATOM      5  C   UNL     1       0.689   9.306  20.377  0.00  0.00    +0.000 A 
ATOM      6  C   UNL     1       1.575   8.301  19.974  0.00  0.00    +0.000 A 
ATOM      7  S   UNL     1       0.531   9.575  22.100  0.00  0.00    +0.000 S 
ATOM      8  O   UNL     1       1.821   9.342  22.709  0.00  0.00    +0.000 OA
ATOM      9  O   UNL     1      -0.666   8.907  22.551  0.00  0.00    +0.000 OA
ATOM     10  N   UNL     1       0.297  11.215  22.134  0.00  0.00    +0.000 NA
ATOM     11  C   UNL     1      -0.807  11.650  21.328  0.00  0.00    +0.000 C 
ATOM     12  N   UNL     1      -0.732  11.246  19.925  0.00  0.00    +0.000 N 
ATOM     13  H   UNL     1       1.163  11.740  22.061  0.00  0.00    +0.000 HD
ENDROOT
BRANCH   1  14
ATOM     14  C   UNL     1       3.107   7.323  18.257  0.00  0.00    +0.000 C 
ATOM     15  O   UNL     1       3.984   7.609  17.463  0.00  0.00    +0.000 OA
BRANCH  14  16
ATOM     16  O   UNL     1       3.030   6.190  19.074  0.00  0.00    +0.000 OA
BRANCH  16  22
ATOM     17  C   UNL     1       4.025   3.998  18.840  0.00  0.00    +0.000 A 
ATOM     18  C   UNL     1       3.878   2.621  18.610  0.00  0.00    +0.000 A 
ATOM     19  C   UNL     1       2.627   2.076  18.321  0.00  0.00    +0.000 A 
ATOM     20  C   UNL     1       1.496   2.890  18.291  0.00  0.00    +0.000 A 
ATOM     21  C   UNL     1       1.603   4.255  18.550  0.00  0.00    +0.000 A 
ATOM     22  C   UNL     1       2.857   4.794  18.820  0.00  0.00    +0.000 A 
BRANCH  17  23
ATOM     23  C   UNL     1       5.380   4.596  19.164  0.00  0.00    +0.000 C 
BRANCH  23  25
ATOM     24  C   UNL     1       7.555   5.662  18.367  0.00  0.00    +0.000 C 
ATOM     25  C   UNL     1       6.379   4.764  18.010  0.00  0.00    +0.000 C 
ENDBRANCH  23  25
ENDBRANCH  17  23
ENDBRANCH  16  22
ENDBRANCH  14  16
ENDBRANCH   1  14
BRANCH  12  26
ATOM     26  C   UNL     1      -1.936  11.611  19.148  0.00  0.00    +0.000 C 
ATOM     27  C   UNL     1      -2.881  12.517  19.933  0.00  0.00    +0.000 C 
ENDBRANCH  12  26
TORSDOF 6
ENDMDL
MODEL 7
REMARK VINA RESULT:      -8.1      3.710      7.598
REMARK  Name = 
REMARK  8 active torsions:
REMARK  status: ('A' for Active; 'I' for Inactive)
REMARK    1  A    between atoms: C_1  and  C_2
REMARK    2  A    between atoms: C_2  and  C_3
REMARK    3  A    between atoms: C_3  and  C_4
REMARK    4  A    between atoms: C_9  and  O_10
REMARK    5  A    between atoms: O_10  and  C_11
REMARK    6  A    between atoms: C_11  and  C_13
REMARK    7  A    between atoms: N_24  and  C_25
REMARK    8  A    between atoms: C_25  and  C_26
REMARK                            x       y       z     vdW  Elec       q    Type
REMARK                         _______ _______ _______ _____ _____    ______ ____
ROOT
ATOM      1  C   UNL     1       2.402   7.833  18.691  0.00  0.00    +0.000 A 
ATOM      2  C   UNL     1       1.929   8.637  17.651  0.00  0.00    +0.000 A 
ATOM      3  C   UNL     1       1.001   9.672  17.921  0.00  0.00    +0.000 A 
ATOM      4  C   UNL     1       0.549   9.964  19.224  0.00  0.00    +0.000 A 
ATOM      5  C   UNL     1       1.009   9.092  20.215  0.00  0.00    +0.000 A 
ATOM      6  C   UNL     1       1.874   8.021  19.964  0.00  0.00    +0.000 A 
ATOM      7  S   UNL     1       0.665   9.454  21.893  0.00  0.00    +0.000 S 
ATOM      8  O   UNL     1       1.858   9.181  22.662  0.00  0.00    +0.000 OA
ATOM      9  O   UNL     1      -0.614   8.876  22.225  0.00  0.00    +0.000 OA
ATOM     10  N   UNL     1       0.528  11.104  21.829  0.00  0.00    +0.000 NA
ATOM     11  C   UNL     1      -0.445  11.558  20.878  0.00  0.00    +0.000 C 
ATOM     12  N   UNL     1      -0.229  11.082  19.513  0.00  0.00    +0.000 N 
ATOM     13  H   UNL     1       1.427  11.577  21.838  0.00  0.00    +0.000 HD
ENDROOT
BRANCH   1  14
ATOM     14  C   UNL     1       3.536   6.878  18.487  0.00  0.00    +0.000 C 
ATOM     15  O   UNL     1       4.480   7.045  17.737  0.00  0.00    +0.000 OA
BRANCH  14  16
ATOM     16  O   UNL     1       3.350   5.841  19.408  0.00  0.00    +0.000 OA
BRANCH  16  22
ATOM     17  C   UNL     1       2.406   3.905  18.308  0.00  0.00    +0.000 A 
ATOM     18  C   UNL     1       1.565   2.781  18.347  0.00  0.00    +0.000 A 
ATOM     19  C   UNL     1       0.789   2.510  19.474  0.00  0.00    +0.000 A 
ATOM     20  C   UNL     1       0.865   3.335  20.594  0.00  0.00    +0.000 A 
ATOM     21  C   UNL     1       1.717   4.439  20.600  0.00  0.00    +0.000 A 
ATOM     22  C   UNL     1       2.474   4.713  19.466  0.00  0.00    +0.000 A 
BRANCH  17  23
ATOM     23  C   UNL     1       3.259   4.200  17.090  0.00  0.00    +0.000 C 
BRANCH  23  25
ATOM     24  C   UNL     1       5.500   4.084  15.877  0.00  0.00    +0.000 C 
ATOM     25  C   UNL     1       4.645   3.541  17.014  0.00  0.00    +0.000 C 
ENDBRANCH  23  25
ENDBRANCH  17  23
ENDBRANCH  16  22
ENDBRANCH  14  16
ENDBRANCH   1  14
BRANCH  12  26
ATOM     26  C   UNL     1      -1.309  11.474  18.581  0.00  0.00    +0.000 C 
ATOM     27  C   UNL     1      -2.279  10.328  18.303  0.00  0.00    +0.000 C 
ENDBRANCH  12  26
TORSDOF 6
ENDMDL
MODEL 8
REMARK VINA RESULT:      -8.1      1.949      2.827
REMARK  Name = 
REMARK  8 active torsions:
REMARK  status: ('A' for Active; 'I' for Inactive)
REMARK    1  A    between atoms: C_1  and  C_2
REMARK    2  A    between atoms: C_2  and  C_3
REMARK    3  A    between atoms: C_3  and  C_4
REMARK    4  A    between atoms: C_9  and  O_10
REMARK    5  A    between atoms: O_10  and  C_11
REMARK    6  A    between atoms: C_11  and  C_13
REMARK    7  A    between atoms: N_24  and  C_25
REMARK    8  A    between atoms: C_25  and  C_26
REMARK                            x       y       z     vdW  Elec       q    Type
REMARK                         _______ _______ _______ _____ _____    ______ ____
ROOT
ATOM      1  C   UNL     1       2.441   7.501  19.306  0.00  0.00    +0.000 A 
ATOM      2  C   UNL     1       2.814   8.030  18.068  0.00  0.00    +0.000 A 
ATOM      3  C   UNL     1       3.590   7.255  17.171  0.00  0.00    +0.000 A 
ATOM      4  C   UNL     1       3.980   5.931  17.456  0.00  0.00    +0.000 A 
ATOM      5  C   UNL     1       3.630   5.476  18.730  0.00  0.00    +0.000 A 
ATOM      6  C   UNL     1       2.921   6.244  19.660  0.00  0.00    +0.000 A 
ATOM      7  S   UNL     1       3.899   3.794  19.136  0.00  0.00    +0.000 S 
ATOM      8  O   UNL     1       2.743   3.321  19.865  0.00  0.00    +0.000 OA
ATOM      9  O   UNL     1       5.240   3.665  19.651  0.00  0.00    +0.000 OA
ATOM     10  N   UNL     1       3.812   3.098  17.636  0.00  0.00    +0.000 NA
ATOM     11  C   UNL     1       4.726   3.668  16.689  0.00  0.00    +0.000 C 
ATOM     12  N   UNL     1       4.596   5.113  16.511  0.00  0.00    +0.000 N 
ATOM     13  H   UNL     1       2.857   2.943  17.326  0.00  0.00    +0.000 HD
ENDROOT
BRANCH   1  14
ATOM     14  C   UNL     1       1.450   8.196  20.186  0.00  0.00    +0.000 C 
ATOM     15  O   UNL     1       1.040   7.787  21.257  0.00  0.00    +0.000 OA
BRANCH  14  16
ATOM     16  O   UNL     1       1.196   9.437  19.592  0.00  0.00    +0.000 OA
BRANCH  16  22
ATOM     17  C   UNL     1      -0.523  11.103  19.938  0.00  0.00    +0.000 A 
ATOM     18  C   UNL     1      -1.674  11.766  19.484  0.00  0.00    +0.000 A 
ATOM     19  C   UNL     1      -2.287  11.393  18.288  0.00  0.00    +0.000 A 
ATOM     20  C   UNL     1      -1.742  10.375  17.507  0.00  0.00    +0.000 A 
ATOM     21  C   UNL     1      -0.580   9.720  17.913  0.00  0.00    +0.000 A 
ATOM     22  C   UNL     1       0.015  10.086  19.116  0.00  0.00    +0.000 A 
BRANCH  17  23
ATOM     23  C   UNL     1       0.154  11.509  21.232  0.00  0.00    +0.000 C 
BRANCH  23  25
ATOM     24  C   UNL     1      -0.783  10.079  23.125  0.00  0.00    +0.000 C 
ATOM     25  C   UNL     1      -0.686  11.472  22.518  0.00  0.00    +0.000 C 
ENDBRANCH  23  25
ENDBRANCH  17  23
ENDBRANCH  16  22
ENDBRANCH  14  16
ENDBRANCH   1  14
BRANCH  12  26
ATOM     26  C   UNL     1       5.625   5.686  15.617  0.00  0.00    +0.000 C 
ATOM     27  C   UNL     1       6.145   4.670  14.604  0.00  0.00    +0.000 C 
ENDBRANCH  12  26
TORSDOF 6
ENDMDL
MODEL 9
REMARK VINA RESULT:      -8.0      2.938      4.234
REMARK  Name = 
REMARK  8 active torsions:
REMARK  status: ('A' for Active; 'I' for Inactive)
REMARK    1  A    between atoms: C_1  and  C_2
REMARK    2  A    between atoms: C_2  and  C_3
REMARK    3  A    between atoms: C_3  and  C_4
REMARK    4  A    between atoms: C_9  and  O_10
REMARK    5  A    between atoms: O_10  and  C_11
REMARK    6  A    between atoms: C_11  and  C_13
REMARK    7  A    between atoms: N_24  and  C_25
REMARK    8  A    between atoms: C_25  and  C_26
REMARK                            x       y       z     vdW  Elec       q    Type
REMARK                         _______ _______ _______ _____ _____    ______ ____
ROOT
ATOM      1  C   UNL     1       2.142   7.348  18.734  0.00  0.00    +0.000 A 
ATOM      2  C   UNL     1       2.046   7.092  20.104  0.00  0.00    +0.000 A 
ATOM      3  C   UNL     1       2.354   5.805  20.608  0.00  0.00    +0.000 A 
ATOM      4  C   UNL     1       2.801   4.754  19.782  0.00  0.00    +0.000 A 
ATOM      5  C   UNL     1       2.822   5.049  18.416  0.00  0.00    +0.000 A 
ATOM      6  C   UNL     1       2.459   6.292  17.886  0.00  0.00    +0.000 A 
ATOM      7  S   UNL     1       3.526   3.891  17.307  0.00  0.00    +0.000 S 
ATOM      8  O   UNL     1       4.318   4.622  16.343  0.00  0.00    +0.000 OA
ATOM      9  O   UNL     1       2.495   2.963  16.912  0.00  0.00    +0.000 OA
ATOM     10  N   UNL     1       4.606   3.129  18.305  0.00  0.00    +0.000 NA
ATOM     11  C   UNL     1       4.004   2.579  19.484  0.00  0.00    +0.000 C 
ATOM     12  N   UNL     1       3.263   3.544  20.295  0.00  0.00    +0.000 N 
ATOM     13  H   UNL     1       5.472   3.648  18.422  0.00  0.00    +0.000 HD
ENDROOT
BRANCH   1  14
ATOM     14  C   UNL     1       2.037   8.738  18.189  0.00  0.00    +0.000 C 
ATOM     15  O   UNL     1       2.564   9.143  17.169  0.00  0.00    +0.000 OA
BRANCH  14  16
ATOM     16  O   UNL     1       1.130   9.416  19.010  0.00  0.00    +0.000 OA
BRANCH  16  22
ATOM     17  C   UNL     1      -0.565  10.946  19.806  0.00  0.00    +0.000 A 
ATOM     18  C   UNL     1      -1.766  11.642  19.590  0.00  0.00    +0.000 A 
ATOM     19  C   UNL     1      -2.494  11.458  18.415  0.00  0.00    +0.000 A 
ATOM     20  C   UNL     1      -2.020  10.603  17.420  0.00  0.00    +0.000 A 
ATOM     21  C   UNL     1      -0.814   9.925  17.590  0.00  0.00    +0.000 A 
ATOM     22  C   UNL     1      -0.102  10.100  18.773  0.00  0.00    +0.000 A 
BRANCH  17  23
ATOM     23  C   UNL     1       0.237  11.149  21.077  0.00  0.00    +0.000 C 
BRANCH  23  25
ATOM     24  C   UNL     1      -1.388  11.435  23.022  0.00  0.00    +0.000 C 
ATOM     25  C   UNL     1      -0.326  10.555  22.377  0.00  0.00    +0.000 C 
ENDBRANCH  23  25
ENDBRANCH  17  23
ENDBRANCH  16  22
ENDBRANCH  14  16
ENDBRANCH   1  14
BRANCH  12  26
ATOM     26  C   UNL     1       2.560   2.927  21.440  0.00  0.00    +0.000 C 
ATOM     27  C   UNL     1       1.074   2.715  21.163  0.00  0.00    +0.000 C 
ENDBRANCH  12  26
TORSDOF 6
ENDMDL
