MODEL 1
REMARK VINA RESULT:      -6.1      0.000      0.000
REMARK  Name = 
REMARK  17 active torsions:
REMARK  status: ('A' for Active; 'I' for Inactive)
REMARK    1  A    between atoms: C_1  and  C_2
REMARK    2  A    between atoms: C_2  and  C_3
REMARK    3  A    between atoms: C_2  and  C_4
REMARK    4  A    between atoms: C_4  and  C_5
REMARK    5  A    between atoms: C_5  and  C_6
REMARK    6  A    between atoms: C_5  and  C_22
REMARK    7  A    between atoms: N_8  and  C_9
REMARK    8  A    between atoms: C_9  and  C_10
REMARK    9  A    between atoms: C_9  and  C_18
REMARK   10  A    between atoms: C_18  and  C_19
REMARK   11  A    between atoms: C_18  and  C_20
REMARK   12  A    between atoms: C_18  and  C_21
REMARK   13  A    between atoms: C_22  and  C_23
REMARK   14  A    between atoms: C_22  and  N_29
REMARK   15  A    between atoms: C_23  and  C_24
REMARK   16  A    between atoms: C_24  and  C_25
REMARK   17  A    between atoms: N_29  and  O_30
REMARK                            x       y       z     vdW  Elec       q    Type
REMARK                         _______ _______ _______ _____ _____    ______ ____
ROOT
ATOM      1  C   UNL     1      -1.082  12.077  18.995  0.00  0.00    +0.000 C 
ATOM      2  O   UNL     1      -0.549  12.852  18.203  0.00  0.00    +0.000 OA
ATOM      3  N   UNL     1      -1.759  12.576  20.131  0.00  0.00    +0.000 N 
ATOM      4  H   UNL     1      -2.111  11.911  20.807  0.00  0.00    +0.000 HD
ENDROOT
BRANCH   1   5
ATOM      5  C   UNL     1      -0.953  10.469  18.807  0.00  0.00    +0.000 C 
BRANCH   5   6
ATOM      6  C   UNL     1      -1.435  10.051  17.392  0.00  0.00    +0.000 C 
BRANCH   6   8
ATOM      7  C   UNL     1      -2.959  10.454  15.336  0.00  0.00    +0.000 C 
ATOM      8  C   UNL     1      -2.710  10.719  16.822  0.00  0.00    +0.000 C 
ATOM      9  C   UNL     1      -3.933  10.236  17.613  0.00  0.00    +0.000 C 
ENDBRANCH   6   8
ENDBRANCH   5   6
BRANCH   5  10
ATOM     10  C   UNL     1       0.484   9.841  19.193  0.00  0.00    +0.000 C 
BRANCH  10  11
ATOM     11  N   UNL     1       1.406   9.803  18.060  0.00  0.00    +0.000 N 
ATOM     12  C   UNL     1       2.236   8.723  17.827  0.00  0.00    +0.000 C 
ATOM     13  O   UNL     1       2.176   7.629  18.368  0.00  0.00    +0.000 OA
BRANCH  11  14
ATOM     14  O   UNL     1       1.940  11.061  17.721  0.00  0.00    +0.000 OA
ATOM     15  H   UNL     1       2.817  11.020  18.135  0.00  0.00    +0.000 HD
ENDBRANCH  11  14
ENDBRANCH  10  11
BRANCH  10  16
ATOM     16  C   UNL     1       1.278  10.184  20.541  0.00  0.00    +0.000 C 
BRANCH  16  17
ATOM     17  C   UNL     1       1.144   9.428  21.903  0.00  0.00    +0.000 C 
BRANCH  17  18
ATOM     18  C   UNL     1      -0.226   9.325  22.550  0.00  0.00    +0.000 C 
ATOM     19  F   UNL     1      -0.926   8.258  22.120  0.00  0.00    +0.000 F 
ATOM     20  F   UNL     1      -0.115   9.224  23.899  0.00  0.00    +0.000 F 
ATOM     21  F   UNL     1      -0.963  10.435  22.311  0.00  0.00    +0.000 F 
ENDBRANCH  17  18
ENDBRANCH  16  17
ENDBRANCH  10  16
ENDBRANCH   5  10
ENDBRANCH   1   5
BRANCH   3  22
ATOM     22  C   UNL     1      -1.637  14.006  20.652  0.00  0.00    +0.000 C 
BRANCH  22  23
ATOM     23  C   UNL     1      -0.173  14.174  21.175  0.00  0.00    +0.000 C 
ATOM     24  O   UNL     1       0.288  13.341  21.972  0.00  0.00    +0.000 OA
ATOM     25  N   UNL     1       0.633  15.233  20.868  0.00  0.00    +0.000 N 
ATOM     26  C   UNL     1       0.488  16.092  19.819  0.00  0.00    +0.000 A 
ATOM     27  N   UNL     1      -0.503  16.202  18.978  0.00  0.00    +0.000 NA
ATOM     28  C   UNL     1      -0.184  17.132  18.008  0.00  0.00    +0.000 A 
ATOM     29  C   UNL     1       1.060  17.703  18.125  0.00  0.00    +0.000 A 
ATOM     30  S   UNL     1       1.828  17.118  19.547  0.00  0.00    +0.000 S 
ATOM     31  H   UNL     1       1.518  15.268  21.355  0.00  0.00    +0.000 HD
ENDBRANCH  22  23
BRANCH  22  32
ATOM     32  C   UNL     1      -2.652  14.504  21.792  0.00  0.00    +0.000 C 
ATOM     33  C   UNL     1      -2.886  13.383  22.849  0.00  0.00    +0.000 C 
ATOM     34  C   UNL     1      -2.075  15.700  22.568  0.00  0.00    +0.000 C 
ATOM     35  C   UNL     1      -4.060  14.909  21.293  0.00  0.00    +0.000 C 
ENDBRANCH  22  32
ENDBRANCH   3  22
TORSDOF 12
ENDMDL
MODEL 2
REMARK VINA RESULT:      -6.0      4.944      6.959
REMARK  Name = 
REMARK  17 active torsions:
REMARK  status: ('A' for Active; 'I' for Inactive)
REMARK    1  A    between atoms: C_1  and  C_2
REMARK    2  A    between atoms: C_2  and  C_3
REMARK    3  A    between atoms: C_2  and  C_4
REMARK    4  A    between atoms: C_4  and  C_5
REMARK    5  A    between atoms: C_5  and  C_6
REMARK    6  A    between atoms: C_5  and  C_22
REMARK    7  A    between atoms: N_8  and  C_9
REMARK    8  A    between atoms: C_9  and  C_10
REMARK    9  A    between atoms: C_9  and  C_18
REMARK   10  A    between atoms: C_18  and  C_19
REMARK   11  A    between atoms: C_18  and  C_20
REMARK   12  A    between atoms: C_18  and  C_21
REMARK   13  A    between atoms: C_22  and  C_23
REMARK   14  A    between atoms: C_22  and  N_29
REMARK   15  A    between atoms: C_23  and  C_24
REMARK   16  A    between atoms: C_24  and  C_25
REMARK   17  A    between atoms: N_29  and  O_30
REMARK                            x       y       z     vdW  Elec       q    Type
REMARK                         _______ _______ _______ _____ _____    ______ ____
ROOT
ATOM      1  C   UNL     1       2.410   8.220  18.050  0.00  0.00    +0.000 C 
ATOM      2  O   UNL     1       2.721   8.870  17.053  0.00  0.00    +0.000 OA
ATOM      3  N   UNL     1       1.457   8.729  18.961  0.00  0.00    +0.000 N 
ATOM      4  H   UNL     1       1.288   8.211  19.813  0.00  0.00    +0.000 HD
ENDROOT
BRANCH   1   5
ATOM      5  C   UNL     1       3.142   6.811  18.391  0.00  0.00    +0.000 C 
BRANCH   5   6
ATOM      6  C   UNL     1       2.119   5.645  18.337  0.00  0.00    +0.000 C 
BRANCH   6   8
ATOM      7  C   UNL     1       1.211   4.277  20.341  0.00  0.00    +0.000 C 
ATOM      8  C   UNL     1       2.318   4.448  19.299  0.00  0.00    +0.000 C 
ATOM      9  C   UNL     1       2.421   3.152  18.484  0.00  0.00    +0.000 C 
ENDBRANCH   6   8
ENDBRANCH   5   6
BRANCH   5  10
ATOM     10  C   UNL     1       4.486   6.508  17.548  0.00  0.00    +0.000 C 
BRANCH  10  11
ATOM     11  N   UNL     1       5.678   6.446  18.390  0.00  0.00    +0.000 N 
ATOM     12  C   UNL     1       6.890   6.973  17.985  0.00  0.00    +0.000 C 
ATOM     13  O   UNL     1       7.080   7.704  17.024  0.00  0.00    +0.000 OA
BRANCH  11  14
ATOM     14  O   UNL     1       5.758   5.281  19.176  0.00  0.00    +0.000 OA
ATOM     15  H   UNL     1       5.458   4.601  18.551  0.00  0.00    +0.000 HD
ENDBRANCH  11  14
ENDBRANCH  10  11
BRANCH  10  16
ATOM     16  C   UNL     1       4.582   5.421  16.375  0.00  0.00    +0.000 C 
BRANCH  16  17
ATOM     17  C   UNL     1       5.419   5.560  15.062  0.00  0.00    +0.000 C 
BRANCH  17  18
ATOM     18  C   UNL     1       6.557   4.585  14.815  0.00  0.00    +0.000 C 
ATOM     19  F   UNL     1       7.277   4.892  13.720  0.00  0.00    +0.000 F 
ATOM     20  F   UNL     1       7.408   4.562  15.871  0.00  0.00    +0.000 F 
ATOM     21  F   UNL     1       6.095   3.320  14.672  0.00  0.00    +0.000 F 
ENDBRANCH  17  18
ENDBRANCH  16  17
ENDBRANCH  10  16
ENDBRANCH   5  10
ENDBRANCH   1   5
BRANCH   3  22
ATOM     22  C   UNL     1       0.978  10.178  18.993  0.00  0.00    +0.000 C 
BRANCH  22  23
ATOM     23  C   UNL     1       1.198  10.694  20.453  0.00  0.00    +0.000 C 
ATOM     24  O   UNL     1       0.958   9.938  21.409  0.00  0.00    +0.000 OA
ATOM     25  N   UNL     1       1.576  11.968  20.766  0.00  0.00    +0.000 N 
ATOM     26  C   UNL     1       2.173  12.870  19.935  0.00  0.00    +0.000 A 
ATOM     27  N   UNL     1       2.378  12.792  18.649  0.00  0.00    +0.000 NA
ATOM     28  C   UNL     1       3.114  13.884  18.233  0.00  0.00    +0.000 A 
ATOM     29  C   UNL     1       3.468  14.769  19.221  0.00  0.00    +0.000 A 
ATOM     30  S   UNL     1       2.786  14.262  20.715  0.00  0.00    +0.000 S 
ATOM     31  H   UNL     1       1.582  12.197  21.751  0.00  0.00    +0.000 HD
ENDBRANCH  22  23
BRANCH  22  32
ATOM     32  C   UNL     1      -0.530  10.506  18.552  0.00  0.00    +0.000 C 
ATOM     33  C   UNL     1      -0.957   9.616  17.345  0.00  0.00    +0.000 C 
ATOM     34  C   UNL     1      -1.523  10.184  19.682  0.00  0.00    +0.000 C 
ATOM     35  C   UNL     1      -0.787  11.965  18.107  0.00  0.00    +0.000 C 
ENDBRANCH  22  32
ENDBRANCH   3  22
TORSDOF 12
ENDMDL
MODEL 3
REMARK VINA RESULT:      -5.9      6.802      9.896
REMARK  Name = 
REMARK  17 active torsions:
REMARK  status: ('A' for Active; 'I' for Inactive)
REMARK    1  A    between atoms: C_1  and  C_2
REMARK    2  A    between atoms: C_2  and  C_3
REMARK    3  A    between atoms: C_2  and  C_4
REMARK    4  A    between atoms: C_4  and  C_5
REMARK    5  A    between atoms: C_5  and  C_6
REMARK    6  A    between atoms: C_5  and  C_22
REMARK    7  A    between atoms: N_8  and  C_9
REMARK    8  A    between atoms: C_9  and  C_10
REMARK    9  A    between atoms: C_9  and  C_18
REMARK   10  A    between atoms: C_18  and  C_19
REMARK   11  A    between atoms: C_18  and  C_20
REMARK   12  A    between atoms: C_18  and  C_21
REMARK   13  A    between atoms: C_22  and  C_23
REMARK   14  A    between atoms: C_22  and  N_29
REMARK   15  A    between atoms: C_23  and  C_24
REMARK   16  A    between atoms: C_24  and  C_25
REMARK   17  A    between atoms: N_29  and  O_30
REMARK                            x       y       z     vdW  Elec       q    Type
REMARK                         _______ _______ _______ _____ _____    ______ ____
ROOT
ATOM      1  C   UNL     1       4.281   4.388  17.320  0.00  0.00    +0.000 C 
ATOM      2  O   UNL     1       3.485   3.995  16.469  0.00  0.00    +0.000 OA
ATOM      3  N   UNL     1       3.901   4.438  18.680  0.00  0.00    +0.000 N 
ATOM      4  H   UNL     1       4.548   4.846  19.341  0.00  0.00    +0.000 HD
ENDROOT
BRANCH   1   5
ATOM      5  C   UNL     1       5.751   4.934  16.899  0.00  0.00    +0.000 C 
BRANCH   5   6
ATOM      6  C   UNL     1       5.757   5.378  15.411  0.00  0.00    +0.000 C 
BRANCH   6   8
ATOM      7  C   UNL     1       5.486   3.880  13.315  0.00  0.00    +0.000 C 
ATOM      8  C   UNL     1       6.434   4.453  14.371  0.00  0.00    +0.000 C 
ATOM      9  C   UNL     1       7.549   5.224  13.654  0.00  0.00    +0.000 C 
ENDBRANCH   6   8
ENDBRANCH   5   6
BRANCH   5  10
ATOM     10  C   UNL     1       6.387   6.042  17.888  0.00  0.00    +0.000 C 
BRANCH  10  11
ATOM     11  N   UNL     1       7.119   5.448  19.004  0.00  0.00    +0.000 N 
ATOM     12  C   UNL     1       8.092   4.486  18.814  0.00  0.00    +0.000 C 
ATOM     13  O   UNL     1       8.600   4.166  17.748  0.00  0.00    +0.000 OA
BRANCH  11  14
ATOM     14  O   UNL     1       6.351   5.307  20.176  0.00  0.00    +0.000 OA
ATOM     15  H   UNL     1       6.518   6.152  20.623  0.00  0.00    +0.000 HD
ENDBRANCH  11  14
ENDBRANCH  10  11
BRANCH  10  16
ATOM     16  C   UNL     1       7.129   7.370  17.386  0.00  0.00    +0.000 C 
BRANCH  16  17
ATOM     17  C   UNL     1       8.365   8.043  18.067  0.00  0.00    +0.000 C 
BRANCH  17  18
ATOM     18  C   UNL     1       8.440   9.559  18.111  0.00  0.00    +0.000 C 
ATOM     19  F   UNL     1       9.422  10.054  17.335  0.00  0.00    +0.000 F 
ATOM     20  F   UNL     1       7.272  10.110  17.694  0.00  0.00    +0.000 F 
ATOM     21  F   UNL     1       8.640  10.002  19.375  0.00  0.00    +0.000 F 
ENDBRANCH  17  18
ENDBRANCH  16  17
ENDBRANCH  10  16
ENDBRANCH   5  10
ENDBRANCH   1   5
BRANCH   3  22
ATOM     22  C   UNL     1       2.462   4.335  19.181  0.00  0.00    +0.000 C 
BRANCH  22  23
ATOM     23  C   UNL     1       2.386   5.159  20.508  0.00  0.00    +0.000 C 
ATOM     24  O   UNL     1       2.650   4.603  21.586  0.00  0.00    +0.000 OA
ATOM     25  N   UNL     1       1.972   6.459  20.579  0.00  0.00    +0.000 N 
ATOM     26  C   UNL     1       1.920   7.356  19.554  0.00  0.00    +0.000 A 
ATOM     27  N   UNL     1       2.098   7.156  18.277  0.00  0.00    +0.000 NA
ATOM     28  C   UNL     1       2.061   8.366  17.612  0.00  0.00    +0.000 A 
ATOM     29  C   UNL     1       1.869   9.470  18.405  0.00  0.00    +0.000 A 
ATOM     30  S   UNL     1       1.644   8.973  20.035  0.00  0.00    +0.000 S 
ATOM     31  H   UNL     1       1.873   6.839  21.511  0.00  0.00    +0.000 HD
ENDBRANCH  22  23
BRANCH  22  32
ATOM     32  C   UNL     1       1.835   2.881  19.440  0.00  0.00    +0.000 C 
ATOM     33  C   UNL     1       2.901   1.769  19.198  0.00  0.00    +0.000 C 
ATOM     34  C   UNL     1       1.386   2.720  20.902  0.00  0.00    +0.000 C 
ATOM     35  C   UNL     1       0.632   2.509  18.540  0.00  0.00    +0.000 C 
ENDBRANCH  22  32
ENDBRANCH   3  22
TORSDOF 12
ENDMDL
MODEL 4
REMARK VINA RESULT:      -5.8      4.761      6.791
REMARK  Name = 
REMARK  17 active torsions:
REMARK  status: ('A' for Active; 'I' for Inactive)
REMARK    1  A    between atoms: C_1  and  C_2
REMARK    2  A    between atoms: C_2  and  C_3
REMARK    3  A    between atoms: C_2  and  C_4
REMARK    4  A    between atoms: C_4  and  C_5
REMARK    5  A    between atoms: C_5  and  C_6
REMARK    6  A    between atoms: C_5  and  C_22
REMARK    7  A    between atoms: N_8  and  C_9
REMARK    8  A    between atoms: C_9  and  C_10
REMARK    9  A    between atoms: C_9  and  C_18
REMARK   10  A    between atoms: C_18  and  C_19
REMARK   11  A    between atoms: C_18  and  C_20
REMARK   12  A    between atoms: C_18  and  C_21
REMARK   13  A    between atoms: C_22  and  C_23
REMARK   14  A    between atoms: C_22  and  N_29
REMARK   15  A    between atoms: C_23  and  C_24
REMARK   16  A    between atoms: C_24  and  C_25
REMARK   17  A    between atoms: N_29  and  O_30
REMARK                            x       y       z     vdW  Elec       q    Type
REMARK                         _______ _______ _______ _____ _____    ______ ____
ROOT
ATOM      1  C   UNL     1       2.292   8.152  18.323  0.00  0.00    +0.000 C 
ATOM      2  O   UNL     1       2.711   8.741  17.328  0.00  0.00    +0.000 OA
ATOM      3  N   UNL     1       1.297   8.745  19.132  0.00  0.00    +0.000 N 
ATOM      4  H   UNL     1       1.036   8.274  19.989  0.00  0.00    +0.000 HD
ENDROOT
BRANCH   1   5
ATOM      5  C   UNL     1       2.924   6.728  18.778  0.00  0.00    +0.000 C 
BRANCH   5   6
ATOM      6  C   UNL     1       1.796   5.687  19.012  0.00  0.00    +0.000 C 
BRANCH   6   8
ATOM      7  C   UNL     1       2.234   4.461  21.252  0.00  0.00    +0.000 C 
ATOM      8  C   UNL     1       2.157   4.362  19.727  0.00  0.00    +0.000 C 
ATOM      9  C   UNL     1       1.121   3.290  19.363  0.00  0.00    +0.000 C 
ENDBRANCH   6   8
ENDBRANCH   5   6
BRANCH   5  10
ATOM     10  C   UNL     1       4.113   6.166  17.840  0.00  0.00    +0.000 C 
BRANCH  10  11
ATOM     11  N   UNL     1       5.413   6.179  18.507  0.00  0.00    +0.000 N 
ATOM     12  C   UNL     1       6.534   6.730  17.917  0.00  0.00    +0.000 C 
ATOM     13  O   UNL     1       6.559   7.428  16.913  0.00  0.00    +0.000 OA
BRANCH  11  14
ATOM     14  O   UNL     1       5.647   5.051  19.316  0.00  0.00    +0.000 OA
ATOM     15  H   UNL     1       6.617   5.029  19.345  0.00  0.00    +0.000 HD
ENDBRANCH  11  14
ENDBRANCH  10  11
BRANCH  10  16
ATOM     16  C   UNL     1       3.983   4.868  16.910  0.00  0.00    +0.000 C 
BRANCH  16  17
ATOM     17  C   UNL     1       5.151   4.173  16.136  0.00  0.00    +0.000 C 
BRANCH  17  18
ATOM     18  C   UNL     1       5.646   4.799  14.845  0.00  0.00    +0.000 C 
ATOM     19  F   UNL     1       5.313   4.081  13.757  0.00  0.00    +0.000 F 
ATOM     20  F   UNL     1       5.131   6.045  14.686  0.00  0.00    +0.000 F 
ATOM     21  F   UNL     1       6.993   4.944  14.857  0.00  0.00    +0.000 F 
ENDBRANCH  17  18
ENDBRANCH  16  17
ENDBRANCH  10  16
ENDBRANCH   5  10
ENDBRANCH   1   5
BRANCH   3  22
ATOM     22  C   UNL     1       0.890  10.215  19.067  0.00  0.00    +0.000 C 
BRANCH  22  23
ATOM     23  C   UNL     1       1.095  10.805  20.500  0.00  0.00    +0.000 C 
ATOM     24  O   UNL     1       0.784  10.123  21.490  0.00  0.00    +0.000 OA
ATOM     25  N   UNL     1       1.536  12.073  20.750  0.00  0.00    +0.000 N 
ATOM     26  C   UNL     1       2.207  12.888  19.888  0.00  0.00    +0.000 A 
ATOM     27  N   UNL     1       2.446  12.721  18.616  0.00  0.00    +0.000 NA
ATOM     28  C   UNL     1       3.254  13.745  18.160  0.00  0.00    +0.000 A 
ATOM     29  C   UNL     1       3.629  14.667  19.107  0.00  0.00    +0.000 A 
ATOM     30  S   UNL     1       2.876  14.289  20.605  0.00  0.00    +0.000 S 
ATOM     31  H   UNL     1       1.526  12.360  21.720  0.00  0.00    +0.000 HD
ENDBRANCH  22  23
BRANCH  22  32
ATOM     32  C   UNL     1      -0.588  10.587  18.563  0.00  0.00    +0.000 C 
ATOM     33  C   UNL     1      -0.628  12.038  17.994  0.00  0.00    +0.000 C 
ATOM     34  C   UNL     1      -1.031   9.672  17.409  0.00  0.00    +0.000 C 
ATOM     35  C   UNL     1      -1.690  10.534  19.648  0.00  0.00    +0.000 C 
ENDBRANCH  22  32
ENDBRANCH   3  22
TORSDOF 12
ENDMDL
MODEL 5
REMARK VINA RESULT:      -5.8      4.925      6.911
REMARK  Name = 
REMARK  17 active torsions:
REMARK  status: ('A' for Active; 'I' for Inactive)
REMARK    1  A    between atoms: C_1  and  C_2
REMARK    2  A    between atoms: C_2  and  C_3
REMARK    3  A    between atoms: C_2  and  C_4
REMARK    4  A    between atoms: C_4  and  C_5
REMARK    5  A    between atoms: C_5  and  C_6
REMARK    6  A    between atoms: C_5  and  C_22
REMARK    7  A    between atoms: N_8  and  C_9
REMARK    8  A    between atoms: C_9  and  C_10
REMARK    9  A    between atoms: C_9  and  C_18
REMARK   10  A    between atoms: C_18  and  C_19
REMARK   11  A    between atoms: C_18  and  C_20
REMARK   12  A    between atoms: C_18  and  C_21
REMARK   13  A    between atoms: C_22  and  C_23
REMARK   14  A    between atoms: C_22  and  N_29
REMARK   15  A    between atoms: C_23  and  C_24
REMARK   16  A    between atoms: C_24  and  C_25
REMARK   17  A    between atoms: N_29  and  O_30
REMARK                            x       y       z     vdW  Elec       q    Type
REMARK                         _______ _______ _______ _____ _____    ______ ____
ROOT
ATOM      1  C   UNL     1       2.404   8.255  18.067  0.00  0.00    +0.000 C 
ATOM      2  O   UNL     1       2.800   8.936  17.122  0.00  0.00    +0.000 OA
ATOM      3  N   UNL     1       1.404   8.755  18.932  0.00  0.00    +0.000 N 
ATOM      4  H   UNL     1       1.162   8.208  19.747  0.00  0.00    +0.000 HD
ENDROOT
BRANCH   1   5
ATOM      5  C   UNL     1       3.071   6.812  18.394  0.00  0.00    +0.000 C 
BRANCH   5   6
ATOM      6  C   UNL     1       1.998   5.692  18.322  0.00  0.00    +0.000 C 
BRANCH   6   8
ATOM      7  C   UNL     1       1.234   4.506  20.495  0.00  0.00    +0.000 C 
ATOM      8  C   UNL     1       2.144   4.473  19.265  0.00  0.00    +0.000 C 
ATOM      9  C   UNL     1       1.852   3.187  18.482  0.00  0.00    +0.000 C 
ENDBRANCH   6   8
ENDBRANCH   5   6
BRANCH   5  10
ATOM     10  C   UNL     1       4.405   6.459  17.555  0.00  0.00    +0.000 C 
BRANCH  10  11
ATOM     11  N   UNL     1       5.584   6.309  18.405  0.00  0.00    +0.000 N 
ATOM     12  C   UNL     1       6.823   6.790  18.030  0.00  0.00    +0.000 C 
ATOM     13  O   UNL     1       7.059   7.545  17.098  0.00  0.00    +0.000 OA
BRANCH  11  14
ATOM     14  O   UNL     1       5.598   5.114  19.149  0.00  0.00    +0.000 OA
ATOM     15  H   UNL     1       6.550   4.936  19.215  0.00  0.00    +0.000 HD
ENDBRANCH  11  14
ENDBRANCH  10  11
BRANCH  10  16
ATOM     16  C   UNL     1       4.453   5.402  16.352  0.00  0.00    +0.000 C 
BRANCH  16  17
ATOM     17  C   UNL     1       5.370   5.490  15.089  0.00  0.00    +0.000 C 
BRANCH  17  18
ATOM     18  C   UNL     1       6.360   4.369  14.825  0.00  0.00    +0.000 C 
ATOM     19  F   UNL     1       5.967   3.194  15.349  0.00  0.00    +0.000 F 
ATOM     20  F   UNL     1       6.533   4.185  13.491  0.00  0.00    +0.000 F 
ATOM     21  F   UNL     1       7.581   4.667  15.328  0.00  0.00    +0.000 F 
ENDBRANCH  17  18
ENDBRANCH  16  17
ENDBRANCH  10  16
ENDBRANCH   5  10
ENDBRANCH   1   5
BRANCH   3  22
ATOM     22  C   UNL     1       0.965  10.216  18.994  0.00  0.00    +0.000 C 
BRANCH  22  23
ATOM     23  C   UNL     1       1.128  10.673  20.481  0.00  0.00    +0.000 C 
ATOM     24  O   UNL     1       0.847   9.882  21.396  0.00  0.00    +0.000 OA
ATOM     25  N   UNL     1       1.498  11.932  20.858  0.00  0.00    +0.000 N 
ATOM     26  C   UNL     1       2.131  12.862  20.087  0.00  0.00    +0.000 A 
ATOM     27  N   UNL     1       2.387  12.833  18.809  0.00  0.00    +0.000 NA
ATOM     28  C   UNL     1       3.143  13.937  18.464  0.00  0.00    +0.000 A 
ATOM     29  C   UNL     1       3.460  14.781  19.500  0.00  0.00    +0.000 A 
ATOM     30  S   UNL     1       2.718  14.220  20.945  0.00  0.00    +0.000 S 
ATOM     31  H   UNL     1       1.466  12.122  21.851  0.00  0.00    +0.000 HD
ENDBRANCH  22  23
BRANCH  22  32
ATOM     32  C   UNL     1      -0.511  10.603  18.495  0.00  0.00    +0.000 C 
ATOM     33  C   UNL     1      -1.500  10.669  19.698  0.00  0.00    +0.000 C 
ATOM     34  C   UNL     1      -0.534  12.001  17.855  0.00  0.00    +0.000 C 
ATOM     35  C   UNL     1      -1.147   9.618  17.485  0.00  0.00    +0.000 C 
ENDBRANCH  22  32
ENDBRANCH   3  22
TORSDOF 12
ENDMDL
MODEL 6
REMARK VINA RESULT:      -5.7      8.247     11.740
REMARK  Name = 
REMARK  17 active torsions:
REMARK  status: ('A' for Active; 'I' for Inactive)
REMARK    1  A    between atoms: C_1  and  C_2
REMARK    2  A    between atoms: C_2  and  C_3
REMARK    3  A    between atoms: C_2  and  C_4
REMARK    4  A    between atoms: C_4  and  C_5
REMARK    5  A    between atoms: C_5  and  C_6
REMARK    6  A    between atoms: C_5  and  C_22
REMARK    7  A    between atoms: N_8  and  C_9
REMARK    8  A    between atoms: C_9  and  C_10
REMARK    9  A    between atoms: C_9  and  C_18
REMARK   10  A    between atoms: C_18  and  C_19
REMARK   11  A    between atoms: C_18  and  C_20
REMARK   12  A    between atoms: C_18  and  C_21
REMARK   13  A    between atoms: C_22  and  C_23
REMARK   14  A    between atoms: C_22  and  N_29
REMARK   15  A    between atoms: C_23  and  C_24
REMARK   16  A    between atoms: C_24  and  C_25
REMARK   17  A    between atoms: N_29  and  O_30
REMARK                            x       y       z     vdW  Elec       q    Type
REMARK                         _______ _______ _______ _____ _____    ______ ____
ROOT
ATOM      1  C   UNL     1       4.757   5.167  18.865  0.00  0.00    +0.000 C 
ATOM      2  O   UNL     1       5.544   5.096  19.807  0.00  0.00    +0.000 OA
ATOM      3  N   UNL     1       3.649   4.293  18.798  0.00  0.00    +0.000 N 
ATOM      4  H   UNL     1       3.071   4.319  17.969  0.00  0.00    +0.000 HD
ENDROOT
BRANCH   1   5
ATOM      5  C   UNL     1       5.013   6.200  17.639  0.00  0.00    +0.000 C 
BRANCH   5   6
ATOM      6  C   UNL     1       4.319   7.559  17.924  0.00  0.00    +0.000 C 
BRANCH   6   8
ATOM      7  C   UNL     1       2.325   7.411  19.572  0.00  0.00    +0.000 C 
ATOM      8  C   UNL     1       2.783   7.573  18.121  0.00  0.00    +0.000 C 
ATOM      9  C   UNL     1       2.213   8.889  17.577  0.00  0.00    +0.000 C 
ENDBRANCH   6   8
ENDBRANCH   5   6
BRANCH   5  10
ATOM     10  C   UNL     1       6.553   6.364  17.182  0.00  0.00    +0.000 C 
BRANCH  10  11
ATOM     11  N   UNL     1       7.405   6.888  18.248  0.00  0.00    +0.000 N 
ATOM     12  C   UNL     1       8.079   8.088  18.123  0.00  0.00    +0.000 C 
ATOM     13  O   UNL     1       7.910   8.932  17.255  0.00  0.00    +0.000 OA
BRANCH  11  14
ATOM     14  O   UNL     1       8.075   5.891  18.982  0.00  0.00    +0.000 OA
ATOM     15  H   UNL     1       7.376   5.226  19.091  0.00  0.00    +0.000 HD
ENDBRANCH  11  14
ENDBRANCH  10  11
BRANCH  10  16
ATOM     16  C   UNL     1       7.353   5.276  16.321  0.00  0.00    +0.000 C 
BRANCH  16  17
ATOM     17  C   UNL     1       6.730   4.031  15.609  0.00  0.00    +0.000 C 
BRANCH  17  18
ATOM     18  C   UNL     1       5.565   4.241  14.658  0.00  0.00    +0.000 C 
ATOM     19  F   UNL     1       5.686   3.532  13.521  0.00  0.00    +0.000 F 
ATOM     20  F   UNL     1       4.395   3.878  15.244  0.00  0.00    +0.000 F 
ATOM     21  F   UNL     1       5.434   5.548  14.327  0.00  0.00    +0.000 F 
ENDBRANCH  17  18
ENDBRANCH  16  17
ENDBRANCH  10  16
ENDBRANCH   5  10
ENDBRANCH   1   5
BRANCH   3  22
ATOM     22  C   UNL     1       3.488   3.032  19.645  0.00  0.00    +0.000 C 
BRANCH  22  23
ATOM     23  C   UNL     1       3.889   1.824  18.737  0.00  0.00    +0.000 C 
ATOM     24  O   UNL     1       3.614   1.854  17.526  0.00  0.00    +0.000 OA
ATOM     25  N   UNL     1       4.471   0.678  19.199  0.00  0.00    +0.000 N 
ATOM     26  C   UNL     1       5.128   0.518  20.383  0.00  0.00    +0.000 A 
ATOM     27  N   UNL     1       5.223   1.343  21.389  0.00  0.00    +0.000 NA
ATOM     28  C   UNL     1       6.077   0.816  22.339  0.00  0.00    +0.000 A 
ATOM     29  C   UNL     1       6.628  -0.402  22.025  0.00  0.00    +0.000 A 
ATOM     30  S   UNL     1       5.994  -0.949  20.525  0.00  0.00    +0.000 S 
ATOM     31  H   UNL     1       4.584  -0.063  18.522  0.00  0.00    +0.000 HD
ENDBRANCH  22  23
BRANCH  22  32
ATOM     32  C   UNL     1       2.061   2.725  20.312  0.00  0.00    +0.000 C 
ATOM     33  C   UNL     1       1.199   4.022  20.393  0.00  0.00    +0.000 C 
ATOM     34  C   UNL     1       1.249   1.735  19.460  0.00  0.00    +0.000 C 
ATOM     35  C   UNL     1       2.111   2.166  21.754  0.00  0.00    +0.000 C 
ENDBRANCH  22  32
ENDBRANCH   3  22
TORSDOF 12
ENDMDL
MODEL 7
REMARK VINA RESULT:      -5.7      4.932      6.986
REMARK  Name = 
REMARK  17 active torsions:
REMARK  status: ('A' for Active; 'I' for Inactive)
REMARK    1  A    between atoms: C_1  and  C_2
REMARK    2  A    between atoms: C_2  and  C_3
REMARK    3  A    between atoms: C_2  and  C_4
REMARK    4  A    between atoms: C_4  and  C_5
REMARK    5  A    between atoms: C_5  and  C_6
REMARK    6  A    between atoms: C_5  and  C_22
REMARK    7  A    between atoms: N_8  and  C_9
REMARK    8  A    between atoms: C_9  and  C_10
REMARK    9  A    between atoms: C_9  and  C_18
REMARK   10  A    between atoms: C_18  and  C_19
REMARK   11  A    between atoms: C_18  and  C_20
REMARK   12  A    between atoms: C_18  and  C_21
REMARK   13  A    between atoms: C_22  and  C_23
REMARK   14  A    between atoms: C_22  and  N_29
REMARK   15  A    between atoms: C_23  and  C_24
REMARK   16  A    between atoms: C_24  and  C_25
REMARK   17  A    between atoms: N_29  and  O_30
REMARK                            x       y       z     vdW  Elec       q    Type
REMARK                         _______ _______ _______ _____ _____    ______ ____
ROOT
ATOM      1  C   UNL     1       2.358   7.941  18.311  0.00  0.00    +0.000 C 
ATOM      2  O   UNL     1       2.834   8.563  17.363  0.00  0.00    +0.000 OA
ATOM      3  N   UNL     1       1.328   8.515  19.091  0.00  0.00    +0.000 N 
ATOM      4  H   UNL     1       1.018   8.015  19.914  0.00  0.00    +0.000 HD
ENDROOT
BRANCH   1   5
ATOM      5  C   UNL     1       2.950   6.492  18.742  0.00  0.00    +0.000 C 
BRANCH   5   6
ATOM      6  C   UNL     1       1.851   5.402  18.623  0.00  0.00    +0.000 C 
BRANCH   6   8
ATOM      7  C   UNL     1       1.087   3.250  19.845  0.00  0.00    +0.000 C 
ATOM      8  C   UNL     1       1.307   4.762  19.923  0.00  0.00    +0.000 C 
ATOM      9  C   UNL     1       2.276   5.051  21.076  0.00  0.00    +0.000 C 
ENDBRANCH   6   8
ENDBRANCH   5   6
BRANCH   5  10
ATOM     10  C   UNL     1       4.335   6.070  18.027  0.00  0.00    +0.000 C 
BRANCH  10  11
ATOM     11  N   UNL     1       5.289   5.468  18.955  0.00  0.00    +0.000 N 
ATOM     12  C   UNL     1       6.638   5.763  18.912  0.00  0.00    +0.000 C 
ATOM     13  O   UNL     1       7.166   6.665  18.277  0.00  0.00    +0.000 OA
BRANCH  11  14
ATOM     14  O   UNL     1       4.970   4.147  19.321  0.00  0.00    +0.000 OA
ATOM     15  H   UNL     1       5.326   4.102  20.223  0.00  0.00    +0.000 HD
ENDBRANCH  11  14
ENDBRANCH  10  11
BRANCH  10  16
ATOM     16  C   UNL     1       4.422   5.346  16.600  0.00  0.00    +0.000 C 
BRANCH  16  17
ATOM     17  C   UNL     1       5.391   5.729  15.434  0.00  0.00    +0.000 C 
BRANCH  17  18
ATOM     18  C   UNL     1       6.109   4.619  14.687  0.00  0.00    +0.000 C 
ATOM     19  F   UNL     1       6.353   3.545  15.459  0.00  0.00    +0.000 F 
ATOM     20  F   UNL     1       5.372   4.201  13.626  0.00  0.00    +0.000 F 
ATOM     21  F   UNL     1       7.288   5.053  14.183  0.00  0.00    +0.000 F 
ENDBRANCH  17  18
ENDBRANCH  16  17
ENDBRANCH  10  16
ENDBRANCH   5  10
ENDBRANCH   1   5
BRANCH   3  22
ATOM     22  C   UNL     1       0.940   9.991  19.062  0.00  0.00    +0.000 C 
BRANCH  22  23
ATOM     23  C   UNL     1       1.106  10.531  20.520  0.00  0.00    +0.000 C 
ATOM     24  O   UNL     1       0.830   9.791  21.478  0.00  0.00    +0.000 OA
ATOM     25  N   UNL     1       1.474  11.810  20.826  0.00  0.00    +0.000 N 
ATOM     26  C   UNL     1       2.103  12.697  20.003  0.00  0.00    +0.000 A 
ATOM     27  N   UNL     1       2.356  12.597  18.727  0.00  0.00    +0.000 NA
ATOM     28  C   UNL     1       3.108  13.682  18.320  0.00  0.00    +0.000 A 
ATOM     29  C   UNL     1       3.427  14.582  19.307  0.00  0.00    +0.000 A 
ATOM     30  S   UNL     1       2.690  14.101  20.783  0.00  0.00    +0.000 S 
ATOM     31  H   UNL     1       1.444  12.054  21.807  0.00  0.00    +0.000 HD
ENDBRANCH  22  23
BRANCH  22  32
ATOM     32  C   UNL     1      -0.516  10.399  18.524  0.00  0.00    +0.000 C 
ATOM     33  C   UNL     1      -0.525  11.875  18.022  0.00  0.00    +0.000 C 
ATOM     34  C   UNL     1      -0.923   9.542  17.313  0.00  0.00    +0.000 C 
ATOM     35  C   UNL     1      -1.657  10.305  19.565  0.00  0.00    +0.000 C 
ENDBRANCH  22  32
ENDBRANCH   3  22
TORSDOF 12
ENDMDL
MODEL 8
REMARK VINA RESULT:      -5.7      5.281      7.857
REMARK  Name = 
REMARK  17 active torsions:
REMARK  status: ('A' for Active; 'I' for Inactive)
REMARK    1  A    between atoms: C_1  and  C_2
REMARK    2  A    between atoms: C_2  and  C_3
REMARK    3  A    between atoms: C_2  and  C_4
REMARK    4  A    between atoms: C_4  and  C_5
REMARK    5  A    between atoms: C_5  and  C_6
REMARK    6  A    between atoms: C_5  and  C_22
REMARK    7  A    between atoms: N_8  and  C_9
REMARK    8  A    between atoms: C_9  and  C_10
REMARK    9  A    between atoms: C_9  and  C_18
REMARK   10  A    between atoms: C_18  and  C_19
REMARK   11  A    between atoms: C_18  and  C_20
REMARK   12  A    between atoms: C_18  and  C_21
REMARK   13  A    between atoms: C_22  and  C_23
REMARK   14  A    between atoms: C_22  and  N_29
REMARK   15  A    between atoms: C_23  and  C_24
REMARK   16  A    between atoms: C_24  and  C_25
REMARK   17  A    between atoms: N_29  and  O_30
REMARK                            x       y       z     vdW  Elec       q    Type
REMARK                         _______ _______ _______ _____ _____    ______ ____
ROOT
ATOM      1  C   UNL     1       2.120   6.349  19.579  0.00  0.00    +0.000 C 
ATOM      2  O   UNL     1       1.430   6.043  20.550  0.00  0.00    +0.000 OA
ATOM      3  N   UNL     1       2.098   7.670  19.080  0.00  0.00    +0.000 N 
ATOM      4  H   UNL     1       2.609   7.868  18.230  0.00  0.00    +0.000 HD
ENDROOT
BRANCH   1   5
ATOM      5  C   UNL     1       3.004   5.233  18.798  0.00  0.00    +0.000 C 
BRANCH   5   6
ATOM      6  C   UNL     1       2.127   4.476  17.764  0.00  0.00    +0.000 C 
BRANCH   6   8
ATOM      7  C   UNL     1       3.213   2.162  18.183  0.00  0.00    +0.000 C 
ATOM      8  C   UNL     1       1.925   2.952  17.948  0.00  0.00    +0.000 C 
ATOM      9  C   UNL     1       0.982   2.705  19.133  0.00  0.00    +0.000 C 
ENDBRANCH   6   8
ENDBRANCH   5   6
BRANCH   5  10
ATOM     10  C   UNL     1       4.395   5.766  18.173  0.00  0.00    +0.000 C 
BRANCH  10  11
ATOM     11  N   UNL     1       5.555   5.393  18.979  0.00  0.00    +0.000 N 
ATOM     12  C   UNL     1       6.806   5.935  18.757  0.00  0.00    +0.000 C 
ATOM     13  O   UNL     1       7.068   6.894  18.045  0.00  0.00    +0.000 OA
BRANCH  11  14
ATOM     14  O   UNL     1       5.544   4.051  19.404  0.00  0.00    +0.000 OA
ATOM     15  H   UNL     1       5.812   3.587  18.595  0.00  0.00    +0.000 HD
ENDBRANCH  11  14
ENDBRANCH  10  11
BRANCH  10  16
ATOM     16  C   UNL     1       4.761   5.698  16.615  0.00  0.00    +0.000 C 
BRANCH  16  17
ATOM     17  C   UNL     1       5.148   4.409  15.818  0.00  0.00    +0.000 C 
BRANCH  17  18
ATOM     18  C   UNL     1       6.443   4.402  15.026  0.00  0.00    +0.000 C 
ATOM     19  F   UNL     1       6.582   5.489  14.245  0.00  0.00    +0.000 F 
ATOM     20  F   UNL     1       7.515   4.356  15.857  0.00  0.00    +0.000 F 
ATOM     21  F   UNL     1       6.528   3.304  14.237  0.00  0.00    +0.000 F 
ENDBRANCH  17  18
ENDBRANCH  16  17
ENDBRANCH  10  16
ENDBRANCH   5  10
ENDBRANCH   1   5
BRANCH   3  22
ATOM     22  C   UNL     1       1.048   8.717  19.446  0.00  0.00    +0.000 C 
BRANCH  22  23
ATOM     23  C   UNL     1       1.300   9.953  18.521  0.00  0.00    +0.000 C 
ATOM     24  O   UNL     1       2.465  10.258  18.216  0.00  0.00    +0.000 OA
ATOM     25  N   UNL     1       0.316  10.785  18.071  0.00  0.00    +0.000 N 
ATOM     26  C   UNL     1      -1.019  10.512  18.010  0.00  0.00    +0.000 A 
ATOM     27  N   UNL     1      -1.672   9.491  18.492  0.00  0.00    +0.000 NA
ATOM     28  C   UNL     1      -2.996   9.566  18.105  0.00  0.00    +0.000 A 
ATOM     29  C   UNL     1      -3.320  10.643  17.317  0.00  0.00    +0.000 A 
ATOM     30  S   UNL     1      -1.939  11.646  17.120  0.00  0.00    +0.000 S 
ATOM     31  H   UNL     1       0.628  11.603  17.566  0.00  0.00    +0.000 HD
ENDBRANCH  22  23
BRANCH  22  32
ATOM     32  C   UNL     1       0.955   9.221  20.967  0.00  0.00    +0.000 C 
ATOM     33  C   UNL     1       0.907  10.778  21.030  0.00  0.00    +0.000 C 
ATOM     34  C   UNL     1      -0.340   8.734  21.638  0.00  0.00    +0.000 C 
ATOM     35  C   UNL     1       2.136   8.803  21.876  0.00  0.00    +0.000 C 
ENDBRANCH  22  32
ENDBRANCH   3  22
TORSDOF 12
ENDMDL
MODEL 9
REMARK VINA RESULT:      -5.6      4.633      8.715
REMARK  Name = 
REMARK  17 active torsions:
REMARK  status: ('A' for Active; 'I' for Inactive)
REMARK    1  A    between atoms: C_1  and  C_2
REMARK    2  A    between atoms: C_2  and  C_3
REMARK    3  A    between atoms: C_2  and  C_4
REMARK    4  A    between atoms: C_4  and  C_5
REMARK    5  A    between atoms: C_5  and  C_6
REMARK    6  A    between atoms: C_5  and  C_22
REMARK    7  A    between atoms: N_8  and  C_9
REMARK    8  A    between atoms: C_9  and  C_10
REMARK    9  A    between atoms: C_9  and  C_18
REMARK   10  A    between atoms: C_18  and  C_19
REMARK   11  A    between atoms: C_18  and  C_20
REMARK   12  A    between atoms: C_18  and  C_21
REMARK   13  A    between atoms: C_22  and  C_23
REMARK   14  A    between atoms: C_22  and  N_29
REMARK   15  A    between atoms: C_23  and  C_24
REMARK   16  A    between atoms: C_24  and  C_25
REMARK   17  A    between atoms: N_29  and  O_30
REMARK                            x       y       z     vdW  Elec       q    Type
REMARK                         _______ _______ _______ _____ _____    ______ ____
ROOT
ATOM      1  C   UNL     1       2.076   7.604  19.697  0.00  0.00    +0.000 C 
ATOM      2  O   UNL     1       2.939   7.812  18.845  0.00  0.00    +0.000 OA
ATOM      3  N   UNL     1       1.989   6.342  20.327  0.00  0.00    +0.000 N 
ATOM      4  H   UNL     1       1.217   6.177  20.958  0.00  0.00    +0.000 HD
ENDROOT
BRANCH   1   5
ATOM      5  C   UNL     1       0.970   8.736  20.059  0.00  0.00    +0.000 C 
BRANCH   5   6
ATOM      6  C   UNL     1       1.343   9.451  21.386  0.00  0.00    +0.000 C 
BRANCH   6   8
ATOM      7  C   UNL     1      -0.390  10.726  22.829  0.00  0.00    +0.000 C 
ATOM      8  C   UNL     1       0.330   9.404  22.556  0.00  0.00    +0.000 C 
ATOM      9  C   UNL     1      -0.725   8.327  22.271  0.00  0.00    +0.000 C 
ENDBRANCH   6   8
ENDBRANCH   5   6
BRANCH   5  10
ATOM     10  C   UNL     1       0.619   9.767  18.866  0.00  0.00    +0.000 C 
BRANCH  10  11
ATOM     11  N   UNL     1      -0.757  10.253  18.927  0.00  0.00    +0.000 N 
ATOM     12  C   UNL     1      -1.606  10.188  17.839  0.00  0.00    +0.000 C 
ATOM     13  O   UNL     1      -1.415   9.567  16.803  0.00  0.00    +0.000 OA
BRANCH  11  14
ATOM     14  O   UNL     1      -0.927  11.375  19.761  0.00  0.00    +0.000 OA
ATOM     15  H   UNL     1      -0.225  11.239  20.417  0.00  0.00    +0.000 HD
ENDBRANCH  11  14
ENDBRANCH  10  11
BRANCH  10  16
ATOM     16  C   UNL     1       1.597  10.939  18.378  0.00  0.00    +0.000 C 
BRANCH  16  17
ATOM     17  C   UNL     1       1.935  12.242  19.173  0.00  0.00    +0.000 C 
BRANCH  17  18
ATOM     18  C   UNL     1       1.592  13.585  18.554  0.00  0.00    +0.000 C 
ATOM     19  F   UNL     1       2.479  13.967  17.616  0.00  0.00    +0.000 F 
ATOM     20  F   UNL     1       0.369  13.546  17.968  0.00  0.00    +0.000 F 
ATOM     21  F   UNL     1       1.531  14.556  19.495  0.00  0.00    +0.000 F 
ENDBRANCH  17  18
ENDBRANCH  16  17
ENDBRANCH  10  16
ENDBRANCH   5  10
ENDBRANCH   1   5
BRANCH   3  22
ATOM     22  C   UNL     1       2.685   5.077  19.830  0.00  0.00    +0.000 C 
BRANCH  22  23
ATOM     23  C   UNL     1       2.652   5.127  18.267  0.00  0.00    +0.000 C 
ATOM     24  O   UNL     1       1.558   5.206  17.684  0.00  0.00    +0.000 OA
ATOM     25  N   UNL     1       3.757   5.016  17.474  0.00  0.00    +0.000 N 
ATOM     26  C   UNL     1       5.053   5.218  17.847  0.00  0.00    +0.000 A 
ATOM     27  N   UNL     1       5.545   5.406  19.041  0.00  0.00    +0.000 NA
ATOM     28  C   UNL     1       6.896   5.677  18.946  0.00  0.00    +0.000 A 
ATOM     29  C   UNL     1       7.404   5.704  17.670  0.00  0.00    +0.000 A 
ATOM     30  S   UNL     1       6.165   5.294  16.551  0.00  0.00    +0.000 S 
ATOM     31  H   UNL     1       3.583   4.961  16.479  0.00  0.00    +0.000 HD
ENDBRANCH  22  23
BRANCH  22  32
ATOM     32  C   UNL     1       2.132   3.649  20.312  0.00  0.00    +0.000 C 
ATOM     33  C   UNL     1       2.962   2.493  19.675  0.00  0.00    +0.000 C 
ATOM     34  C   UNL     1       2.279   3.480  21.834  0.00  0.00    +0.000 C 
ATOM     35  C   UNL     1       0.657   3.354  19.951  0.00  0.00    +0.000 C 
ENDBRANCH  22  32
ENDBRANCH   3  22
TORSDOF 12
ENDMDL
