MODEL 1
REMARK VINA RESULT:      -7.9      0.000      0.000
REMARK  Name = 
REMARK  9 active torsions:
REMARK  status: ('A' for Active; 'I' for Inactive)
REMARK    1  A    between atoms: C_1  and  C_2
REMARK    2  A    between atoms: C_2  and  C_3
REMARK    3  A    between atoms: C_2  and  C_4
REMARK    4  A    between atoms: C_2  and  C_5
REMARK    5  A    between atoms: C_8  and  C_9
REMARK    6  A    between atoms: N_11  and  C_12
REMARK    7  A    between atoms: C_12  and  N_14
REMARK    8  A    between atoms: N_14  and  C_15
REMARK    9  A    between atoms: C_19  and  N_20
REMARK                            x       y       z     vdW  Elec       q    Type
REMARK                         _______ _______ _______ _____ _____    ______ ____
ROOT
ATOM      1  C   UNL     1       3.022   5.952  19.015  0.00  0.00    +0.000 C 
ATOM      2  O   UNL     1       3.543   5.542  20.046  0.00  0.00    +0.000 OA
ATOM      3  N   UNL     1       3.116   5.333  17.780  0.00  0.00    +0.000 N 
ATOM      4  H   UNL     1       2.847   5.883  16.974  0.00  0.00    +0.000 HD
ENDROOT
BRANCH   1   8
ATOM      5  C   UNL     1       0.830   9.684  19.284  0.00  0.00    +0.000 A 
ATOM      6  C   UNL     1       1.044   8.844  20.386  0.00  0.00    +0.000 A 
ATOM      7  C   UNL     1       1.792   7.671  20.274  0.00  0.00    +0.000 A 
ATOM      8  C   UNL     1       2.362   7.293  19.055  0.00  0.00    +0.000 A 
ATOM      9  C   UNL     1       2.214   8.136  17.951  0.00  0.00    +0.000 A 
ATOM     10  C   UNL     1       1.450   9.316  18.070  0.00  0.00    +0.000 A 
BRANCH   5  12
ATOM     11  C   UNL     1       0.619  12.217  18.823  0.00  0.00    +0.000 C 
ATOM     12  C   UNL     1      -0.058  10.943  19.392  0.00  0.00    +0.000 C 
ATOM     13  C   UNL     1      -0.390  11.241  20.868  0.00  0.00    +0.000 C 
ATOM     14  C   UNL     1      -1.369  10.736  18.611  0.00  0.00    +0.000 C 
ENDBRANCH   5  12
ENDBRANCH   1   8
BRANCH   3  15
ATOM     15  C   UNL     1       3.733   4.126  17.475  0.00  0.00    +0.000 C 
ATOM     16  S   UNL     1       3.081   2.596  17.624  0.00  0.00    +0.000 S 
BRANCH  15  17
ATOM     17  N   UNL     1       4.988   4.248  16.918  0.00  0.00    +0.000 N 
ATOM     18  H   UNL     1       5.228   3.552  16.219  0.00  0.00    +0.000 HD
BRANCH  17  19
ATOM     19  C   UNL     1       6.027   5.092  17.362  0.00  0.00    +0.000 A 
ATOM     20  C   UNL     1       6.268   6.281  16.686  0.00  0.00    +0.000 A 
ATOM     21  C   UNL     1       7.190   7.188  17.210  0.00  0.00    +0.000 A 
ATOM     22  C   UNL     1       7.899   6.884  18.379  0.00  0.00    +0.000 A 
ATOM     23  C   UNL     1       7.766   5.637  18.985  0.00  0.00    +0.000 A 
ATOM     24  C   UNL     1       6.817   4.755  18.473  0.00  0.00    +0.000 A 
BRANCH  23  25
ATOM     25  N   UNL     1       8.369   5.364  20.218  0.00  0.00    +0.000 N 
ATOM     26  H   UNL     1       7.936   5.830  21.006  0.00  0.00    +0.000 HD
ATOM     27  H   UNL     1       9.380   5.463  20.221  0.00  0.00    +0.000 HD
ENDBRANCH  23  25
ENDBRANCH  17  19
ENDBRANCH  15  17
ENDBRANCH   3  15
TORSDOF 6
ENDMDL
MODEL 2
REMARK VINA RESULT:      -7.8      0.366      1.391
REMARK  Name = 
REMARK  9 active torsions:
REMARK  status: ('A' for Active; 'I' for Inactive)
REMARK    1  A    between atoms: C_1  and  C_2
REMARK    2  A    between atoms: C_2  and  C_3
REMARK    3  A    between atoms: C_2  and  C_4
REMARK    4  A    between atoms: C_2  and  C_5
REMARK    5  A    between atoms: C_8  and  C_9
REMARK    6  A    between atoms: N_11  and  C_12
REMARK    7  A    between atoms: C_12  and  N_14
REMARK    8  A    between atoms: N_14  and  C_15
REMARK    9  A    between atoms: C_19  and  N_20
REMARK                            x       y       z     vdW  Elec       q    Type
REMARK                         _______ _______ _______ _____ _____    ______ ____
ROOT
ATOM      1  C   UNL     1       3.045   5.925  19.094  0.00  0.00    +0.000 C 
ATOM      2  O   UNL     1       3.681   5.556  20.075  0.00  0.00    +0.000 OA
ATOM      3  N   UNL     1       3.088   5.318  17.850  0.00  0.00    +0.000 N 
ATOM      4  H   UNL     1       2.711   5.845  17.073  0.00  0.00    +0.000 HD
ENDROOT
BRANCH   1   8
ATOM      5  C   UNL     1       1.116   9.805  19.246  0.00  0.00    +0.000 A 
ATOM      6  C   UNL     1       1.656   9.267  18.070  0.00  0.00    +0.000 A 
ATOM      7  C   UNL     1       2.231   7.996  18.046  0.00  0.00    +0.000 A 
ATOM      8  C   UNL     1       2.285   7.207  19.199  0.00  0.00    +0.000 A 
ATOM      9  C   UNL     1       1.705   7.690  20.374  0.00  0.00    +0.000 A 
ATOM     10  C   UNL     1       1.132   8.980  20.393  0.00  0.00    +0.000 A 
BRANCH   5  12
ATOM     11  C   UNL     1       0.221  11.725  20.726  0.00  0.00    +0.000 C 
ATOM     12  C   UNL     1       0.544  11.239  19.289  0.00  0.00    +0.000 C 
ATOM     13  C   UNL     1      -0.772  11.316  18.490  0.00  0.00    +0.000 C 
ATOM     14  C   UNL     1       1.559  12.231  18.689  0.00  0.00    +0.000 C 
ENDBRANCH   5  12
ENDBRANCH   1   8
BRANCH   3  15
ATOM     15  C   UNL     1       3.774   4.165  17.485  0.00  0.00    +0.000 C 
ATOM     16  S   UNL     1       3.242   2.589  17.630  0.00  0.00    +0.000 S 
BRANCH  15  17
ATOM     17  N   UNL     1       4.986   4.390  16.869  0.00  0.00    +0.000 N 
ATOM     18  H   UNL     1       5.193   3.791  16.076  0.00  0.00    +0.000 HD
BRANCH  17  19
ATOM     19  C   UNL     1       6.034   5.203  17.346  0.00  0.00    +0.000 A 
ATOM     20  C   UNL     1       6.306   6.403  16.702  0.00  0.00    +0.000 A 
ATOM     21  C   UNL     1       7.239   7.279  17.259  0.00  0.00    +0.000 A 
ATOM     22  C   UNL     1       7.926   6.934  18.430  0.00  0.00    +0.000 A 
ATOM     23  C   UNL     1       7.762   5.676  19.004  0.00  0.00    +0.000 A 
ATOM     24  C   UNL     1       6.803   4.825  18.458  0.00  0.00    +0.000 A 
BRANCH  23  25
ATOM     25  N   UNL     1       8.344   5.362  20.237  0.00  0.00    +0.000 N 
ATOM     26  H   UNL     1       8.735   4.428  20.288  0.00  0.00    +0.000 HD
ATOM     27  H   UNL     1       7.764   5.579  21.042  0.00  0.00    +0.000 HD
ENDBRANCH  23  25
ENDBRANCH  17  19
ENDBRANCH  15  17
ENDBRANCH   3  15
TORSDOF 6
ENDMDL
MODEL 3
REMARK VINA RESULT:      -7.7      4.215      8.516
REMARK  Name = 
REMARK  9 active torsions:
REMARK  status: ('A' for Active; 'I' for Inactive)
REMARK    1  A    between atoms: C_1  and  C_2
REMARK    2  A    between atoms: C_2  and  C_3
REMARK    3  A    between atoms: C_2  and  C_4
REMARK    4  A    between atoms: C_2  and  C_5
REMARK    5  A    between atoms: C_8  and  C_9
REMARK    6  A    between atoms: N_11  and  C_12
REMARK    7  A    between atoms: C_12  and  N_14
REMARK    8  A    between atoms: N_14  and  C_15
REMARK    9  A    between atoms: C_19  and  N_20
REMARK                            x       y       z     vdW  Elec       q    Type
REMARK                         _______ _______ _______ _____ _____    ______ ____
ROOT
ATOM      1  C   UNL     1       1.771   8.683  18.563  0.00  0.00    +0.000 C 
ATOM      2  O   UNL     1       2.227   9.006  17.472  0.00  0.00    +0.000 OA
ATOM      3  N   UNL     1       1.133   9.544  19.440  0.00  0.00    +0.000 N 
ATOM      4  H   UNL     1       1.016   9.219  20.391  0.00  0.00    +0.000 HD
ENDROOT
BRANCH   1   8
ATOM      5  C   UNL     1       2.383   4.548  19.717  0.00  0.00    +0.000 A 
ATOM      6  C   UNL     1       2.616   5.020  18.418  0.00  0.00    +0.000 A 
ATOM      7  C   UNL     1       2.451   6.366  18.091  0.00  0.00    +0.000 A 
ATOM      8  C   UNL     1       2.051   7.298  19.053  0.00  0.00    +0.000 A 
ATOM      9  C   UNL     1       1.865   6.872  20.369  0.00  0.00    +0.000 A 
ATOM     10  C   UNL     1       2.025   5.507  20.691  0.00  0.00    +0.000 A 
BRANCH   5  12
ATOM     11  C   UNL     1       2.083   2.723  21.522  0.00  0.00    +0.000 C 
ATOM     12  C   UNL     1       2.496   3.047  20.062  0.00  0.00    +0.000 C 
ATOM     13  C   UNL     1       3.951   2.566  19.896  0.00  0.00    +0.000 C 
ATOM     14  C   UNL     1       1.582   2.221  19.136  0.00  0.00    +0.000 C 
ENDBRANCH   5  12
ENDBRANCH   1   8
BRANCH   3  15
ATOM     15  C   UNL     1       0.822  10.884  19.246  0.00  0.00    +0.000 C 
ATOM     16  S   UNL     1       1.305  12.176  20.188  0.00  0.00    +0.000 S 
BRANCH  15  17
ATOM     17  N   UNL     1       0.102  11.147  18.101  0.00  0.00    +0.000 N 
ATOM     18  H   UNL     1       0.607  11.632  17.366  0.00  0.00    +0.000 HD
BRANCH  17  19
ATOM     19  C   UNL     1      -1.290  11.003  17.931  0.00  0.00    +0.000 A 
ATOM     20  C   UNL     1      -1.774   9.929  17.195  0.00  0.00    +0.000 A 
ATOM     21  C   UNL     1      -3.150   9.697  17.151  0.00  0.00    +0.000 A 
ATOM     22  C   UNL     1      -4.036  10.562  17.804  0.00  0.00    +0.000 A 
ATOM     23  C   UNL     1      -3.571  11.719  18.426  0.00  0.00    +0.000 A 
ATOM     24  C   UNL     1      -2.193  11.919  18.492  0.00  0.00    +0.000 A 
BRANCH  23  25
ATOM     25  N   UNL     1      -4.424  12.526  19.186  0.00  0.00    +0.000 N 
ATOM     26  H   UNL     1      -4.074  12.749  20.110  0.00  0.00    +0.000 HD
ATOM     27  H   UNL     1      -5.390  12.210  19.207  0.00  0.00    +0.000 HD
ENDBRANCH  23  25
ENDBRANCH  17  19
ENDBRANCH  15  17
ENDBRANCH   3  15
TORSDOF 6
ENDMDL
MODEL 4
REMARK VINA RESULT:      -7.7      2.403      3.912
REMARK  Name = 
REMARK  9 active torsions:
REMARK  status: ('A' for Active; 'I' for Inactive)
REMARK    1  A    between atoms: C_1  and  C_2
REMARK    2  A    between atoms: C_2  and  C_3
REMARK    3  A    between atoms: C_2  and  C_4
REMARK    4  A    between atoms: C_2  and  C_5
REMARK    5  A    between atoms: C_8  and  C_9
REMARK    6  A    between atoms: N_11  and  C_12
REMARK    7  A    between atoms: C_12  and  N_14
REMARK    8  A    between atoms: N_14  and  C_15
REMARK    9  A    between atoms: C_19  and  N_20
REMARK                            x       y       z     vdW  Elec       q    Type
REMARK                         _______ _______ _______ _____ _____    ______ ____
ROOT
ATOM      1  C   UNL     1       4.059   6.501  17.957  0.00  0.00    +0.000 C 
ATOM      2  O   UNL     1       4.168   6.322  16.749  0.00  0.00    +0.000 OA
ATOM      3  N   UNL     1       4.781   5.824  18.926  0.00  0.00    +0.000 N 
ATOM      4  H   UNL     1       4.438   5.887  19.875  0.00  0.00    +0.000 HD
ENDROOT
BRANCH   1   8
ATOM      5  C   UNL     1       1.096   9.394  19.243  0.00  0.00    +0.000 A 
ATOM      6  C   UNL     1       1.684   9.419  17.971  0.00  0.00    +0.000 A 
ATOM      7  C   UNL     1       2.603   8.446  17.574  0.00  0.00    +0.000 A 
ATOM      8  C   UNL     1       2.966   7.404  18.431  0.00  0.00    +0.000 A 
ATOM      9  C   UNL     1       2.357   7.319  19.685  0.00  0.00    +0.000 A 
ATOM     10  C   UNL     1       1.435   8.310  20.084  0.00  0.00    +0.000 A 
BRANCH   5  12
ATOM     11  C   UNL     1       0.782  11.920  19.689  0.00  0.00    +0.000 C 
ATOM     12  C   UNL     1       0.135  10.510  19.709  0.00  0.00    +0.000 C 
ATOM     13  C   UNL     1      -0.324  10.254  21.158  0.00  0.00    +0.000 C 
ATOM     14  C   UNL     1      -1.100  10.563  18.789  0.00  0.00    +0.000 C 
ENDBRANCH   5  12
ENDBRANCH   1   8
BRANCH   3  15
ATOM     15  C   UNL     1       5.792   4.889  18.739  0.00  0.00    +0.000 C 
ATOM     16  S   UNL     1       7.402   5.200  18.422  0.00  0.00    +0.000 S 
BRANCH  15  17
ATOM     17  N   UNL     1       5.405   3.579  18.920  0.00  0.00    +0.000 N 
ATOM     18  H   UNL     1       6.126   2.882  18.763  0.00  0.00    +0.000 HD
BRANCH  17  19
ATOM     19  C   UNL     1       4.087   3.108  19.089  0.00  0.00    +0.000 A 
ATOM     20  C   UNL     1       3.413   2.579  17.996  0.00  0.00    +0.000 A 
ATOM     21  C   UNL     1       2.170   1.974  18.189  0.00  0.00    +0.000 A 
ATOM     22  C   UNL     1       1.587   1.941  19.462  0.00  0.00    +0.000 A 
ATOM     23  C   UNL     1       2.191   2.591  20.537  0.00  0.00    +0.000 A 
ATOM     24  C   UNL     1       3.447   3.160  20.338  0.00  0.00    +0.000 A 
BRANCH  23  25
ATOM     25  N   UNL     1       1.687   2.463  21.836  0.00  0.00    +0.000 N 
ATOM     26  H   UNL     1       1.159   1.613  21.996  0.00  0.00    +0.000 HD
ATOM     27  H   UNL     1       1.203   3.287  22.181  0.00  0.00    +0.000 HD
ENDBRANCH  23  25
ENDBRANCH  17  19
ENDBRANCH  15  17
ENDBRANCH   3  15
TORSDOF 6
ENDMDL
MODEL 5
REMARK VINA RESULT:      -7.6      2.441      3.829
REMARK  Name = 
REMARK  9 active torsions:
REMARK  status: ('A' for Active; 'I' for Inactive)
REMARK    1  A    between atoms: C_1  and  C_2
REMARK    2  A    between atoms: C_2  and  C_3
REMARK    3  A    between atoms: C_2  and  C_4
REMARK    4  A    between atoms: C_2  and  C_5
REMARK    5  A    between atoms: C_8  and  C_9
REMARK    6  A    between atoms: N_11  and  C_12
REMARK    7  A    between atoms: C_12  and  N_14
REMARK    8  A    between atoms: N_14  and  C_15
REMARK    9  A    between atoms: C_19  and  N_20
REMARK                            x       y       z     vdW  Elec       q    Type
REMARK                         _______ _______ _______ _____ _____    ______ ____
ROOT
ATOM      1  C   UNL     1       4.188   6.315  17.762  0.00  0.00    +0.000 C 
ATOM      2  O   UNL     1       4.097   5.992  16.583  0.00  0.00    +0.000 OA
ATOM      3  N   UNL     1       4.990   5.682  18.696  0.00  0.00    +0.000 N 
ATOM      4  H   UNL     1       4.802   5.885  19.669  0.00  0.00    +0.000 HD
ENDROOT
BRANCH   1   8
ATOM      5  C   UNL     1       1.263   9.117  19.309  0.00  0.00    +0.000 A 
ATOM      6  C   UNL     1       1.715   8.007  20.036  0.00  0.00    +0.000 A 
ATOM      7  C   UNL     1       2.690   7.149  19.526  0.00  0.00    +0.000 A 
ATOM      8  C   UNL     1       3.258   7.370  18.268  0.00  0.00    +0.000 A 
ATOM      9  C   UNL     1       2.870   8.498  17.541  0.00  0.00    +0.000 A 
ATOM     10  C   UNL     1       1.877   9.357  18.060  0.00  0.00    +0.000 A 
BRANCH   5  12
ATOM     11  C   UNL     1       0.609  11.464  20.170  0.00  0.00    +0.000 C 
ATOM     12  C   UNL     1       0.133  10.024  19.844  0.00  0.00    +0.000 C 
ATOM     13  C   UNL     1      -0.450   9.444  21.148  0.00  0.00    +0.000 C 
ATOM     14  C   UNL     1      -0.992  10.142  18.796  0.00  0.00    +0.000 C 
ENDBRANCH   5  12
ENDBRANCH   1   8
BRANCH   3  15
ATOM     15  C   UNL     1       5.882   4.636  18.488  0.00  0.00    +0.000 C 
ATOM     16  S   UNL     1       7.445   4.747  17.913  0.00  0.00    +0.000 S 
BRANCH  15  17
ATOM     17  N   UNL     1       5.419   3.400  18.882  0.00  0.00    +0.000 N 
ATOM     18  H   UNL     1       6.105   2.652  18.880  0.00  0.00    +0.000 HD
BRANCH  17  19
ATOM     19  C   UNL     1       4.073   3.029  19.080  0.00  0.00    +0.000 A 
ATOM     20  C   UNL     1       3.323   2.600  17.992  0.00  0.00    +0.000 A 
ATOM     21  C   UNL     1       2.041   2.090  18.206  0.00  0.00    +0.000 A 
ATOM     22  C   UNL     1       1.499   2.053  19.497  0.00  0.00    +0.000 A 
ATOM     23  C   UNL     1       2.188   2.609  20.573  0.00  0.00    +0.000 A 
ATOM     24  C   UNL     1       3.479   3.083  20.351  0.00  0.00    +0.000 A 
BRANCH  23  25
ATOM     25  N   UNL     1       1.717   2.470  21.883  0.00  0.00    +0.000 N 
ATOM     26  H   UNL     1       0.923   1.848  21.977  0.00  0.00    +0.000 HD
ATOM     27  H   UNL     1       1.577   3.348  22.374  0.00  0.00    +0.000 HD
ENDBRANCH  23  25
ENDBRANCH  17  19
ENDBRANCH  15  17
ENDBRANCH   3  15
TORSDOF 6
ENDMDL
MODEL 6
REMARK VINA RESULT:      -7.5      1.494      2.519
REMARK  Name = 
REMARK  9 active torsions:
REMARK  status: ('A' for Active; 'I' for Inactive)
REMARK    1  A    between atoms: C_1  and  C_2
REMARK    2  A    between atoms: C_2  and  C_3
REMARK    3  A    between atoms: C_2  and  C_4
REMARK    4  A    between atoms: C_2  and  C_5
REMARK    5  A    between atoms: C_8  and  C_9
REMARK    6  A    between atoms: N_11  and  C_12
REMARK    7  A    between atoms: C_12  and  N_14
REMARK    8  A    between atoms: N_14  and  C_15
REMARK    9  A    between atoms: C_19  and  N_20
REMARK                            x       y       z     vdW  Elec       q    Type
REMARK                         _______ _______ _______ _____ _____    ______ ____
ROOT
ATOM      1  C   UNL     1       3.324   5.744  19.057  0.00  0.00    +0.000 C 
ATOM      2  O   UNL     1       4.327   5.633  19.754  0.00  0.00    +0.000 OA
ATOM      3  N   UNL     1       2.859   4.776  18.182  0.00  0.00    +0.000 N 
ATOM      4  H   UNL     1       2.172   5.072  17.501  0.00  0.00    +0.000 HD
ENDROOT
BRANCH   1   8
ATOM      5  C   UNL     1       1.040   9.428  19.124  0.00  0.00    +0.000 A 
ATOM      6  C   UNL     1       1.192   8.604  20.248  0.00  0.00    +0.000 A 
ATOM      7  C   UNL     1       1.970   7.447  20.204  0.00  0.00    +0.000 A 
ATOM      8  C   UNL     1       2.635   7.070  19.034  0.00  0.00    +0.000 A 
ATOM      9  C   UNL     1       2.551   7.898  17.912  0.00  0.00    +0.000 A 
ATOM     10  C   UNL     1       1.755   9.062  17.962  0.00  0.00    +0.000 A 
BRANCH   5  12
ATOM     11  C   UNL     1      -1.079  10.563  18.176  0.00  0.00    +0.000 C 
ATOM     12  C   UNL     1       0.121  10.669  19.153  0.00  0.00    +0.000 C 
ATOM     13  C   UNL     1       0.910  11.931  18.749  0.00  0.00    +0.000 C 
ATOM     14  C   UNL     1      -0.458  10.866  20.567  0.00  0.00    +0.000 C 
ENDBRANCH   5  12
ENDBRANCH   1   8
BRANCH   3  15
ATOM     15  C   UNL     1       3.366   3.500  17.971  0.00  0.00    +0.000 C 
ATOM     16  S   UNL     1       2.495   2.085  17.809  0.00  0.00    +0.000 S 
BRANCH  15  17
ATOM     17  N   UNL     1       4.734   3.446  17.806  0.00  0.00    +0.000 N 
ATOM     18  H   UNL     1       5.260   3.107  18.605  0.00  0.00    +0.000 HD
BRANCH  17  19
ATOM     19  C   UNL     1       5.475   4.000  16.743  0.00  0.00    +0.000 A 
ATOM     20  C   UNL     1       6.329   5.065  16.996  0.00  0.00    +0.000 A 
ATOM     21  C   UNL     1       7.175   5.518  15.982  0.00  0.00    +0.000 A 
ATOM     22  C   UNL     1       7.132   4.934  14.710  0.00  0.00    +0.000 A 
ATOM     23  C   UNL     1       6.183   3.961  14.407  0.00  0.00    +0.000 A 
ATOM     24  C   UNL     1       5.368   3.495  15.437  0.00  0.00    +0.000 A 
BRANCH  23  25
ATOM     25  N   UNL     1       6.207   3.283  13.183  0.00  0.00    +0.000 N 
ATOM     26  H   UNL     1       6.331   2.280  13.265  0.00  0.00    +0.000 HD
ATOM     27  H   UNL     1       6.827   3.691  12.490  0.00  0.00    +0.000 HD
ENDBRANCH  23  25
ENDBRANCH  17  19
ENDBRANCH  15  17
ENDBRANCH   3  15
TORSDOF 6
ENDMDL
MODEL 7
REMARK VINA RESULT:      -7.5      1.329      1.786
REMARK  Name = 
REMARK  9 active torsions:
REMARK  status: ('A' for Active; 'I' for Inactive)
REMARK    1  A    between atoms: C_1  and  C_2
REMARK    2  A    between atoms: C_2  and  C_3
REMARK    3  A    between atoms: C_2  and  C_4
REMARK    4  A    between atoms: C_2  and  C_5
REMARK    5  A    between atoms: C_8  and  C_9
REMARK    6  A    between atoms: N_11  and  C_12
REMARK    7  A    between atoms: C_12  and  N_14
REMARK    8  A    between atoms: N_14  and  C_15
REMARK    9  A    between atoms: C_19  and  N_20
REMARK                            x       y       z     vdW  Elec       q    Type
REMARK                         _______ _______ _______ _____ _____    ______ ____
ROOT
ATOM      1  C   UNL     1       3.157   5.747  19.167  0.00  0.00    +0.000 C 
ATOM      2  O   UNL     1       4.092   5.604  19.947  0.00  0.00    +0.000 OA
ATOM      3  N   UNL     1       2.752   4.805  18.236  0.00  0.00    +0.000 N 
ATOM      4  H   UNL     1       2.134   5.126  17.503  0.00  0.00    +0.000 HD
ENDROOT
BRANCH   1   8
ATOM      5  C   UNL     1       0.968   9.489  19.151  0.00  0.00    +0.000 A 
ATOM      6  C   UNL     1       1.156   8.721  20.308  0.00  0.00    +0.000 A 
ATOM      7  C   UNL     1       1.904   7.543  20.287  0.00  0.00    +0.000 A 
ATOM      8  C   UNL     1       2.499   7.088  19.107  0.00  0.00    +0.000 A 
ATOM      9  C   UNL     1       2.378   7.859  17.949  0.00  0.00    +0.000 A 
ATOM     10  C   UNL     1       1.613   9.045  17.976  0.00  0.00    +0.000 A 
BRANCH   5  12
ATOM     11  C   UNL     1       0.846  12.039  18.747  0.00  0.00    +0.000 C 
ATOM     12  C   UNL     1       0.081  10.754  19.159  0.00  0.00    +0.000 C 
ATOM     13  C   UNL     1      -0.479  11.008  20.573  0.00  0.00    +0.000 C 
ATOM     14  C   UNL     1      -1.091  10.585  18.173  0.00  0.00    +0.000 C 
ENDBRANCH   5  12
ENDBRANCH   1   8
BRANCH   3  15
ATOM     15  C   UNL     1       3.250   3.521  18.048  0.00  0.00    +0.000 C 
ATOM     16  S   UNL     1       2.368   2.126  17.796  0.00  0.00    +0.000 S 
BRANCH  15  17
ATOM     17  N   UNL     1       4.625   3.442  17.990  0.00  0.00    +0.000 N 
ATOM     18  H   UNL     1       5.078   3.062  18.815  0.00  0.00    +0.000 HD
BRANCH  17  19
ATOM     19  C   UNL     1       5.460   4.018  17.012  0.00  0.00    +0.000 A 
ATOM     20  C   UNL     1       5.456   3.495  15.726  0.00  0.00    +0.000 A 
ATOM     21  C   UNL     1       6.163   4.153  14.719  0.00  0.00    +0.000 A 
ATOM     22  C   UNL     1       6.907   5.304  15.010  0.00  0.00    +0.000 A 
ATOM     23  C   UNL     1       7.031   5.755  16.322  0.00  0.00    +0.000 A 
ATOM     24  C   UNL     1       6.292   5.109  17.312  0.00  0.00    +0.000 A 
BRANCH  23  25
ATOM     25  N   UNL     1       7.665   6.968  16.614  0.00  0.00    +0.000 N 
ATOM     26  H   UNL     1       8.498   6.877  17.184  0.00  0.00    +0.000 HD
ATOM     27  H   UNL     1       7.043   7.694  16.956  0.00  0.00    +0.000 HD
ENDBRANCH  23  25
ENDBRANCH  17  19
ENDBRANCH  15  17
ENDBRANCH   3  15
TORSDOF 6
ENDMDL
MODEL 8
REMARK VINA RESULT:      -7.4      1.358      1.953
REMARK  Name = 
REMARK  9 active torsions:
REMARK  status: ('A' for Active; 'I' for Inactive)
REMARK    1  A    between atoms: C_1  and  C_2
REMARK    2  A    between atoms: C_2  and  C_3
REMARK    3  A    between atoms: C_2  and  C_4
REMARK    4  A    between atoms: C_2  and  C_5
REMARK    5  A    between atoms: C_8  and  C_9
REMARK    6  A    between atoms: N_11  and  C_12
REMARK    7  A    between atoms: C_12  and  N_14
REMARK    8  A    between atoms: N_14  and  C_15
REMARK    9  A    between atoms: C_19  and  N_20
REMARK                            x       y       z     vdW  Elec       q    Type
REMARK                         _______ _______ _______ _____ _____    ______ ____
ROOT
ATOM      1  C   UNL     1       2.502   5.456  19.937  0.00  0.00    +0.000 C 
ATOM      2  O   UNL     1       2.489   5.009  21.078  0.00  0.00    +0.000 OA
ATOM      3  N   UNL     1       2.964   4.773  18.824  0.00  0.00    +0.000 N 
ATOM      4  H   UNL     1       3.141   5.322  17.994  0.00  0.00    +0.000 HD
ENDROOT
BRANCH   1   8
ATOM      5  C   UNL     1       1.109   9.540  19.507  0.00  0.00    +0.000 A 
ATOM      6  C   UNL     1       0.987   8.814  20.700  0.00  0.00    +0.000 A 
ATOM      7  C   UNL     1       1.486   7.515  20.818  0.00  0.00    +0.000 A 
ATOM      8  C   UNL     1       2.133   6.892  19.747  0.00  0.00    +0.000 A 
ATOM      9  C   UNL     1       2.321   7.608  18.563  0.00  0.00    +0.000 A 
ATOM     10  C   UNL     1       1.807   8.917  18.448  0.00  0.00    +0.000 A 
BRANCH   5  12
ATOM     11  C   UNL     1       0.078  11.582  20.708  0.00  0.00    +0.000 C 
ATOM     12  C   UNL     1       0.494  10.948  19.355  0.00  0.00    +0.000 C 
ATOM     13  C   UNL     1      -0.778  10.888  18.485  0.00  0.00    +0.000 C 
ATOM     14  C   UNL     1       1.511  11.901  18.698  0.00  0.00    +0.000 C 
ENDBRANCH   5  12
ENDBRANCH   1   8
BRANCH   3  15
ATOM     15  C   UNL     1       3.425   3.463  18.757  0.00  0.00    +0.000 C 
ATOM     16  S   UNL     1       2.506   2.070  18.817  0.00  0.00    +0.000 S 
BRANCH  15  17
ATOM     17  N   UNL     1       4.780   3.341  18.538  0.00  0.00    +0.000 N 
ATOM     18  H   UNL     1       5.199   2.471  18.851  0.00  0.00    +0.000 HD
BRANCH  17  19
ATOM     19  C   UNL     1       5.661   4.362  18.129  0.00  0.00    +0.000 A 
ATOM     20  C   UNL     1       6.234   5.186  19.089  0.00  0.00    +0.000 A 
ATOM     21  C   UNL     1       7.220   6.097  18.706  0.00  0.00    +0.000 A 
ATOM     22  C   UNL     1       7.596   6.211  17.361  0.00  0.00    +0.000 A 
ATOM     23  C   UNL     1       6.929   5.490  16.374  0.00  0.00    +0.000 A 
ATOM     24  C   UNL     1       5.971   4.560  16.774  0.00  0.00    +0.000 A 
BRANCH  23  25
ATOM     25  N   UNL     1       7.372   5.499  15.047  0.00  0.00    +0.000 N 
ATOM     26  H   UNL     1       6.972   4.769  14.469  0.00  0.00    +0.000 HD
ATOM     27  H   UNL     1       8.380   5.562  14.942  0.00  0.00    +0.000 HD
ENDBRANCH  23  25
ENDBRANCH  17  19
ENDBRANCH  15  17
ENDBRANCH   3  15
TORSDOF 6
ENDMDL
MODEL 9
REMARK VINA RESULT:      -7.4      1.388      2.286
REMARK  Name = 
REMARK  9 active torsions:
REMARK  status: ('A' for Active; 'I' for Inactive)
REMARK    1  A    between atoms: C_1  and  C_2
REMARK    2  A    between atoms: C_2  and  C_3
REMARK    3  A    between atoms: C_2  and  C_4
REMARK    4  A    between atoms: C_2  and  C_5
REMARK    5  A    between atoms: C_8  and  C_9
REMARK    6  A    between atoms: N_11  and  C_12
REMARK    7  A    between atoms: C_12  and  N_14
REMARK    8  A    between atoms: N_14  and  C_15
REMARK    9  A    between atoms: C_19  and  N_20
REMARK                            x       y       z     vdW  Elec       q    Type
REMARK                         _______ _______ _______ _____ _____    ______ ____
ROOT
ATOM      1  C   UNL     1       2.563   5.239  20.080  0.00  0.00    +0.000 C 
ATOM      2  O   UNL     1       2.531   4.751  21.204  0.00  0.00    +0.000 OA
ATOM      3  N   UNL     1       3.191   4.666  18.986  0.00  0.00    +0.000 N 
ATOM      4  H   UNL     1       3.350   5.266  18.188  0.00  0.00    +0.000 HD
ENDROOT
BRANCH   1   8
ATOM      5  C   UNL     1       1.303   9.340  19.454  0.00  0.00    +0.000 A 
ATOM      6  C   UNL     1       1.921   8.572  18.457  0.00  0.00    +0.000 A 
ATOM      7  C   UNL     1       2.274   7.240  18.679  0.00  0.00    +0.000 A 
ATOM      8  C   UNL     1       2.019   6.620  19.905  0.00  0.00    +0.000 A 
ATOM      9  C   UNL     1       1.354   7.341  20.899  0.00  0.00    +0.000 A 
ATOM     10  C   UNL     1       1.007   8.690  20.672  0.00  0.00    +0.000 A 
BRANCH   5  12
ATOM     11  C   UNL     1      -0.416  11.067  18.594  0.00  0.00    +0.000 C 
ATOM     12  C   UNL     1       0.977  10.834  19.233  0.00  0.00    +0.000 C 
ATOM     13  C   UNL     1       2.011  11.475  18.285  0.00  0.00    +0.000 C 
ATOM     14  C   UNL     1       0.993  11.584  20.579  0.00  0.00    +0.000 C 
ENDBRANCH   5  12
ENDBRANCH   1   8
BRANCH   3  15
ATOM     15  C   UNL     1       3.826   3.432  18.916  0.00  0.00    +0.000 C 
ATOM     16  S   UNL     1       3.102   1.933  18.789  0.00  0.00    +0.000 S 
BRANCH  15  17
ATOM     17  N   UNL     1       5.202   3.497  18.869  0.00  0.00    +0.000 N 
ATOM     18  H   UNL     1       5.694   2.818  19.441  0.00  0.00    +0.000 HD
BRANCH  17  19
ATOM     19  C   UNL     1       5.976   4.522  18.289  0.00  0.00    +0.000 A 
ATOM     20  C   UNL     1       6.607   5.444  19.115  0.00  0.00    +0.000 A 
ATOM     21  C   UNL     1       7.494   6.366  18.557  0.00  0.00    +0.000 A 
ATOM     22  C   UNL     1       7.713   6.392  17.174  0.00  0.00    +0.000 A 
ATOM     23  C   UNL     1       6.980   5.566  16.324  0.00  0.00    +0.000 A 
ATOM     24  C   UNL     1       6.125   4.627  16.897  0.00  0.00    +0.000 A 
BRANCH  23  25
ATOM     25  N   UNL     1       7.273   5.491  14.958  0.00  0.00    +0.000 N 
ATOM     26  H   UNL     1       6.625   4.925  14.423  0.00  0.00    +0.000 HD
ATOM     27  H   UNL     1       8.242   5.267  14.748  0.00  0.00    +0.000 HD
ENDBRANCH  23  25
ENDBRANCH  17  19
ENDBRANCH  15  17
ENDBRANCH   3  15
TORSDOF 6
ENDMDL
