MODEL 1
REMARK VINA RESULT:      -5.8      0.000      0.000
REMARK  Name = 
REMARK  16 active torsions:
REMARK  status: ('A' for Active; 'I' for Inactive)
REMARK    1  A    between atoms: C_1  and  O_2
REMARK    2  A    between atoms: O_2  and  C_3
REMARK    3  A    between atoms: C_4  and  C_5
REMARK    4  A    between atoms: C_6  and  O_7
REMARK    5  A    between atoms: O_7  and  C_8
REMARK    6  A    between atoms: C_10  and  C_11
REMARK    7  A    between atoms: C_12  and  O_13
REMARK    8  A    between atoms: C_14  and  O_15
REMARK    9  A    between atoms: C_16  and  O_17
REMARK   10  A    between atoms: C_18  and  C_19
REMARK   11  A    between atoms: C_19  and  S_21
REMARK   12  A    between atoms: S_21  and  C_22
REMARK   13  A    between atoms: C_23  and  C_24
REMARK   14  A    between atoms: C_24  and  C_25
REMARK   15  A    between atoms: C_24  and  C_26
REMARK   16  A    between atoms: C_27  and  C_28
REMARK                            x       y       z     vdW  Elec       q    Type
REMARK                         _______ _______ _______ _____ _____    ______ ____
ROOT
ATOM      1  C   UNL     1       5.872   6.312  17.345  0.00  0.00    +0.000 A 
ATOM      2  C   UNL     1       4.650   6.903  17.024  0.00  0.00    +0.000 A 
ATOM      3  C   UNL     1       4.478   7.234  15.550  0.00  0.00    +0.000 C 
ATOM      4  C   UNL     1       3.500   6.570  17.743  0.00  0.00    +0.000 A 
ATOM      5  C   UNL     1       3.456   5.255  18.280  0.00  0.00    +0.000 A 
ATOM      6  C   UNL     1       4.649   4.409  18.280  0.00  0.00    +0.000 A 
ATOM      7  C   UNL     1       5.884   5.005  17.877  0.00  0.00    +0.000 A 
ATOM      8  C   UNL     1       7.209   4.300  17.701  0.00  0.00    +0.000 C 
ENDROOT
BRANCH   6   9
ATOM      9  C   UNL     1       4.529   2.892  18.557  0.00  0.00    +0.000 C 
ATOM     10  C   UNL     1       4.370   2.659  20.069  0.00  0.00    +0.000 C 
ATOM     11  C   UNL     1       3.461   2.058  17.823  0.00  0.00    +0.000 C 
ENDBRANCH   6   9
BRANCH   1  13
ATOM     12  C   UNL     1       7.575   7.974  17.571  0.00  0.00    +0.000 C 
ATOM     13  O   UNL     1       7.084   6.808  16.912  0.00  0.00    +0.000 OA
ENDBRANCH   1  13
BRANCH   5  14
ATOM     14  C   UNL     1       2.102   4.662  18.535  0.00  0.00    +0.000 C 
ATOM     15  O   UNL     1       1.409   4.227  17.613  0.00  0.00    +0.000 OA
BRANCH  14  16
ATOM     16  S   UNL     1       1.497   4.599  20.199  0.00  0.00    +0.000 S 
ATOM     17  C   UNL     1       0.764   2.936  20.226  0.00  0.00    +0.000 C 
ENDBRANCH  14  16
ENDBRANCH   5  14
BRANCH   4  18
ATOM     18  O   UNL     1       2.438   7.434  17.869  0.00  0.00    +0.000 OA
BRANCH  18  19
ATOM     19  C   UNL     1       2.595   8.759  18.430  0.00  0.00    +0.000 C 
ATOM     20  O   UNL     1       2.424   8.915  19.858  0.00  0.00    +0.000 OA
ATOM     21  C   UNL     1       1.091   8.743  20.333  0.00  0.00    +0.000 C 
ATOM     22  C   UNL     1       1.099   8.950  21.850  0.00  0.00    +0.000 C 
ATOM     23  C   UNL     1       0.113   9.740  19.693  0.00  0.00    +0.000 C 
ATOM     24  C   UNL     1       0.245   9.760  18.164  0.00  0.00    +0.000 C 
ATOM     25  C   UNL     1       1.706   9.794  17.691  0.00  0.00    +0.000 C 
BRANCH  23  26
ATOM     26  O   UNL     1      -1.225   9.431  20.102  0.00  0.00    +0.000 OA
ATOM     27  H   UNL     1      -1.275   9.503  21.070  0.00  0.00    +0.000 HD
ENDBRANCH  23  26
BRANCH  24  28
ATOM     28  O   UNL     1      -0.458  10.904  17.642  0.00  0.00    +0.000 OA
ATOM     29  H   UNL     1      -1.064  10.589  16.943  0.00  0.00    +0.000 HD
ENDBRANCH  24  28
BRANCH  25  30
ATOM     30  O   UNL     1       2.215  11.137  17.880  0.00  0.00    +0.000 OA
ATOM     31  H   UNL     1       2.347  11.546  17.004  0.00  0.00    +0.000 HD
ENDBRANCH  25  30
ENDBRANCH  18  19
ENDBRANCH   4  18
TORSDOF 9
ENDMDL
MODEL 2
REMARK VINA RESULT:      -5.7      6.228     11.217
REMARK  Name = 
REMARK  16 active torsions:
REMARK  status: ('A' for Active; 'I' for Inactive)
REMARK    1  A    between atoms: C_1  and  O_2
REMARK    2  A    between atoms: O_2  and  C_3
REMARK    3  A    between atoms: C_4  and  C_5
REMARK    4  A    between atoms: C_6  and  O_7
REMARK    5  A    between atoms: O_7  and  C_8
REMARK    6  A    between atoms: C_10  and  C_11
REMARK    7  A    between atoms: C_12  and  O_13
REMARK    8  A    between atoms: C_14  and  O_15
REMARK    9  A    between atoms: C_16  and  O_17
REMARK   10  A    between atoms: C_18  and  C_19
REMARK   11  A    between atoms: C_19  and  S_21
REMARK   12  A    between atoms: S_21  and  C_22
REMARK   13  A    between atoms: C_23  and  C_24
REMARK   14  A    between atoms: C_24  and  C_25
REMARK   15  A    between atoms: C_24  and  C_26
REMARK   16  A    between atoms: C_27  and  C_28
REMARK                            x       y       z     vdW  Elec       q    Type
REMARK                         _______ _______ _______ _____ _____    ______ ____
ROOT
ATOM      1  C   UNL     1      -3.640  14.782  23.883  0.00  0.00    +0.000 A 
ATOM      2  C   UNL     1      -3.454  13.401  23.806  0.00  0.00    +0.000 A 
ATOM      3  C   UNL     1      -4.237  12.603  24.838  0.00  0.00    +0.000 C 
ATOM      4  C   UNL     1      -3.219  12.793  22.572  0.00  0.00    +0.000 A 
ATOM      5  C   UNL     1      -3.799  13.427  21.440  0.00  0.00    +0.000 A 
ATOM      6  C   UNL     1      -4.391  14.760  21.554  0.00  0.00    +0.000 A 
ATOM      7  C   UNL     1      -4.218  15.459  22.788  0.00  0.00    +0.000 A 
ATOM      8  C   UNL     1      -4.827  16.790  23.162  0.00  0.00    +0.000 C 
ENDROOT
BRANCH   6   9
ATOM      9  C   UNL     1      -5.298  15.308  20.427  0.00  0.00    +0.000 C 
ATOM     10  C   UNL     1      -6.772  15.170  20.844  0.00  0.00    +0.000 C 
ATOM     11  C   UNL     1      -5.078  16.735  19.889  0.00  0.00    +0.000 C 
ENDBRANCH   6   9
BRANCH   1  13
ATOM     12  C   UNL     1      -2.264  15.633  25.642  0.00  0.00    +0.000 C 
ATOM     13  O   UNL     1      -3.560  15.487  25.066  0.00  0.00    +0.000 OA
ENDBRANCH   1  13
BRANCH   5  14
ATOM     14  C   UNL     1      -4.074  12.571  20.240  0.00  0.00    +0.000 C 
ATOM     15  O   UNL     1      -5.192  12.092  20.037  0.00  0.00    +0.000 OA
BRANCH  14  16
ATOM     16  S   UNL     1      -2.755  12.244  19.103  0.00  0.00    +0.000 S 
ATOM     17  C   UNL     1      -3.657  11.382  17.782  0.00  0.00    +0.000 C 
ENDBRANCH  14  16
ENDBRANCH   5  14
BRANCH   4  18
ATOM     18  O   UNL     1      -2.524  11.612  22.458  0.00  0.00    +0.000 OA
BRANCH  18  19
ATOM     19  C   UNL     1      -1.181  11.463  22.974  0.00  0.00    +0.000 C 
ATOM     20  O   UNL     1      -0.159  12.357  22.474  0.00  0.00    +0.000 OA
ATOM     21  C   UNL     1       0.215  12.152  21.114  0.00  0.00    +0.000 C 
ATOM     22  C   UNL     1       1.301  13.173  20.763  0.00  0.00    +0.000 C 
ATOM     23  C   UNL     1       0.754  10.735  20.867  0.00  0.00    +0.000 C 
ATOM     24  C   UNL     1      -0.186   9.664  21.435  0.00  0.00    +0.000 C 
ATOM     25  C   UNL     1      -0.687   9.998  22.849  0.00  0.00    +0.000 C 
BRANCH  23  26
ATOM     26  O   UNL     1       0.983  10.546  19.465  0.00  0.00    +0.000 OA
ATOM     27  H   UNL     1       1.462   9.709  19.341  0.00  0.00    +0.000 HD
ENDBRANCH  23  26
BRANCH  24  28
ATOM     28  O   UNL     1       0.495   8.395  21.452  0.00  0.00    +0.000 OA
ATOM     29  H   UNL     1      -0.080   7.741  21.008  0.00  0.00    +0.000 HD
ENDBRANCH  24  28
BRANCH  25  30
ATOM     30  O   UNL     1       0.386   9.735  23.785  0.00  0.00    +0.000 OA
ATOM     31  H   UNL     1       1.233   9.975  23.364  0.00  0.00    +0.000 HD
ENDBRANCH  25  30
ENDBRANCH  18  19
ENDBRANCH   4  18
TORSDOF 9
ENDMDL
MODEL 3
REMARK VINA RESULT:      -5.6      6.690     11.273
REMARK  Name = 
REMARK  16 active torsions:
REMARK  status: ('A' for Active; 'I' for Inactive)
REMARK    1  A    between atoms: C_1  and  O_2
REMARK    2  A    between atoms: O_2  and  C_3
REMARK    3  A    between atoms: C_4  and  C_5
REMARK    4  A    between atoms: C_6  and  O_7
REMARK    5  A    between atoms: O_7  and  C_8
REMARK    6  A    between atoms: C_10  and  C_11
REMARK    7  A    between atoms: C_12  and  O_13
REMARK    8  A    between atoms: C_14  and  O_15
REMARK    9  A    between atoms: C_16  and  O_17
REMARK   10  A    between atoms: C_18  and  C_19
REMARK   11  A    between atoms: C_19  and  S_21
REMARK   12  A    between atoms: S_21  and  C_22
REMARK   13  A    between atoms: C_23  and  C_24
REMARK   14  A    between atoms: C_24  and  C_25
REMARK   15  A    between atoms: C_24  and  C_26
REMARK   16  A    between atoms: C_27  and  C_28
REMARK                            x       y       z     vdW  Elec       q    Type
REMARK                         _______ _______ _______ _____ _____    ______ ____
ROOT
ATOM      1  C   UNL     1      -3.203  14.403  23.254  0.00  0.00    +0.000 A 
ATOM      2  C   UNL     1      -2.972  13.205  22.579  0.00  0.00    +0.000 A 
ATOM      3  C   UNL     1      -2.391  12.097  23.444  0.00  0.00    +0.000 C 
ATOM      4  C   UNL     1      -3.803  12.824  21.524  0.00  0.00    +0.000 A 
ATOM      5  C   UNL     1      -5.149  13.273  21.592  0.00  0.00    +0.000 A 
ATOM      6  C   UNL     1      -5.553  14.271  22.583  0.00  0.00    +0.000 A 
ATOM      7  C   UNL     1      -4.523  14.890  23.356  0.00  0.00    +0.000 A 
ATOM      8  C   UNL     1      -4.716  15.862  24.498  0.00  0.00    +0.000 C 
ENDROOT
BRANCH   6   9
ATOM      9  C   UNL     1      -7.052  14.517  22.875  0.00  0.00    +0.000 C 
ATOM     10  C   UNL     1      -7.465  13.730  24.130  0.00  0.00    +0.000 C 
ATOM     11  C   UNL     1      -7.582  15.958  23.008  0.00  0.00    +0.000 C 
ENDBRANCH   6   9
BRANCH   1  13
ATOM     12  C   UNL     1      -1.121  15.562  23.440  0.00  0.00    +0.000 C 
ATOM     13  O   UNL     1      -2.266  14.997  24.075  0.00  0.00    +0.000 OA
ENDBRANCH   1  13
BRANCH   5  14
ATOM     14  C   UNL     1      -6.180  12.467  20.859  0.00  0.00    +0.000 C 
ATOM     15  O   UNL     1      -6.600  11.400  21.311  0.00  0.00    +0.000 OA
BRANCH  14  16
ATOM     16  S   UNL     1      -6.792  13.070  19.309  0.00  0.00    +0.000 S 
ATOM     17  C   UNL     1      -6.485  11.629  18.245  0.00  0.00    +0.000 C 
ENDBRANCH  14  16
ENDBRANCH   5  14
BRANCH   4  18
ATOM     18  O   UNL     1      -3.368  12.004  20.508  0.00  0.00    +0.000 OA
BRANCH  18  19
ATOM     19  C   UNL     1      -2.746  12.533  19.314  0.00  0.00    +0.000 C 
ATOM     20  O   UNL     1      -2.763  11.714  18.122  0.00  0.00    +0.000 OA
ATOM     21  C   UNL     1      -1.946  10.548  18.173  0.00  0.00    +0.000 C 
ATOM     22  C   UNL     1      -2.082   9.815  16.835  0.00  0.00    +0.000 C 
ATOM     23  C   UNL     1      -0.467  10.885  18.416  0.00  0.00    +0.000 C 
ATOM     24  C   UNL     1      -0.292  11.837  19.607  0.00  0.00    +0.000 C 
ATOM     25  C   UNL     1      -1.294  13.001  19.593  0.00  0.00    +0.000 C 
BRANCH  23  26
ATOM     26  O   UNL     1       0.279   9.674  18.595  0.00  0.00    +0.000 OA
ATOM     27  H   UNL     1      -0.028   9.024  17.941  0.00  0.00    +0.000 HD
ENDBRANCH  23  26
BRANCH  24  28
ATOM     28  O   UNL     1       1.052  12.356  19.606  0.00  0.00    +0.000 OA
ATOM     29  H   UNL     1       1.131  12.977  18.855  0.00  0.00    +0.000 HD
ENDBRANCH  24  28
BRANCH  25  30
ATOM     30  O   UNL     1      -0.862  13.961  18.599  0.00  0.00    +0.000 OA
ATOM     31  H   UNL     1      -1.609  14.146  17.999  0.00  0.00    +0.000 HD
ENDBRANCH  25  30
ENDBRANCH  18  19
ENDBRANCH   4  18
TORSDOF 9
ENDMDL
MODEL 4
REMARK VINA RESULT:      -5.6      1.751      2.811
REMARK  Name = 
REMARK  16 active torsions:
REMARK  status: ('A' for Active; 'I' for Inactive)
REMARK    1  A    between atoms: C_1  and  O_2
REMARK    2  A    between atoms: O_2  and  C_3
REMARK    3  A    between atoms: C_4  and  C_5
REMARK    4  A    between atoms: C_6  and  O_7
REMARK    5  A    between atoms: O_7  and  C_8
REMARK    6  A    between atoms: C_10  and  C_11
REMARK    7  A    between atoms: C_12  and  O_13
REMARK    8  A    between atoms: C_14  and  O_15
REMARK    9  A    between atoms: C_16  and  O_17
REMARK   10  A    between atoms: C_18  and  C_19
REMARK   11  A    between atoms: C_19  and  S_21
REMARK   12  A    between atoms: S_21  and  C_22
REMARK   13  A    between atoms: C_23  and  C_24
REMARK   14  A    between atoms: C_24  and  C_25
REMARK   15  A    between atoms: C_24  and  C_26
REMARK   16  A    between atoms: C_27  and  C_28
REMARK                            x       y       z     vdW  Elec       q    Type
REMARK                         _______ _______ _______ _____ _____    ______ ____
ROOT
ATOM      1  C   UNL     1       4.511   6.269  17.520  0.00  0.00    +0.000 A 
ATOM      2  C   UNL     1       3.560   7.055  18.173  0.00  0.00    +0.000 A 
ATOM      3  C   UNL     1       2.703   7.904  17.248  0.00  0.00    +0.000 C 
ATOM      4  C   UNL     1       2.971   6.602  19.355  0.00  0.00    +0.000 A 
ATOM      5  C   UNL     1       2.847   5.194  19.495  0.00  0.00    +0.000 A 
ATOM      6  C   UNL     1       3.520   4.290  18.563  0.00  0.00    +0.000 A 
ATOM      7  C   UNL     1       4.430   4.865  17.623  0.00  0.00    +0.000 A 
ATOM      8  C   UNL     1       5.149   4.141  16.509  0.00  0.00    +0.000 C 
ENDROOT
BRANCH   6   9
ATOM      9  C   UNL     1       3.132   2.793  18.511  0.00  0.00    +0.000 C 
ATOM     10  C   UNL     1       2.562   2.460  17.122  0.00  0.00    +0.000 C 
ATOM     11  C   UNL     1       4.171   1.716  18.881  0.00  0.00    +0.000 C 
ENDBRANCH   6   9
BRANCH   1  13
ATOM     12  C   UNL     1       6.607   7.289  16.990  0.00  0.00    +0.000 C 
ATOM     13  O   UNL     1       5.357   6.765  16.549  0.00  0.00    +0.000 OA
ENDBRANCH   1  13
BRANCH   5  14
ATOM     14  C   UNL     1       1.763   4.687  20.400  0.00  0.00    +0.000 C 
ATOM     15  O   UNL     1       0.573   4.806  20.104  0.00  0.00    +0.000 OA
BRANCH  14  16
ATOM     16  S   UNL     1       2.219   3.909  21.926  0.00  0.00    +0.000 S 
ATOM     17  C   UNL     1       1.402   2.296  21.736  0.00  0.00    +0.000 C 
ENDBRANCH  14  16
ENDBRANCH   5  14
BRANCH   4  18
ATOM     18  O   UNL     1       2.475   7.466  20.303  0.00  0.00    +0.000 OA
BRANCH  18  19
ATOM     19  C   UNL     1       1.089   7.882  20.306  0.00  0.00    +0.000 C 
ATOM     20  O   UNL     1       0.699   8.948  19.410  0.00  0.00    +0.000 OA
ATOM     21  C   UNL     1       1.208  10.237  19.740  0.00  0.00    +0.000 C 
ATOM     22  C   UNL     1       0.692  11.233  18.697  0.00  0.00    +0.000 C 
ATOM     23  C   UNL     1       0.766  10.696  21.138  0.00  0.00    +0.000 C 
ATOM     24  C   UNL     1       1.030   9.618  22.198  0.00  0.00    +0.000 C 
ATOM     25  C   UNL     1       0.602   8.215  21.741  0.00  0.00    +0.000 C 
BRANCH  23  26
ATOM     26  O   UNL     1       1.418  11.929  21.468  0.00  0.00    +0.000 OA
ATOM     27  H   UNL     1       2.040  11.764  22.196  0.00  0.00    +0.000 HD
ENDBRANCH  23  26
BRANCH  24  28
ATOM     28  O   UNL     1       0.333   9.964  23.410  0.00  0.00    +0.000 OA
ATOM     29  H   UNL     1       0.978  10.376  24.018  0.00  0.00    +0.000 HD
ENDBRANCH  24  28
BRANCH  25  30
ATOM     30  O   UNL     1      -0.841   8.128  21.827  0.00  0.00    +0.000 OA
ATOM     31  H   UNL     1      -1.074   7.407  22.442  0.00  0.00    +0.000 HD
ENDBRANCH  25  30
ENDBRANCH  18  19
ENDBRANCH   4  18
TORSDOF 9
ENDMDL
MODEL 5
REMARK VINA RESULT:      -5.4      6.819     10.076
REMARK  Name = 
REMARK  16 active torsions:
REMARK  status: ('A' for Active; 'I' for Inactive)
REMARK    1  A    between atoms: C_1  and  O_2
REMARK    2  A    between atoms: O_2  and  C_3
REMARK    3  A    between atoms: C_4  and  C_5
REMARK    4  A    between atoms: C_6  and  O_7
REMARK    5  A    between atoms: O_7  and  C_8
REMARK    6  A    between atoms: C_10  and  C_11
REMARK    7  A    between atoms: C_12  and  O_13
REMARK    8  A    between atoms: C_14  and  O_15
REMARK    9  A    between atoms: C_16  and  O_17
REMARK   10  A    between atoms: C_18  and  C_19
REMARK   11  A    between atoms: C_19  and  S_21
REMARK   12  A    between atoms: S_21  and  C_22
REMARK   13  A    between atoms: C_23  and  C_24
REMARK   14  A    between atoms: C_24  and  C_25
REMARK   15  A    between atoms: C_24  and  C_26
REMARK   16  A    between atoms: C_27  and  C_28
REMARK                            x       y       z     vdW  Elec       q    Type
REMARK                         _______ _______ _______ _____ _____    ______ ____
ROOT
ATOM      1  C   UNL     1      -1.153  12.212  20.001  0.00  0.00    +0.000 A 
ATOM      2  C   UNL     1      -1.959  13.255  20.460  0.00  0.00    +0.000 A 
ATOM      3  C   UNL     1      -1.412  14.645  20.173  0.00  0.00    +0.000 C 
ATOM      4  C   UNL     1      -3.347  13.107  20.489  0.00  0.00    +0.000 A 
ATOM      5  C   UNL     1      -3.907  12.247  19.506  0.00  0.00    +0.000 A 
ATOM      6  C   UNL     1      -3.048  11.393  18.686  0.00  0.00    +0.000 A 
ATOM      7  C   UNL     1      -1.659  11.333  19.021  0.00  0.00    +0.000 A 
ATOM      8  C   UNL     1      -0.580  10.606  18.254  0.00  0.00    +0.000 C 
ENDROOT
BRANCH   6   9
ATOM      9  C   UNL     1      -3.610  10.712  17.416  0.00  0.00    +0.000 C 
ATOM     10  C   UNL     1      -2.994  11.368  16.168  0.00  0.00    +0.000 C 
ATOM     11  C   UNL     1      -3.514   9.182  17.258  0.00  0.00    +0.000 C 
ENDBRANCH   6   9
BRANCH   1  13
ATOM     12  C   UNL     1       0.630  11.441  21.393  0.00  0.00    +0.000 C 
ATOM     13  O   UNL     1       0.205  12.153  20.233  0.00  0.00    +0.000 OA
ENDBRANCH   1  13
BRANCH   5  14
ATOM     14  C   UNL     1      -5.336  12.486  19.119  0.00  0.00    +0.000 C 
ATOM     15  O   UNL     1      -5.637  13.310  18.253  0.00  0.00    +0.000 OA
BRANCH  14  16
ATOM     16  S   UNL     1      -6.608  11.562  19.937  0.00  0.00    +0.000 S 
ATOM     17  C   UNL     1      -6.872  10.222  18.738  0.00  0.00    +0.000 C 
ENDBRANCH  14  16
ENDBRANCH   5  14
BRANCH   4  18
ATOM     18  O   UNL     1      -4.139  13.803  21.371  0.00  0.00    +0.000 OA
BRANCH  18  19
ATOM     19  C   UNL     1      -4.252  13.420  22.762  0.00  0.00    +0.000 C 
ATOM     20  O   UNL     1      -5.390  12.617  23.154  0.00  0.00    +0.000 OA
ATOM     21  C   UNL     1      -6.648  13.285  23.114  0.00  0.00    +0.000 C 
ATOM     22  C   UNL     1      -7.725  12.293  23.563  0.00  0.00    +0.000 C 
ATOM     23  C   UNL     1      -6.681  14.517  24.031  0.00  0.00    +0.000 C 
ATOM     24  C   UNL     1      -5.470  15.430  23.798  0.00  0.00    +0.000 C 
ATOM     25  C   UNL     1      -4.148  14.653  23.698  0.00  0.00    +0.000 C 
BRANCH  23  26
ATOM     26  O   UNL     1      -7.915  15.221  23.845  0.00  0.00    +0.000 OA
ATOM     27  H   UNL     1      -8.649  14.607  24.015  0.00  0.00    +0.000 HD
ENDBRANCH  23  26
BRANCH  24  28
ATOM     28  O   UNL     1      -5.386  16.389  24.869  0.00  0.00    +0.000 OA
ATOM     29  H   UNL     1      -5.526  17.277  24.486  0.00  0.00    +0.000 HD
ENDBRANCH  24  28
BRANCH  25  30
ATOM     30  O   UNL     1      -3.752  14.254  25.032  0.00  0.00    +0.000 OA
ATOM     31  H   UNL     1      -4.351  14.679  25.675  0.00  0.00    +0.000 HD
ENDBRANCH  25  30
ENDBRANCH  18  19
ENDBRANCH   4  18
TORSDOF 9
ENDMDL
MODEL 6
REMARK VINA RESULT:      -5.4      6.333      9.700
REMARK  Name = 
REMARK  16 active torsions:
REMARK  status: ('A' for Active; 'I' for Inactive)
REMARK    1  A    between atoms: C_1  and  O_2
REMARK    2  A    between atoms: O_2  and  C_3
REMARK    3  A    between atoms: C_4  and  C_5
REMARK    4  A    between atoms: C_6  and  O_7
REMARK    5  A    between atoms: O_7  and  C_8
REMARK    6  A    between atoms: C_10  and  C_11
REMARK    7  A    between atoms: C_12  and  O_13
REMARK    8  A    between atoms: C_14  and  O_15
REMARK    9  A    between atoms: C_16  and  O_17
REMARK   10  A    between atoms: C_18  and  C_19
REMARK   11  A    between atoms: C_19  and  S_21
REMARK   12  A    between atoms: S_21  and  C_22
REMARK   13  A    between atoms: C_23  and  C_24
REMARK   14  A    between atoms: C_24  and  C_25
REMARK   15  A    between atoms: C_24  and  C_26
REMARK   16  A    between atoms: C_27  and  C_28
REMARK                            x       y       z     vdW  Elec       q    Type
REMARK                         _______ _______ _______ _____ _____    ______ ____
ROOT
ATOM      1  C   UNL     1      -0.970  11.528  19.644  0.00  0.00    +0.000 A 
ATOM      2  C   UNL     1      -1.739  12.575  20.154  0.00  0.00    +0.000 A 
ATOM      3  C   UNL     1      -1.106  13.950  20.008  0.00  0.00    +0.000 C 
ATOM      4  C   UNL     1      -3.132  12.504  20.114  0.00  0.00    +0.000 A 
ATOM      5  C   UNL     1      -3.692  11.760  19.040  0.00  0.00    +0.000 A 
ATOM      6  C   UNL     1      -2.843  10.928  18.187  0.00  0.00    +0.000 A 
ATOM      7  C   UNL     1      -1.476  10.762  18.573  0.00  0.00    +0.000 A 
ATOM      8  C   UNL     1      -0.403  10.039  17.793  0.00  0.00    +0.000 C 
ENDROOT
BRANCH   6   9
ATOM      9  C   UNL     1      -3.382  10.386  16.843  0.00  0.00    +0.000 C 
ATOM     10  C   UNL     1      -2.956  11.327  15.703  0.00  0.00    +0.000 C 
ATOM     11  C   UNL     1      -3.070   8.938  16.417  0.00  0.00    +0.000 C 
ENDBRANCH   6   9
BRANCH   1  13
ATOM     12  C   UNL     1       0.702  10.765  21.172  0.00  0.00    +0.000 C 
ATOM     13  O   UNL     1       0.372  11.374  19.926  0.00  0.00    +0.000 OA
ENDBRANCH   1  13
BRANCH   5  14
ATOM     14  C   UNL     1      -5.087  12.110  18.615  0.00  0.00    +0.000 C 
ATOM     15  O   UNL     1      -5.310  13.065  17.869  0.00  0.00    +0.000 OA
BRANCH  14  16
ATOM     16  S   UNL     1      -6.434  11.126  19.214  0.00  0.00    +0.000 S 
ATOM     17  C   UNL     1      -7.699  12.407  19.464  0.00  0.00    +0.000 C 
ENDBRANCH  14  16
ENDBRANCH   5  14
BRANCH   4  18
ATOM     18  O   UNL     1      -3.926  13.170  21.018  0.00  0.00    +0.000 OA
BRANCH  18  19
ATOM     19  C   UNL     1      -4.522  12.497  22.152  0.00  0.00    +0.000 C 
ATOM     20  O   UNL     1      -5.949  12.628  22.345  0.00  0.00    +0.000 OA
ATOM     21  C   UNL     1      -6.395  13.925  22.731  0.00  0.00    +0.000 C 
ATOM     22  C   UNL     1      -7.917  13.874  22.895  0.00  0.00    +0.000 C 
ATOM     23  C   UNL     1      -5.760  14.387  24.051  0.00  0.00    +0.000 C 
ATOM     24  C   UNL     1      -4.235  14.218  24.037  0.00  0.00    +0.000 C 
ATOM     25  C   UNL     1      -3.791  12.860  23.471  0.00  0.00    +0.000 C 
BRANCH  23  26
ATOM     26  O   UNL     1      -6.136  15.745  24.316  0.00  0.00    +0.000 OA
ATOM     27  H   UNL     1      -5.341  16.301  24.261  0.00  0.00    +0.000 HD
ENDBRANCH  23  26
BRANCH  24  28
ATOM     28  O   UNL     1      -3.727  14.372  25.376  0.00  0.00    +0.000 OA
ATOM     29  H   UNL     1      -3.933  13.554  25.869  0.00  0.00    +0.000 HD
ENDBRANCH  24  28
BRANCH  25  30
ATOM     30  O   UNL     1      -4.022  11.848  24.482  0.00  0.00    +0.000 OA
ATOM     31  H   UNL     1      -3.356  11.955  25.187  0.00  0.00    +0.000 HD
ENDBRANCH  25  30
ENDBRANCH  18  19
ENDBRANCH   4  18
TORSDOF 9
ENDMDL
MODEL 7
REMARK VINA RESULT:      -5.4      5.133      9.298
REMARK  Name = 
REMARK  16 active torsions:
REMARK  status: ('A' for Active; 'I' for Inactive)
REMARK    1  A    between atoms: C_1  and  O_2
REMARK    2  A    between atoms: O_2  and  C_3
REMARK    3  A    between atoms: C_4  and  C_5
REMARK    4  A    between atoms: C_6  and  O_7
REMARK    5  A    between atoms: O_7  and  C_8
REMARK    6  A    between atoms: C_10  and  C_11
REMARK    7  A    between atoms: C_12  and  O_13
REMARK    8  A    between atoms: C_14  and  O_15
REMARK    9  A    between atoms: C_16  and  O_17
REMARK   10  A    between atoms: C_18  and  C_19
REMARK   11  A    between atoms: C_19  and  S_21
REMARK   12  A    between atoms: S_21  and  C_22
REMARK   13  A    between atoms: C_23  and  C_24
REMARK   14  A    between atoms: C_24  and  C_25
REMARK   15  A    between atoms: C_24  and  C_26
REMARK   16  A    between atoms: C_27  and  C_28
REMARK                            x       y       z     vdW  Elec       q    Type
REMARK                         _______ _______ _______ _____ _____    ______ ____
ROOT
ATOM      1  C   UNL     1      -3.407  12.838  20.632  0.00  0.00    +0.000 A 
ATOM      2  C   UNL     1      -2.246  12.763  21.402  0.00  0.00    +0.000 A 
ATOM      3  C   UNL     1      -2.405  12.001  22.708  0.00  0.00    +0.000 C 
ATOM      4  C   UNL     1      -0.996  12.717  20.782  0.00  0.00    +0.000 A 
ATOM      5  C   UNL     1      -0.954  12.109  19.499  0.00  0.00    +0.000 A 
ATOM      6  C   UNL     1      -2.191  11.783  18.788  0.00  0.00    +0.000 A 
ATOM      7  C   UNL     1      -3.420  12.245  19.352  0.00  0.00    +0.000 A 
ATOM      8  C   UNL     1      -4.812  11.938  18.849  0.00  0.00    +0.000 C 
ENDROOT
BRANCH   6   9
ATOM      9  C   UNL     1      -2.159  10.842  17.561  0.00  0.00    +0.000 C 
ATOM     10  C   UNL     1      -2.915   9.544  17.891  0.00  0.00    +0.000 C 
ATOM     11  C   UNL     1      -2.645  11.351  16.189  0.00  0.00    +0.000 C 
ENDBRANCH   6   9
BRANCH   1  13
ATOM     12  C   UNL     1      -4.808  14.578  21.478  0.00  0.00    +0.000 C 
ATOM     13  O   UNL     1      -4.632  13.202  21.151  0.00  0.00    +0.000 OA
ENDBRANCH   1  13
BRANCH   5  14
ATOM     14  C   UNL     1       0.354  11.525  19.058  0.00  0.00    +0.000 C 
ATOM     15  O   UNL     1       1.157  12.180  18.389  0.00  0.00    +0.000 OA
BRANCH  14  16
ATOM     16  S   UNL     1       0.739   9.854  19.508  0.00  0.00    +0.000 S 
ATOM     17  C   UNL     1       1.564   9.281  17.993  0.00  0.00    +0.000 C 
ENDBRANCH  14  16
ENDBRANCH   5  14
BRANCH   4  18
ATOM     18  O   UNL     1       0.146  13.169  21.401  0.00  0.00    +0.000 OA
BRANCH  18  19
ATOM     19  C   UNL     1       0.394  14.579  21.610  0.00  0.00    +0.000 C 
ATOM     20  O   UNL     1      -0.165  15.513  20.657  0.00  0.00    +0.000 OA
ATOM     21  C   UNL     1       0.421  15.482  19.359  0.00  0.00    +0.000 C 
ATOM     22  C   UNL     1      -0.284  16.532  18.495  0.00  0.00    +0.000 C 
ATOM     23  C   UNL     1       1.927  15.785  19.393  0.00  0.00    +0.000 C 
ATOM     24  C   UNL     1       2.653  14.928  20.438  0.00  0.00    +0.000 C 
ATOM     25  C   UNL     1       1.909  14.866  21.781  0.00  0.00    +0.000 C 
BRANCH  23  26
ATOM     26  O   UNL     1       2.483  15.604  18.085  0.00  0.00    +0.000 OA
ATOM     27  H   UNL     1       3.428  15.831  18.118  0.00  0.00    +0.000 HD
ENDBRANCH  23  26
BRANCH  24  28
ATOM     28  O   UNL     1       3.978  15.453  20.644  0.00  0.00    +0.000 OA
ATOM     29  H   UNL     1       3.889  16.377  20.949  0.00  0.00    +0.000 HD
ENDBRANCH  24  28
BRANCH  25  30
ATOM     30  O   UNL     1       2.119  16.120  22.476  0.00  0.00    +0.000 OA
ATOM     31  H   UNL     1       1.775  16.034  23.385  0.00  0.00    +0.000 HD
ENDBRANCH  25  30
ENDBRANCH  18  19
ENDBRANCH   4  18
TORSDOF 9
ENDMDL
MODEL 8
REMARK VINA RESULT:      -5.4      8.785     10.269
REMARK  Name = 
REMARK  16 active torsions:
REMARK  status: ('A' for Active; 'I' for Inactive)
REMARK    1  A    between atoms: C_1  and  O_2
REMARK    2  A    between atoms: O_2  and  C_3
REMARK    3  A    between atoms: C_4  and  C_5
REMARK    4  A    between atoms: C_6  and  O_7
REMARK    5  A    between atoms: O_7  and  C_8
REMARK    6  A    between atoms: C_10  and  C_11
REMARK    7  A    between atoms: C_12  and  O_13
REMARK    8  A    between atoms: C_14  and  O_15
REMARK    9  A    between atoms: C_16  and  O_17
REMARK   10  A    between atoms: C_18  and  C_19
REMARK   11  A    between atoms: C_19  and  S_21
REMARK   12  A    between atoms: S_21  and  C_22
REMARK   13  A    between atoms: C_23  and  C_24
REMARK   14  A    between atoms: C_24  and  C_25
REMARK   15  A    between atoms: C_24  and  C_26
REMARK   16  A    between atoms: C_27  and  C_28
REMARK                            x       y       z     vdW  Elec       q    Type
REMARK                         _______ _______ _______ _____ _____    ______ ____
ROOT
ATOM      1  C   UNL     1       8.788  13.012  21.739  0.00  0.00    +0.000 A 
ATOM      2  C   UNL     1       8.022  14.166  21.910  0.00  0.00    +0.000 A 
ATOM      3  C   UNL     1       8.434  15.024  23.097  0.00  0.00    +0.000 C 
ATOM      4  C   UNL     1       7.488  14.823  20.800  0.00  0.00    +0.000 A 
ATOM      5  C   UNL     1       8.228  14.717  19.592  0.00  0.00    +0.000 A 
ATOM      6  C   UNL     1       9.341  13.775  19.480  0.00  0.00    +0.000 A 
ATOM      7  C   UNL     1       9.546  12.860  20.559  0.00  0.00    +0.000 A 
ATOM      8  C   UNL     1      10.687  11.880  20.703  0.00  0.00    +0.000 C 
ENDROOT
BRANCH   6   9
ATOM      9  C   UNL     1      10.339  13.885  18.304  0.00  0.00    +0.000 C 
ATOM     10  C   UNL     1      11.678  14.441  18.818  0.00  0.00    +0.000 C 
ATOM     11  C   UNL     1      10.631  12.652  17.426  0.00  0.00    +0.000 C 
ENDBRANCH   6   9
BRANCH   1  13
ATOM     12  C   UNL     1       7.970  11.543  23.436  0.00  0.00    +0.000 C 
ATOM     13  O   UNL     1       9.078  12.142  22.769  0.00  0.00    +0.000 OA
ENDBRANCH   1  13
BRANCH   5  14
ATOM     14  C   UNL     1       8.048  15.808  18.579  0.00  0.00    +0.000 C 
ATOM     15  O   UNL     1       7.411  15.621  17.541  0.00  0.00    +0.000 OA
BRANCH  14  16
ATOM     16  S   UNL     1       8.779  17.392  18.891  0.00  0.00    +0.000 S 
ATOM     17  C   UNL     1       9.940  17.505  17.497  0.00  0.00    +0.000 C 
ENDBRANCH  14  16
ENDBRANCH   5  14
BRANCH   4  18
ATOM     18  O   UNL     1       6.347  15.587  20.881  0.00  0.00    +0.000 OA
BRANCH  18  19
ATOM     19  C   UNL     1       5.030  14.990  20.936  0.00  0.00    +0.000 C 
ATOM     20  O   UNL     1       4.277  14.895  19.705  0.00  0.00    +0.000 OA
ATOM     21  C   UNL     1       3.820  16.136  19.174  0.00  0.00    +0.000 C 
ATOM     22  C   UNL     1       3.044  15.843  17.887  0.00  0.00    +0.000 C 
ATOM     23  C   UNL     1       2.907  16.887  20.155  0.00  0.00    +0.000 C 
ATOM     24  C   UNL     1       3.537  16.987  21.551  0.00  0.00    +0.000 C 
ATOM     25  C   UNL     1       4.151  15.661  22.024  0.00  0.00    +0.000 C 
BRANCH  23  26
ATOM     26  O   UNL     1       2.594  18.181  19.624  0.00  0.00    +0.000 OA
ATOM     27  H   UNL     1       1.649  18.354  19.772  0.00  0.00    +0.000 HD
ENDBRANCH  23  26
BRANCH  24  28
ATOM     28  O   UNL     1       2.536  17.418  22.492  0.00  0.00    +0.000 OA
ATOM     29  H   UNL     1       1.927  16.669  22.646  0.00  0.00    +0.000 HD
ENDBRANCH  24  28
BRANCH  25  30
ATOM     30  O   UNL     1       3.076  14.780  22.432  0.00  0.00    +0.000 OA
ATOM     31  H   UNL     1       2.602  14.477  21.635  0.00  0.00    +0.000 HD
ENDBRANCH  25  30
ENDBRANCH  18  19
ENDBRANCH   4  18
TORSDOF 9
ENDMDL
MODEL 9
REMARK VINA RESULT:      -5.2      6.264     10.881
REMARK  Name = 
REMARK  16 active torsions:
REMARK  status: ('A' for Active; 'I' for Inactive)
REMARK    1  A    between atoms: C_1  and  O_2
REMARK    2  A    between atoms: O_2  and  C_3
REMARK    3  A    between atoms: C_4  and  C_5
REMARK    4  A    between atoms: C_6  and  O_7
REMARK    5  A    between atoms: O_7  and  C_8
REMARK    6  A    between atoms: C_10  and  C_11
REMARK    7  A    between atoms: C_12  and  O_13
REMARK    8  A    between atoms: C_14  and  O_15
REMARK    9  A    between atoms: C_16  and  O_17
REMARK   10  A    between atoms: C_18  and  C_19
REMARK   11  A    between atoms: C_19  and  S_21
REMARK   12  A    between atoms: S_21  and  C_22
REMARK   13  A    between atoms: C_23  and  C_24
REMARK   14  A    between atoms: C_24  and  C_25
REMARK   15  A    between atoms: C_24  and  C_26
REMARK   16  A    between atoms: C_27  and  C_28
REMARK                            x       y       z     vdW  Elec       q    Type
REMARK                         _______ _______ _______ _____ _____    ______ ____
ROOT
ATOM      1  C   UNL     1      -6.013  11.302  19.697  0.00  0.00    +0.000 A 
ATOM      2  C   UNL     1      -4.862  11.743  19.043  0.00  0.00    +0.000 A 
ATOM      3  C   UNL     1      -5.091  12.220  17.617  0.00  0.00    +0.000 C 
ATOM      4  C   UNL     1      -3.838  12.357  19.766  0.00  0.00    +0.000 A 
ATOM      5  C   UNL     1      -4.232  13.077  20.926  0.00  0.00    +0.000 A 
ATOM      6  C   UNL     1      -5.595  12.962  21.446  0.00  0.00    +0.000 A 
ATOM      7  C   UNL     1      -6.452  11.986  20.850  0.00  0.00    +0.000 A 
ATOM      8  C   UNL     1      -7.916  11.768  21.155  0.00  0.00    +0.000 C 
ENDROOT
BRANCH   6   9
ATOM      9  C   UNL     1      -6.117  13.974  22.493  0.00  0.00    +0.000 C 
ATOM     10  C   UNL     1      -7.044  14.990  21.806  0.00  0.00    +0.000 C 
ATOM     11  C   UNL     1      -6.814  13.467  23.771  0.00  0.00    +0.000 C 
ENDBRANCH   6   9
BRANCH   1  13
ATOM     12  C   UNL     1      -6.827   9.060  19.546  0.00  0.00    +0.000 C 
ATOM     13  O   UNL     1      -6.910  10.421  19.129  0.00  0.00    +0.000 OA
ENDBRANCH   1  13
BRANCH   5  14
ATOM     14  C   UNL     1      -3.331  14.182  21.389  0.00  0.00    +0.000 C 
ATOM     15  O   UNL     1      -3.170  15.202  20.717  0.00  0.00    +0.000 OA
BRANCH  14  16
ATOM     16  S   UNL     1      -2.479  13.999  22.932  0.00  0.00    +0.000 S 
ATOM     17  C   UNL     1      -1.213  15.294  22.771  0.00  0.00    +0.000 C 
ENDBRANCH  14  16
ENDBRANCH   5  14
BRANCH   4  18
ATOM     18  O   UNL     1      -2.528  12.329  19.348  0.00  0.00    +0.000 OA
BRANCH  18  19
ATOM     19  C   UNL     1      -1.499  11.647  20.104  0.00  0.00    +0.000 C 
ATOM     20  O   UNL     1      -0.406  12.438  20.627  0.00  0.00    +0.000 OA
ATOM     21  C   UNL     1       0.492  12.956  19.650  0.00  0.00    +0.000 C 
ATOM     22  C   UNL     1       1.578  13.752  20.379  0.00  0.00    +0.000 C 
ATOM     23  C   UNL     1       1.151  11.845  18.819  0.00  0.00    +0.000 C 
ATOM     24  C   UNL     1       0.114  10.858  18.268  0.00  0.00    +0.000 C 
ATOM     25  C   UNL     1      -0.927  10.439  19.317  0.00  0.00    +0.000 C 
BRANCH  23  26
ATOM     26  O   UNL     1       1.932  12.430  17.769  0.00  0.00    +0.000 OA
ATOM     27  H   UNL     1       2.222  11.721  17.170  0.00  0.00    +0.000 HD
ENDBRANCH  23  26
BRANCH  24  28
ATOM     28  O   UNL     1       0.790   9.690  17.766  0.00  0.00    +0.000 OA
ATOM     29  H   UNL     1       0.302   8.904  18.081  0.00  0.00    +0.000 HD
ENDBRANCH  24  28
BRANCH  25  30
ATOM     30  O   UNL     1      -0.310   9.486  20.216  0.00  0.00    +0.000 OA
ATOM     31  H   UNL     1       0.639   9.421  19.997  0.00  0.00    +0.000 HD
ENDBRANCH  25  30
ENDBRANCH  18  19
ENDBRANCH   4  18
TORSDOF 9
ENDMDL
