MODEL 1
REMARK VINA RESULT:      -8.1      0.000      0.000
REMARK  Name = 
REMARK  7 active torsions:
REMARK  status: ('A' for Active; 'I' for Inactive)
REMARK    1  A    between atoms: C_1  and  C_2
REMARK    2  A    between atoms: C_2  and  C_3
REMARK    3  A    between atoms: C_3  and  C_4
REMARK    4  A    between atoms: C_7  and  C_8
REMARK    5  A    between atoms: C_13  and  C_14
REMARK    6  A    between atoms: C_14  and  N_15
REMARK    7  A    between atoms: N_21  and  C_22
REMARK                            x       y       z     vdW  Elec       q    Type
REMARK                         _______ _______ _______ _____ _____    ______ ____
ROOT
ATOM      1  C   UNL     1       1.846   8.442  18.991  0.00  0.00    +0.000 C 
ATOM      2  O   UNL     1       1.971   9.015  17.910  0.00  0.00    +0.000 OA
ATOM      3  N   UNL     1       2.396   7.196  19.235  0.00  0.00    +0.000 N 
ATOM      4  C   UNL     1       3.332   6.634  18.222  0.00  0.00    +0.000 C 
ATOM      5  C   UNL     1       3.223   5.210  18.528  0.00  0.00    +0.000 A 
ATOM      6  C   UNL     1       3.629   3.951  18.084  0.00  0.00    +0.000 A 
ATOM      7  N   UNL     1       3.087   2.983  18.857  0.00  0.00    +0.000 NA
ATOM      8  N   UNL     1       2.349   3.651  19.786  0.00  0.00    +0.000 N 
ATOM      9  C   UNL     1       1.598   2.934  20.784  0.00  0.00    +0.000 C 
ATOM     10  C   UNL     1       2.421   4.985  19.604  0.00  0.00    +0.000 A 
ATOM     11  C   UNL     1       1.871   6.189  20.212  0.00  0.00    +0.000 C 
ENDROOT
BRANCH   1  15
ATOM     12  C   UNL     1      -0.412  10.254  22.158  0.00  0.00    +0.000 A 
ATOM     13  C   UNL     1       0.626   9.354  22.444  0.00  0.00    +0.000 A 
ATOM     14  C   UNL     1       1.398   8.810  21.411  0.00  0.00    +0.000 A 
ATOM     15  C   UNL     1       1.127   9.153  20.082  0.00  0.00    +0.000 A 
ATOM     16  C   UNL     1       0.083  10.031  19.792  0.00  0.00    +0.000 A 
ATOM     17  C   UNL     1      -0.666  10.596  20.824  0.00  0.00    +0.000 A 
BRANCH  12  18
ATOM     18  C   UNL     1      -1.297  10.816  23.244  0.00  0.00    +0.000 C 
BRANCH  18  20
ATOM     19  C   UNL     1      -3.256  12.439  23.345  0.00  0.00    +0.000 C 
ATOM     20  C   UNL     1      -1.788  12.242  22.993  0.00  0.00    +0.000 C 
ENDBRANCH  18  20
ENDBRANCH  12  18
ENDBRANCH   1  15
BRANCH   6  21
ATOM     21  C   UNL     1       4.500   3.632  16.920  0.00  0.00    +0.000 C 
BRANCH  21  22
ATOM     22  N   UNL     1       5.703   4.448  16.915  0.00  0.00    +0.000 N 
ATOM     23  C   UNL     1       6.565   4.638  17.961  0.00  0.00    +0.000 A 
ATOM     24  C   UNL     1       7.497   5.530  17.494  0.00  0.00    +0.000 A 
ATOM     25  N   UNL     1       7.228   5.885  16.197  0.00  0.00    +0.000 NA
ATOM     26  C   UNL     1       6.141   5.223  15.878  0.00  0.00    +0.000 A 
ENDBRANCH  21  22
ENDBRANCH   6  21
TORSDOF 5
ENDMDL
MODEL 2
REMARK VINA RESULT:      -7.9      1.013      1.150
REMARK  Name = 
REMARK  7 active torsions:
REMARK  status: ('A' for Active; 'I' for Inactive)
REMARK    1  A    between atoms: C_1  and  C_2
REMARK    2  A    between atoms: C_2  and  C_3
REMARK    3  A    between atoms: C_3  and  C_4
REMARK    4  A    between atoms: C_7  and  C_8
REMARK    5  A    between atoms: C_13  and  C_14
REMARK    6  A    between atoms: C_14  and  N_15
REMARK    7  A    between atoms: N_21  and  C_22
REMARK                            x       y       z     vdW  Elec       q    Type
REMARK                         _______ _______ _______ _____ _____    ______ ____
ROOT
ATOM      1  C   UNL     1       1.445   9.187  18.838  0.00  0.00    +0.000 C 
ATOM      2  O   UNL     1       1.306   9.596  17.687  0.00  0.00    +0.000 OA
ATOM      3  N   UNL     1       2.156   8.037  19.133  0.00  0.00    +0.000 N 
ATOM      4  C   UNL     1       2.939   7.399  18.039  0.00  0.00    +0.000 C 
ATOM      5  C   UNL     1       3.035   6.034  18.549  0.00  0.00    +0.000 A 
ATOM      6  C   UNL     1       3.478   4.756  18.208  0.00  0.00    +0.000 A 
ATOM      7  N   UNL     1       3.192   3.879  19.197  0.00  0.00    +0.000 NA
ATOM      8  N   UNL     1       2.576   4.625  20.157  0.00  0.00    +0.000 N 
ATOM      9  C   UNL     1       2.103   4.014  21.371  0.00  0.00    +0.000 C 
ATOM     10  C   UNL     1       2.476   5.916  19.785  0.00  0.00    +0.000 A 
ATOM     11  C   UNL     1       1.929   7.155  20.322  0.00  0.00    +0.000 C 
ENDROOT
BRANCH   1  15
ATOM     12  C   UNL     1      -0.448  11.578  21.856  0.00  0.00    +0.000 A 
ATOM     13  C   UNL     1      -0.738  10.210  21.742  0.00  0.00    +0.000 A 
ATOM     14  C   UNL     1      -0.076   9.422  20.795  0.00  0.00    +0.000 A 
ATOM     15  C   UNL     1       0.873  10.001  19.944  0.00  0.00    +0.000 A 
ATOM     16  C   UNL     1       1.149  11.364  20.042  0.00  0.00    +0.000 A 
ATOM     17  C   UNL     1       0.511  12.143  21.006  0.00  0.00    +0.000 A 
BRANCH  12  18
ATOM     18  C   UNL     1      -1.184  12.467  22.831  0.00  0.00    +0.000 C 
BRANCH  18  20
ATOM     19  C   UNL     1      -3.676  12.794  23.234  0.00  0.00    +0.000 C 
ATOM     20  C   UNL     1      -2.476  11.870  23.388  0.00  0.00    +0.000 C 
ENDBRANCH  18  20
ENDBRANCH  12  18
ENDBRANCH   1  15
BRANCH   6  21
ATOM     21  C   UNL     1       4.144   4.328  16.947  0.00  0.00    +0.000 C 
BRANCH  21  22
ATOM     22  N   UNL     1       5.591   4.407  17.055  0.00  0.00    +0.000 N 
ATOM     23  C   UNL     1       6.313   4.648  18.193  0.00  0.00    +0.000 A 
ATOM     24  C   UNL     1       7.620   4.693  17.781  0.00  0.00    +0.000 A 
ATOM     25  N   UNL     1       7.714   4.484  16.429  0.00  0.00    +0.000 NA
ATOM     26  C   UNL     1       6.478   4.320  16.019  0.00  0.00    +0.000 A 
ENDBRANCH  21  22
ENDBRANCH   6  21
TORSDOF 5
ENDMDL
MODEL 3
REMARK VINA RESULT:      -7.9      1.140      1.570
REMARK  Name = 
REMARK  7 active torsions:
REMARK  status: ('A' for Active; 'I' for Inactive)
REMARK    1  A    between atoms: C_1  and  C_2
REMARK    2  A    between atoms: C_2  and  C_3
REMARK    3  A    between atoms: C_3  and  C_4
REMARK    4  A    between atoms: C_7  and  C_8
REMARK    5  A    between atoms: C_13  and  C_14
REMARK    6  A    between atoms: C_14  and  N_15
REMARK    7  A    between atoms: N_21  and  C_22
REMARK                            x       y       z     vdW  Elec       q    Type
REMARK                         _______ _______ _______ _____ _____    ______ ____
ROOT
ATOM      1  C   UNL     1       1.713   8.914  18.375  0.00  0.00    +0.000 C 
ATOM      2  O   UNL     1       1.960   9.285  17.229  0.00  0.00    +0.000 OA
ATOM      3  N   UNL     1       2.352   7.833  18.956  0.00  0.00    +0.000 N 
ATOM      4  C   UNL     1       3.511   7.236  18.236  0.00  0.00    +0.000 C 
ATOM      5  C   UNL     1       3.515   5.895  18.815  0.00  0.00    +0.000 A 
ATOM      6  C   UNL     1       4.136   4.650  18.713  0.00  0.00    +0.000 A 
ATOM      7  N   UNL     1       3.582   3.775  19.583  0.00  0.00    +0.000 NA
ATOM      8  N   UNL     1       2.619   4.490  20.229  0.00  0.00    +0.000 N 
ATOM      9  C   UNL     1       1.792   3.870  21.231  0.00  0.00    +0.000 C 
ATOM     10  C   UNL     1       2.568   5.760  19.782  0.00  0.00    +0.000 A 
ATOM     11  C   UNL     1       1.783   6.962  20.033  0.00  0.00    +0.000 C 
ENDROOT
BRANCH   1  15
ATOM     12  C   UNL     1      -0.996  11.440  20.541  0.00  0.00    +0.000 A 
ATOM     13  C   UNL     1      -1.298  11.021  19.236  0.00  0.00    +0.000 A 
ATOM     14  C   UNL     1      -0.439  10.151  18.555  0.00  0.00    +0.000 A 
ATOM     15  C   UNL     1       0.735   9.703  19.170  0.00  0.00    +0.000 A 
ATOM     16  C   UNL     1       1.048  10.133  20.460  0.00  0.00    +0.000 A 
ATOM     17  C   UNL     1       0.177  10.977  21.149  0.00  0.00    +0.000 A 
BRANCH  12  18
ATOM     18  C   UNL     1      -1.873  12.420  21.283  0.00  0.00    +0.000 C 
BRANCH  18  20
ATOM     19  C   UNL     1      -2.981  12.098  23.552  0.00  0.00    +0.000 C 
ATOM     20  C   UNL     1      -1.695  12.413  22.801  0.00  0.00    +0.000 C 
ENDBRANCH  18  20
ENDBRANCH  12  18
ENDBRANCH   1  15
BRANCH   6  21
ATOM     21  C   UNL     1       5.231   4.251  17.786  0.00  0.00    +0.000 C 
BRANCH  21  22
ATOM     22  N   UNL     1       6.279   5.255  17.735  0.00  0.00    +0.000 N 
ATOM     23  C   UNL     1       7.028   5.708  18.788  0.00  0.00    +0.000 A 
ATOM     24  C   UNL     1       7.829   6.688  18.259  0.00  0.00    +0.000 A 
ATOM     25  N   UNL     1       7.590   6.843  16.917  0.00  0.00    +0.000 NA
ATOM     26  C   UNL     1       6.650   5.971  16.632  0.00  0.00    +0.000 A 
ENDBRANCH  21  22
ENDBRANCH   6  21
TORSDOF 5
ENDMDL
MODEL 4
REMARK VINA RESULT:      -7.9      0.372      1.017
REMARK  Name = 
REMARK  7 active torsions:
REMARK  status: ('A' for Active; 'I' for Inactive)
REMARK    1  A    between atoms: C_1  and  C_2
REMARK    2  A    between atoms: C_2  and  C_3
REMARK    3  A    between atoms: C_3  and  C_4
REMARK    4  A    between atoms: C_7  and  C_8
REMARK    5  A    between atoms: C_13  and  C_14
REMARK    6  A    between atoms: C_14  and  N_15
REMARK    7  A    between atoms: N_21  and  C_22
REMARK                            x       y       z     vdW  Elec       q    Type
REMARK                         _______ _______ _______ _____ _____    ______ ____
ROOT
ATOM      1  C   UNL     1       1.738   8.489  19.041  0.00  0.00    +0.000 C 
ATOM      2  O   UNL     1       1.934   9.119  18.004  0.00  0.00    +0.000 OA
ATOM      3  N   UNL     1       2.297   7.243  19.267  0.00  0.00    +0.000 N 
ATOM      4  C   UNL     1       3.325   6.754  18.307  0.00  0.00    +0.000 C 
ATOM      5  C   UNL     1       3.227   5.314  18.531  0.00  0.00    +0.000 A 
ATOM      6  C   UNL     1       3.698   4.088  18.061  0.00  0.00    +0.000 A 
ATOM      7  N   UNL     1       3.120   3.071  18.738  0.00  0.00    +0.000 NA
ATOM      8  N   UNL     1       2.294   3.675  19.637  0.00  0.00    +0.000 N 
ATOM      9  C   UNL     1       1.484   2.892  20.533  0.00  0.00    +0.000 C 
ATOM     10  C   UNL     1       2.348   5.017  19.527  0.00  0.00    +0.000 A 
ATOM     11  C   UNL     1       1.721   6.177  20.147  0.00  0.00    +0.000 C 
ENDROOT
BRANCH   1  15
ATOM     12  C   UNL     1      -0.438  10.565  22.102  0.00  0.00    +0.000 A 
ATOM     13  C   UNL     1      -0.664  10.849  20.746  0.00  0.00    +0.000 A 
ATOM     14  C   UNL     1       0.006  10.130  19.750  0.00  0.00    +0.000 A 
ATOM     15  C   UNL     1       0.916   9.128  20.104  0.00  0.00    +0.000 A 
ATOM     16  C   UNL     1       1.157   8.856  21.451  0.00  0.00    +0.000 A 
ATOM     17  C   UNL     1       0.468   9.554  22.442  0.00  0.00    +0.000 A 
BRANCH  12  18
ATOM     18  C   UNL     1      -1.103  11.359  23.200  0.00  0.00    +0.000 C 
BRANCH  18  20
ATOM     19  C   UNL     1      -2.679  13.332  23.525  0.00  0.00    +0.000 C 
ATOM     20  C   UNL     1      -2.425  12.017  22.802  0.00  0.00    +0.000 C 
ENDBRANCH  18  20
ENDBRANCH  12  18
ENDBRANCH   1  15
BRANCH   6  21
ATOM     21  C   UNL     1       4.667   3.848  16.956  0.00  0.00    +0.000 C 
BRANCH  21  22
ATOM     22  N   UNL     1       5.839   4.697  17.081  0.00  0.00    +0.000 N 
ATOM     23  C   UNL     1       6.665   4.793  18.169  0.00  0.00    +0.000 A 
ATOM     24  C   UNL     1       7.578   5.762  17.837  0.00  0.00    +0.000 A 
ATOM     25  N   UNL     1       7.333   6.255  16.581  0.00  0.00    +0.000 NA
ATOM     26  C   UNL     1       6.278   5.599  16.154  0.00  0.00    +0.000 A 
ENDBRANCH  21  22
ENDBRANCH   6  21
TORSDOF 5
ENDMDL
MODEL 5
REMARK VINA RESULT:      -7.6      1.154      1.682
REMARK  Name = 
REMARK  7 active torsions:
REMARK  status: ('A' for Active; 'I' for Inactive)
REMARK    1  A    between atoms: C_1  and  C_2
REMARK    2  A    between atoms: C_2  and  C_3
REMARK    3  A    between atoms: C_3  and  C_4
REMARK    4  A    between atoms: C_7  and  C_8
REMARK    5  A    between atoms: C_13  and  C_14
REMARK    6  A    between atoms: C_14  and  N_15
REMARK    7  A    between atoms: N_21  and  C_22
REMARK                            x       y       z     vdW  Elec       q    Type
REMARK                         _______ _______ _______ _____ _____    ______ ____
ROOT
ATOM      1  C   UNL     1       0.869   9.459  18.990  0.00  0.00    +0.000 C 
ATOM      2  O   UNL     1       0.745   9.926  17.860  0.00  0.00    +0.000 OA
ATOM      3  N   UNL     1       1.718   8.401  19.264  0.00  0.00    +0.000 N 
ATOM      4  C   UNL     1       2.651   7.958  18.192  0.00  0.00    +0.000 C 
ATOM      5  C   UNL     1       2.911   6.587  18.623  0.00  0.00    +0.000 A 
ATOM      6  C   UNL     1       3.554   5.410  18.236  0.00  0.00    +0.000 A 
ATOM      7  N   UNL     1       3.336   4.434  19.145  0.00  0.00    +0.000 NA
ATOM      8  N   UNL     1       2.561   5.016  20.102  0.00  0.00    +0.000 N 
ATOM      9  C   UNL     1       2.105   4.261  21.240  0.00  0.00    +0.000 C 
ATOM     10  C   UNL     1       2.299   6.304  19.805  0.00  0.00    +0.000 A 
ATOM     11  C   UNL     1       1.547   7.413  20.377  0.00  0.00    +0.000 C 
ENDROOT
BRANCH   1  15
ATOM     12  C   UNL     1      -1.119  11.561  22.159  0.00  0.00    +0.000 A 
ATOM     13  C   UNL     1      -1.490  11.767  20.821  0.00  0.00    +0.000 A 
ATOM     14  C   UNL     1      -0.879  11.037  19.796  0.00  0.00    +0.000 A 
ATOM     15  C   UNL     1       0.118  10.103  20.101  0.00  0.00    +0.000 A 
ATOM     16  C   UNL     1       0.503   9.911  21.427  0.00  0.00    +0.000 A 
ATOM     17  C   UNL     1      -0.127  10.617  22.451  0.00  0.00    +0.000 A 
BRANCH  12  18
ATOM     18  C   UNL     1      -1.719  12.371  23.283  0.00  0.00    +0.000 C 
BRANCH  18  20
ATOM     19  C   UNL     1      -4.045  12.469  24.314  0.00  0.00    +0.000 C 
ATOM     20  C   UNL     1      -3.189  12.744  23.086  0.00  0.00    +0.000 C 
ENDBRANCH  18  20
ENDBRANCH  12  18
ENDBRANCH   1  15
BRANCH   6  21
ATOM     21  C   UNL     1       4.352   5.172  17.001  0.00  0.00    +0.000 C 
BRANCH  21  22
ATOM     22  N   UNL     1       5.765   5.016  17.302  0.00  0.00    +0.000 N 
ATOM     23  C   UNL     1       6.428   5.516  18.390  0.00  0.00    +0.000 A 
ATOM     24  C   UNL     1       7.740   5.166  18.197  0.00  0.00    +0.000 A 
ATOM     25  N   UNL     1       7.894   4.468  17.027  0.00  0.00    +0.000 NA
ATOM     26  C   UNL     1       6.690   4.397  16.508  0.00  0.00    +0.000 A 
ENDBRANCH  21  22
ENDBRANCH   6  21
TORSDOF 5
ENDMDL
MODEL 6
REMARK VINA RESULT:      -7.5      1.036      1.182
REMARK  Name = 
REMARK  7 active torsions:
REMARK  status: ('A' for Active; 'I' for Inactive)
REMARK    1  A    between atoms: C_1  and  C_2
REMARK    2  A    between atoms: C_2  and  C_3
REMARK    3  A    between atoms: C_3  and  C_4
REMARK    4  A    between atoms: C_7  and  C_8
REMARK    5  A    between atoms: C_13  and  C_14
REMARK    6  A    between atoms: C_14  and  N_15
REMARK    7  A    between atoms: N_21  and  C_22
REMARK                            x       y       z     vdW  Elec       q    Type
REMARK                         _______ _______ _______ _____ _____    ______ ____
ROOT
ATOM      1  C   UNL     1       1.747   8.951  18.381  0.00  0.00    +0.000 C 
ATOM      2  O   UNL     1       1.938   9.296  17.216  0.00  0.00    +0.000 OA
ATOM      3  N   UNL     1       2.361   7.842  18.934  0.00  0.00    +0.000 N 
ATOM      4  C   UNL     1       3.435   7.173  18.149  0.00  0.00    +0.000 C 
ATOM      5  C   UNL     1       3.403   5.840  18.745  0.00  0.00    +0.000 A 
ATOM      6  C   UNL     1       3.946   4.561  18.621  0.00  0.00    +0.000 A 
ATOM      7  N   UNL     1       3.402   3.728  19.537  0.00  0.00    +0.000 NA
ATOM      8  N   UNL     1       2.525   4.503  20.235  0.00  0.00    +0.000 N 
ATOM      9  C   UNL     1       1.733   3.941  21.298  0.00  0.00    +0.000 C 
ATOM     10  C   UNL     1       2.515   5.769  19.774  0.00  0.00    +0.000 A 
ATOM     11  C   UNL     1       1.817   7.016  20.059  0.00  0.00    +0.000 C 
ENDROOT
BRANCH   1  15
ATOM     12  C   UNL     1      -0.913  11.153  20.928  0.00  0.00    +0.000 A 
ATOM     13  C   UNL     1       0.291  10.635  21.429  0.00  0.00    +0.000 A 
ATOM     14  C   UNL     1       1.182   9.967  20.582  0.00  0.00    +0.000 A 
ATOM     15  C   UNL     1       0.869   9.803  19.228  0.00  0.00    +0.000 A 
ATOM     16  C   UNL     1      -0.336  10.300  18.731  0.00  0.00    +0.000 A 
ATOM     17  C   UNL     1      -1.210  10.990  19.569  0.00  0.00    +0.000 A 
BRANCH  12  18
ATOM     18  C   UNL     1      -1.921  11.830  21.826  0.00  0.00    +0.000 C 
BRANCH  18  20
ATOM     19  C   UNL     1      -0.944  13.910  22.922  0.00  0.00    +0.000 C 
ATOM     20  C   UNL     1      -1.331  12.448  23.094  0.00  0.00    +0.000 C 
ENDBRANCH  18  20
ENDBRANCH  12  18
ENDBRANCH   1  15
BRANCH   6  21
ATOM     21  C   UNL     1       4.952   4.091  17.630  0.00  0.00    +0.000 C 
BRANCH  21  22
ATOM     22  N   UNL     1       6.058   5.025  17.509  0.00  0.00    +0.000 N 
ATOM     23  C   UNL     1       6.852   5.487  18.524  0.00  0.00    +0.000 A 
ATOM     24  C   UNL     1       7.699   6.387  17.930  0.00  0.00    +0.000 A 
ATOM     25  N   UNL     1       7.446   6.485  16.586  0.00  0.00    +0.000 NA
ATOM     26  C   UNL     1       6.451   5.658  16.363  0.00  0.00    +0.000 A 
ENDBRANCH  21  22
ENDBRANCH   6  21
TORSDOF 5
ENDMDL
MODEL 7
REMARK VINA RESULT:      -7.4      3.000      9.273
REMARK  Name = 
REMARK  7 active torsions:
REMARK  status: ('A' for Active; 'I' for Inactive)
REMARK    1  A    between atoms: C_1  and  C_2
REMARK    2  A    between atoms: C_2  and  C_3
REMARK    3  A    between atoms: C_3  and  C_4
REMARK    4  A    between atoms: C_7  and  C_8
REMARK    5  A    between atoms: C_13  and  C_14
REMARK    6  A    between atoms: C_14  and  N_15
REMARK    7  A    between atoms: N_21  and  C_22
REMARK                            x       y       z     vdW  Elec       q    Type
REMARK                         _______ _______ _______ _____ _____    ______ ____
ROOT
ATOM      1  C   UNL     1       2.091   6.705  19.990  0.00  0.00    +0.000 C 
ATOM      2  O   UNL     1       1.888   5.857  20.857  0.00  0.00    +0.000 OA
ATOM      3  N   UNL     1       1.690   8.022  20.135  0.00  0.00    +0.000 N 
ATOM      4  C   UNL     1       1.181   8.455  21.466  0.00  0.00    +0.000 C 
ATOM      5  C   UNL     1       0.383   9.614  21.075  0.00  0.00    +0.000 A 
ATOM      6  C   UNL     1      -0.500  10.569  21.581  0.00  0.00    +0.000 A 
ATOM      7  N   UNL     1      -0.936  11.379  20.590  0.00  0.00    +0.000 NA
ATOM      8  N   UNL     1      -0.310  10.924  19.468  0.00  0.00    +0.000 N 
ATOM      9  C   UNL     1      -0.550  11.542  18.190  0.00  0.00    +0.000 C 
ATOM     10  C   UNL     1       0.484   9.870  19.743  0.00  0.00    +0.000 A 
ATOM     11  C   UNL     1       1.358   8.959  19.015  0.00  0.00    +0.000 C 
ENDROOT
BRANCH   1  15
ATOM     12  C   UNL     1       4.492   5.428  16.671  0.00  0.00    +0.000 A 
ATOM     13  C   UNL     1       3.643   4.524  17.329  0.00  0.00    +0.000 A 
ATOM     14  C   UNL     1       2.819   4.959  18.373  0.00  0.00    +0.000 A 
ATOM     15  C   UNL     1       2.848   6.299  18.776  0.00  0.00    +0.000 A 
ATOM     16  C   UNL     1       3.705   7.194  18.137  0.00  0.00    +0.000 A 
ATOM     17  C   UNL     1       4.504   6.768  17.077  0.00  0.00    +0.000 A 
BRANCH  12  18
ATOM     18  C   UNL     1       5.432   4.980  15.578  0.00  0.00    +0.000 C 
BRANCH  18  20
ATOM     19  C   UNL     1       7.399   4.549  17.136  0.00  0.00    +0.000 C 
ATOM     20  C   UNL     1       6.912   5.233  15.866  0.00  0.00    +0.000 C 
ENDBRANCH  18  20
ENDBRANCH  12  18
ENDBRANCH   1  15
BRANCH   6  21
ATOM     21  C   UNL     1      -0.972  10.720  22.985  0.00  0.00    +0.000 C 
BRANCH  21  22
ATOM     22  N   UNL     1      -1.665  11.982  23.181  0.00  0.00    +0.000 N 
ATOM     23  C   UNL     1      -3.011  12.155  23.359  0.00  0.00    +0.000 A 
ATOM     24  C   UNL     1      -3.187  13.514  23.434  0.00  0.00    +0.000 A 
ATOM     25  N   UNL     1      -1.989  14.170  23.308  0.00  0.00    +0.000 NA
ATOM     26  C   UNL     1      -1.093  13.223  23.152  0.00  0.00    +0.000 A 
ENDBRANCH  21  22
ENDBRANCH   6  21
TORSDOF 5
ENDMDL
MODEL 8
REMARK VINA RESULT:      -7.3      3.772      9.777
REMARK  Name = 
REMARK  7 active torsions:
REMARK  status: ('A' for Active; 'I' for Inactive)
REMARK    1  A    between atoms: C_1  and  C_2
REMARK    2  A    between atoms: C_2  and  C_3
REMARK    3  A    between atoms: C_3  and  C_4
REMARK    4  A    between atoms: C_7  and  C_8
REMARK    5  A    between atoms: C_13  and  C_14
REMARK    6  A    between atoms: C_14  and  N_15
REMARK    7  A    between atoms: N_21  and  C_22
REMARK                            x       y       z     vdW  Elec       q    Type
REMARK                         _______ _______ _______ _____ _____    ______ ____
ROOT
ATOM      1  C   UNL     1       1.054   9.009  20.952  0.00  0.00    +0.000 C 
ATOM      2  O   UNL     1       1.281   8.861  22.151  0.00  0.00    +0.000 OA
ATOM      3  N   UNL     1       0.328  10.082  20.464  0.00  0.00    +0.000 N 
ATOM      4  C   UNL     1      -0.008  11.185  21.406  0.00  0.00    +0.000 C 
ATOM      5  C   UNL     1      -1.167  11.761  20.730  0.00  0.00    +0.000 A 
ATOM      6  C   UNL     1      -2.168  12.721  20.879  0.00  0.00    +0.000 A 
ATOM      7  N   UNL     1      -3.007  12.695  19.819  0.00  0.00    +0.000 NA
ATOM      8  N   UNL     1      -2.514  11.716  19.009  0.00  0.00    +0.000 N 
ATOM      9  C   UNL     1      -3.173  11.384  17.773  0.00  0.00    +0.000 C 
ATOM     10  C   UNL     1      -1.413  11.150  19.540  0.00  0.00    +0.000 A 
ATOM     11  C   UNL     1      -0.476  10.086  19.201  0.00  0.00    +0.000 C 
ENDROOT
BRANCH   1  15
ATOM     12  C   UNL     1       3.002   6.204  18.354  0.00  0.00    +0.000 A 
ATOM     13  C   UNL     1       2.490   5.794  19.594  0.00  0.00    +0.000 A 
ATOM     14  C   UNL     1       1.805   6.698  20.412  0.00  0.00    +0.000 A 
ATOM     15  C   UNL     1       1.638   8.026  20.001  0.00  0.00    +0.000 A 
ATOM     16  C   UNL     1       2.163   8.442  18.778  0.00  0.00    +0.000 A 
ATOM     17  C   UNL     1       2.820   7.533  17.950  0.00  0.00    +0.000 A 
BRANCH  12  18
ATOM     18  C   UNL     1       3.794   5.268  17.472  0.00  0.00    +0.000 C 
BRANCH  18  20
ATOM     19  C   UNL     1       5.309   5.951  15.544  0.00  0.00    +0.000 C 
ATOM     20  C   UNL     1       5.166   5.794  17.052  0.00  0.00    +0.000 C 
ENDBRANCH  18  20
ENDBRANCH  12  18
ENDBRANCH   1  15
BRANCH   6  21
ATOM     21  C   UNL     1      -2.374  13.654  22.021  0.00  0.00    +0.000 C 
BRANCH  21  22
ATOM     22  N   UNL     1      -3.467  13.219  22.874  0.00  0.00    +0.000 N 
ATOM     23  C   UNL     1      -4.725  13.756  22.926  0.00  0.00    +0.000 A 
ATOM     24  C   UNL     1      -5.368  13.059  23.917  0.00  0.00    +0.000 A 
ATOM     25  N   UNL     1      -4.540  12.114  24.467  0.00  0.00    +0.000 NA
ATOM     26  C   UNL     1      -3.402  12.237  23.823  0.00  0.00    +0.000 A 
ENDBRANCH  21  22
ENDBRANCH   6  21
TORSDOF 5
ENDMDL
MODEL 9
REMARK VINA RESULT:      -7.3      3.052      9.340
REMARK  Name = 
REMARK  7 active torsions:
REMARK  status: ('A' for Active; 'I' for Inactive)
REMARK    1  A    between atoms: C_1  and  C_2
REMARK    2  A    between atoms: C_2  and  C_3
REMARK    3  A    between atoms: C_3  and  C_4
REMARK    4  A    between atoms: C_7  and  C_8
REMARK    5  A    between atoms: C_13  and  C_14
REMARK    6  A    between atoms: C_14  and  N_15
REMARK    7  A    between atoms: N_21  and  C_22
REMARK                            x       y       z     vdW  Elec       q    Type
REMARK                         _______ _______ _______ _____ _____    ______ ____
ROOT
ATOM      1  C   UNL     1       1.968   6.353  20.307  0.00  0.00    +0.000 C 
ATOM      2  O   UNL     1       1.631   5.554  21.179  0.00  0.00    +0.000 OA
ATOM      3  N   UNL     1       1.686   7.705  20.395  0.00  0.00    +0.000 N 
ATOM      4  C   UNL     1       1.138   8.223  21.678  0.00  0.00    +0.000 C 
ATOM      5  C   UNL     1       0.480   9.440  21.209  0.00  0.00    +0.000 A 
ATOM      6  C   UNL     1      -0.338  10.488  21.632  0.00  0.00    +0.000 A 
ATOM      7  N   UNL     1      -0.632  11.304  20.596  0.00  0.00    +0.000 NA
ATOM      8  N   UNL     1       0.017  10.760  19.529  0.00  0.00    +0.000 N 
ATOM      9  C   UNL     1      -0.084  11.359  18.223  0.00  0.00    +0.000 C 
ATOM     10  C   UNL     1       0.687   9.645  19.879  0.00  0.00    +0.000 A 
ATOM     11  C   UNL     1       1.515   8.635  19.233  0.00  0.00    +0.000 C 
ENDROOT
BRANCH   1  15
ATOM     12  C   UNL     1       4.301   4.626  17.147  0.00  0.00    +0.000 A 
ATOM     13  C   UNL     1       2.945   4.297  17.297  0.00  0.00    +0.000 A 
ATOM     14  C   UNL     1       2.173   4.906  18.293  0.00  0.00    +0.000 A 
ATOM     15  C   UNL     1       2.757   5.841  19.156  0.00  0.00    +0.000 A 
ATOM     16  C   UNL     1       4.109   6.155  19.022  0.00  0.00    +0.000 A 
ATOM     17  C   UNL     1       4.870   5.570  18.011  0.00  0.00    +0.000 A 
BRANCH  12  18
ATOM     18  C   UNL     1       5.174   3.948  16.119  0.00  0.00    +0.000 C 
BRANCH  18  20
ATOM     19  C   UNL     1       6.203   4.057  13.793  0.00  0.00    +0.000 C 
ATOM     20  C   UNL     1       5.586   4.837  14.945  0.00  0.00    +0.000 C 
ENDBRANCH  18  20
ENDBRANCH  12  18
ENDBRANCH   1  15
BRANCH   6  21
ATOM     21  C   UNL     1      -0.881  10.724  22.999  0.00  0.00    +0.000 C 
BRANCH  21  22
ATOM     22  N   UNL     1      -1.598  11.986  23.076  0.00  0.00    +0.000 N 
ATOM     23  C   UNL     1      -1.045  13.237  23.135  0.00  0.00    +0.000 A 
ATOM     24  C   UNL     1      -2.112  14.090  23.263  0.00  0.00    +0.000 A 
ATOM     25  N   UNL     1      -3.295  13.396  23.282  0.00  0.00    +0.000 NA
ATOM     26  C   UNL     1      -2.953  12.132  23.172  0.00  0.00    +0.000 A 
ENDBRANCH  21  22
ENDBRANCH   6  21
TORSDOF 5
ENDMDL
