MODEL 1
REMARK VINA RESULT:      -7.4      0.000      0.000
REMARK  Name = 
REMARK  3 active torsions:
REMARK  status: ('A' for Active; 'I' for Inactive)
REMARK    1  A    between atoms: C_4  and  C_5
REMARK    2  A    between atoms: N_7  and  N_8
REMARK    3  A    between atoms: C_9  and  C_10
REMARK                            x       y       z     vdW  Elec       q    Type
REMARK                         _______ _______ _______ _____ _____    ______ ____
ROOT
ATOM      1  C   UNL     1       6.929   4.560  17.384  0.00  0.00    +0.000 C 
ATOM      2  O   UNL     1       8.108   4.508  17.020  0.00  0.00    +0.000 OA
ATOM      3  N   UNL     1       6.617   4.204  18.687  0.00  0.00    +0.000 N 
ATOM      4  H   UNL     1       7.375   3.902  19.288  0.00  0.00    +0.000 HD
ENDROOT
BRANCH   1   8
ATOM      5  C   UNL     1       6.040   3.755  13.416  0.00  0.00    +0.000 C 
ATOM      6  C   UNL     1       5.710   4.349  14.565  0.00  0.00    +0.000 C 
ATOM      7  C   UNL     1       6.019   5.707  15.155  0.00  0.00    +0.000 C 
ATOM      8  C   UNL     1       5.711   5.024  16.513  0.00  0.00    +0.000 C 
ATOM      9  C   UNL     1       4.921   3.904  15.774  0.00  0.00    +0.000 C 
ENDBRANCH   1   8
BRANCH   3  10
ATOM     10  N   UNL     1       5.337   4.269  19.126  0.00  0.00    +0.000 NA
ATOM     11  C   UNL     1       4.741   3.149  19.370  0.00  0.00    +0.000 C 
BRANCH  11  12
ATOM     12  C   UNL     1       3.344   3.155  19.851  0.00  0.00    +0.000 A 
ATOM     13  C   UNL     1       3.042   2.657  21.125  0.00  0.00    +0.000 A 
ATOM     14  C   UNL     1       1.726   2.661  21.579  0.00  0.00    +0.000 A 
ATOM     15  C   UNL     1       0.713   3.163  20.762  0.00  0.00    +0.000 A 
ATOM     16  C   UNL     1       1.015   3.660  19.492  0.00  0.00    +0.000 A 
ATOM     17  C   UNL     1       2.334   3.659  19.031  0.00  0.00    +0.000 A 
ENDBRANCH  11  12
ENDBRANCH   3  10
TORSDOF 3
ENDMDL
MODEL 2
REMARK VINA RESULT:      -7.3      0.780      1.073
REMARK  Name = 
REMARK  3 active torsions:
REMARK  status: ('A' for Active; 'I' for Inactive)
REMARK    1  A    between atoms: C_4  and  C_5
REMARK    2  A    between atoms: N_7  and  N_8
REMARK    3  A    between atoms: C_9  and  C_10
REMARK                            x       y       z     vdW  Elec       q    Type
REMARK                         _______ _______ _______ _____ _____    ______ ____
ROOT
ATOM      1  C   UNL     1       7.086   4.485  17.273  0.00  0.00    +0.000 C 
ATOM      2  O   UNL     1       8.242   4.292  16.883  0.00  0.00    +0.000 OA
ATOM      3  N   UNL     1       6.789   4.274  18.610  0.00  0.00    +0.000 N 
ATOM      4  H   UNL     1       7.538   3.955  19.216  0.00  0.00    +0.000 HD
ENDROOT
BRANCH   1   8
ATOM      5  C   UNL     1       6.150   3.647  13.323  0.00  0.00    +0.000 C 
ATOM      6  C   UNL     1       5.849   4.274  14.462  0.00  0.00    +0.000 C 
ATOM      7  C   UNL     1       6.215   5.629  15.026  0.00  0.00    +0.000 C 
ATOM      8  C   UNL     1       5.885   4.983  16.397  0.00  0.00    +0.000 C 
ATOM      9  C   UNL     1       5.047   3.883  15.681  0.00  0.00    +0.000 C 
ENDBRANCH   1   8
BRANCH   3  10
ATOM     10  N   UNL     1       5.537   4.494  19.076  0.00  0.00    +0.000 NA
ATOM     11  C   UNL     1       4.764   3.467  19.198  0.00  0.00    +0.000 C 
BRANCH  11  12
ATOM     12  C   UNL     1       3.387   3.645  19.701  0.00  0.00    +0.000 A 
ATOM     13  C   UNL     1       2.930   4.923  20.049  0.00  0.00    +0.000 A 
ATOM     14  C   UNL     1       1.632   5.091  20.524  0.00  0.00    +0.000 A 
ATOM     15  C   UNL     1       0.791   3.986  20.651  0.00  0.00    +0.000 A 
ATOM     16  C   UNL     1       1.248   2.712  20.303  0.00  0.00    +0.000 A 
ATOM     17  C   UNL     1       2.549   2.536  19.826  0.00  0.00    +0.000 A 
ENDBRANCH  11  12
ENDBRANCH   3  10
TORSDOF 3
ENDMDL
MODEL 3
REMARK VINA RESULT:      -7.1      1.950      2.969
REMARK  Name = 
REMARK  3 active torsions:
REMARK  status: ('A' for Active; 'I' for Inactive)
REMARK    1  A    between atoms: C_4  and  C_5
REMARK    2  A    between atoms: N_7  and  N_8
REMARK    3  A    between atoms: C_9  and  C_10
REMARK                            x       y       z     vdW  Elec       q    Type
REMARK                         _______ _______ _______ _____ _____    ______ ____
ROOT
ATOM      1  C   UNL     1       6.700   4.553  16.459  0.00  0.00    +0.000 C 
ATOM      2  O   UNL     1       7.559   4.765  15.597  0.00  0.00    +0.000 OA
ATOM      3  N   UNL     1       5.774   3.544  16.245  0.00  0.00    +0.000 N 
ATOM      4  H   UNL     1       5.835   3.025  15.376  0.00  0.00    +0.000 HD
ENDROOT
BRANCH   1   8
ATOM      5  C   UNL     1       8.017   8.325  17.564  0.00  0.00    +0.000 C 
ATOM      6  C   UNL     1       7.382   7.196  17.883  0.00  0.00    +0.000 C 
ATOM      7  C   UNL     1       7.841   5.880  18.472  0.00  0.00    +0.000 C 
ATOM      8  C   UNL     1       6.553   5.310  17.825  0.00  0.00    +0.000 C 
ATOM      9  C   UNL     1       5.946   6.742  17.761  0.00  0.00    +0.000 C 
ENDBRANCH   1   8
BRANCH   3  10
ATOM     10  N   UNL     1       4.831   3.271  17.177  0.00  0.00    +0.000 NA
ATOM     11  C   UNL     1       3.714   3.915  17.092  0.00  0.00    +0.000 C 
BRANCH  11  12
ATOM     12  C   UNL     1       2.648   3.661  18.081  0.00  0.00    +0.000 A 
ATOM     13  C   UNL     1       1.919   2.466  18.030  0.00  0.00    +0.000 A 
ATOM     14  C   UNL     1       0.911   2.226  18.961  0.00  0.00    +0.000 A 
ATOM     15  C   UNL     1       0.634   3.177  19.942  0.00  0.00    +0.000 A 
ATOM     16  C   UNL     1       1.361   4.368  19.992  0.00  0.00    +0.000 A 
ATOM     17  C   UNL     1       2.373   4.615  19.061  0.00  0.00    +0.000 A 
ENDBRANCH  11  12
ENDBRANCH   3  10
TORSDOF 3
ENDMDL
MODEL 4
REMARK VINA RESULT:      -7.1      1.950      2.968
REMARK  Name = 
REMARK  3 active torsions:
REMARK  status: ('A' for Active; 'I' for Inactive)
REMARK    1  A    between atoms: C_4  and  C_5
REMARK    2  A    between atoms: N_7  and  N_8
REMARK    3  A    between atoms: C_9  and  C_10
REMARK                            x       y       z     vdW  Elec       q    Type
REMARK                         _______ _______ _______ _____ _____    ______ ____
ROOT
ATOM      1  C   UNL     1       6.707   4.581  16.414  0.00  0.00    +0.000 C 
ATOM      2  O   UNL     1       7.568   4.809  15.558  0.00  0.00    +0.000 OA
ATOM      3  N   UNL     1       5.801   3.556  16.192  0.00  0.00    +0.000 N 
ATOM      4  H   UNL     1       5.876   3.039  15.323  0.00  0.00    +0.000 HD
ENDROOT
BRANCH   1   8
ATOM      5  C   UNL     1       8.031   8.338  17.561  0.00  0.00    +0.000 C 
ATOM      6  C   UNL     1       7.381   7.212  17.863  0.00  0.00    +0.000 C 
ATOM      7  C   UNL     1       7.818   5.891  18.455  0.00  0.00    +0.000 C 
ATOM      8  C   UNL     1       6.538   5.333  17.779  0.00  0.00    +0.000 C 
ATOM      9  C   UNL     1       5.944   6.770  17.709  0.00  0.00    +0.000 C 
ENDBRANCH   1   8
BRANCH   3  10
ATOM     10  N   UNL     1       4.857   3.266  17.118  0.00  0.00    +0.000 NA
ATOM     11  C   UNL     1       3.749   3.928  17.058  0.00  0.00    +0.000 C 
BRANCH  11  12
ATOM     12  C   UNL     1       2.681   3.656  18.042  0.00  0.00    +0.000 A 
ATOM     13  C   UNL     1       2.362   4.617  19.010  0.00  0.00    +0.000 A 
ATOM     14  C   UNL     1       1.356   4.361  19.938  0.00  0.00    +0.000 A 
ATOM     15  C   UNL     1       0.670   3.148  19.899  0.00  0.00    +0.000 A 
ATOM     16  C   UNL     1       0.988   2.191  18.934  0.00  0.00    +0.000 A 
ATOM     17  C   UNL     1       1.996   2.441  17.999  0.00  0.00    +0.000 A 
ENDBRANCH  11  12
ENDBRANCH   3  10
TORSDOF 3
ENDMDL
MODEL 5
REMARK VINA RESULT:      -6.9      1.884      2.253
REMARK  Name = 
REMARK  3 active torsions:
REMARK  status: ('A' for Active; 'I' for Inactive)
REMARK    1  A    between atoms: C_4  and  C_5
REMARK    2  A    between atoms: N_7  and  N_8
REMARK    3  A    between atoms: C_9  and  C_10
REMARK                            x       y       z     vdW  Elec       q    Type
REMARK                         _______ _______ _______ _____ _____    ______ ____
ROOT
ATOM      1  C   UNL     1       5.068   6.493  16.396  0.00  0.00    +0.000 C 
ATOM      2  O   UNL     1       5.368   7.291  15.503  0.00  0.00    +0.000 OA
ATOM      3  N   UNL     1       4.134   6.874  17.346  0.00  0.00    +0.000 N 
ATOM      4  H   UNL     1       3.740   7.806  17.274  0.00  0.00    +0.000 HD
ENDROOT
BRANCH   1   8
ATOM      5  C   UNL     1       6.219   3.740  13.519  0.00  0.00    +0.000 C 
ATOM      6  C   UNL     1       6.068   4.053  14.807  0.00  0.00    +0.000 C 
ATOM      7  C   UNL     1       4.922   3.901  15.782  0.00  0.00    +0.000 C 
ATOM      8  C   UNL     1       5.630   5.038  16.564  0.00  0.00    +0.000 C 
ATOM      9  C   UNL     1       6.963   4.721  15.825  0.00  0.00    +0.000 C 
ENDBRANCH   1   8
BRANCH   3  10
ATOM     10  N   UNL     1       3.767   6.017  18.327  0.00  0.00    +0.000 NA
ATOM     11  C   UNL     1       2.599   5.472  18.229  0.00  0.00    +0.000 C 
BRANCH  11  12
ATOM     12  C   UNL     1       2.143   4.529  19.269  0.00  0.00    +0.000 A 
ATOM     13  C   UNL     1       2.588   4.676  20.589  0.00  0.00    +0.000 A 
ATOM     14  C   UNL     1       2.160   3.786  21.571  0.00  0.00    +0.000 A 
ATOM     15  C   UNL     1       1.287   2.752  21.235  0.00  0.00    +0.000 A 
ATOM     16  C   UNL     1       0.842   2.607  19.919  0.00  0.00    +0.000 A 
ATOM     17  C   UNL     1       1.269   3.496  18.929  0.00  0.00    +0.000 A 
ENDBRANCH  11  12
ENDBRANCH   3  10
TORSDOF 3
ENDMDL
MODEL 6
REMARK VINA RESULT:      -6.7      1.694      2.383
REMARK  Name = 
REMARK  3 active torsions:
REMARK  status: ('A' for Active; 'I' for Inactive)
REMARK    1  A    between atoms: C_4  and  C_5
REMARK    2  A    between atoms: N_7  and  N_8
REMARK    3  A    between atoms: C_9  and  C_10
REMARK                            x       y       z     vdW  Elec       q    Type
REMARK                         _______ _______ _______ _____ _____    ______ ____
ROOT
ATOM      1  C   UNL     1       5.109   6.319  16.004  0.00  0.00    +0.000 C 
ATOM      2  O   UNL     1       5.215   7.146  15.093  0.00  0.00    +0.000 OA
ATOM      3  N   UNL     1       4.233   6.583  17.046  0.00  0.00    +0.000 N 
ATOM      4  H   UNL     1       3.721   7.457  17.022  0.00  0.00    +0.000 HD
ENDROOT
BRANCH   1   8
ATOM      5  C   UNL     1       6.167   3.649  13.014  0.00  0.00    +0.000 C 
ATOM      6  C   UNL     1       6.163   3.975  14.308  0.00  0.00    +0.000 C 
ATOM      7  C   UNL     1       5.194   3.713  15.440  0.00  0.00    +0.000 C 
ATOM      8  C   UNL     1       5.862   4.947  16.101  0.00  0.00    +0.000 C 
ATOM      9  C   UNL     1       7.105   4.773  15.181  0.00  0.00    +0.000 C 
ENDBRANCH   1   8
BRANCH   3  10
ATOM     10  N   UNL     1       4.077   5.689  18.051  0.00  0.00    +0.000 NA
ATOM     11  C   UNL     1       2.871   5.315  18.326  0.00  0.00    +0.000 C 
BRANCH  11  12
ATOM     12  C   UNL     1       2.637   4.343  19.412  0.00  0.00    +0.000 A 
ATOM     13  C   UNL     1       1.395   4.305  20.060  0.00  0.00    +0.000 A 
ATOM     14  C   UNL     1       1.174   3.389  21.085  0.00  0.00    +0.000 A 
ATOM     15  C   UNL     1       2.191   2.513  21.463  0.00  0.00    +0.000 A 
ATOM     16  C   UNL     1       3.428   2.551  20.816  0.00  0.00    +0.000 A 
ATOM     17  C   UNL     1       3.657   3.468  19.786  0.00  0.00    +0.000 A 
ENDBRANCH  11  12
ENDBRANCH   3  10
TORSDOF 3
ENDMDL
MODEL 7
REMARK VINA RESULT:      -6.6      2.007      6.625
REMARK  Name = 
REMARK  3 active torsions:
REMARK  status: ('A' for Active; 'I' for Inactive)
REMARK    1  A    between atoms: C_4  and  C_5
REMARK    2  A    between atoms: N_7  and  N_8
REMARK    3  A    between atoms: C_9  and  C_10
REMARK                            x       y       z     vdW  Elec       q    Type
REMARK                         _______ _______ _______ _____ _____    ______ ____
ROOT
ATOM      1  C   UNL     1       4.202   4.737  18.433  0.00  0.00    +0.000 C 
ATOM      2  O   UNL     1       4.113   5.050  19.624  0.00  0.00    +0.000 OA
ATOM      3  N   UNL     1       5.443   4.793  17.819  0.00  0.00    +0.000 N 
ATOM      4  H   UNL     1       6.232   5.102  18.376  0.00  0.00    +0.000 HD
ENDROOT
BRANCH   1   8
ATOM      5  C   UNL     1       0.719   2.721  19.425  0.00  0.00    +0.000 C 
ATOM      6  C   UNL     1       1.490   3.280  18.491  0.00  0.00    +0.000 C 
ATOM      7  C   UNL     1       2.611   2.755  17.622  0.00  0.00    +0.000 C 
ATOM      8  C   UNL     1       3.029   4.245  17.516  0.00  0.00    +0.000 C 
ATOM      9  C   UNL     1       1.594   4.681  17.933  0.00  0.00    +0.000 C 
ENDBRANCH   1   8
BRANCH   3  10
ATOM     10  N   UNL     1       5.580   4.438  16.519  0.00  0.00    +0.000 NA
ATOM     11  C   UNL     1       6.480   5.059  15.831  0.00  0.00    +0.000 C 
BRANCH  11  12
ATOM     12  C   UNL     1       6.676   4.716  14.408  0.00  0.00    +0.000 A 
ATOM     13  C   UNL     1       5.880   3.730  13.811  0.00  0.00    +0.000 A 
ATOM     14  C   UNL     1       6.064   3.405  12.469  0.00  0.00    +0.000 A 
ATOM     15  C   UNL     1       7.042   4.065  11.725  0.00  0.00    +0.000 A 
ATOM     16  C   UNL     1       7.834   5.048  12.321  0.00  0.00    +0.000 A 
ATOM     17  C   UNL     1       7.654   5.379  13.666  0.00  0.00    +0.000 A 
ENDBRANCH  11  12
ENDBRANCH   3  10
TORSDOF 3
ENDMDL
MODEL 8
REMARK VINA RESULT:      -6.6      1.878      2.301
REMARK  Name = 
REMARK  3 active torsions:
REMARK  status: ('A' for Active; 'I' for Inactive)
REMARK    1  A    between atoms: C_4  and  C_5
REMARK    2  A    between atoms: N_7  and  N_8
REMARK    3  A    between atoms: C_9  and  C_10
REMARK                            x       y       z     vdW  Elec       q    Type
REMARK                         _______ _______ _______ _____ _____    ______ ____
ROOT
ATOM      1  C   UNL     1       5.926   6.605  16.830  0.00  0.00    +0.000 C 
ATOM      2  O   UNL     1       6.810   7.441  16.623  0.00  0.00    +0.000 OA
ATOM      3  N   UNL     1       4.808   6.981  17.558  0.00  0.00    +0.000 N 
ATOM      4  H   UNL     1       4.769   7.933  17.904  0.00  0.00    +0.000 HD
ENDROOT
BRANCH   1   8
ATOM      5  C   UNL     1       7.520   4.973  13.368  0.00  0.00    +0.000 C 
ATOM      6  C   UNL     1       6.860   4.802  14.515  0.00  0.00    +0.000 C 
ATOM      7  C   UNL     1       5.394   4.858  14.885  0.00  0.00    +0.000 C 
ATOM      8  C   UNL     1       5.918   5.122  16.321  0.00  0.00    +0.000 C 
ATOM      9  C   UNL     1       7.298   4.515  15.933  0.00  0.00    +0.000 C 
ENDBRANCH   1   8
BRANCH   3  10
ATOM     10  N   UNL     1       3.810   6.095  17.788  0.00  0.00    +0.000 NA
ATOM     11  C   UNL     1       3.722   5.601  18.978  0.00  0.00    +0.000 C 
BRANCH  11  12
ATOM     12  C   UNL     1       2.655   4.629  19.289  0.00  0.00    +0.000 A 
ATOM     13  C   UNL     1       2.082   3.868  18.261  0.00  0.00    +0.000 A 
ATOM     14  C   UNL     1       1.075   2.953  18.552  0.00  0.00    +0.000 A 
ATOM     15  C   UNL     1       0.640   2.796  19.868  0.00  0.00    +0.000 A 
ATOM     16  C   UNL     1       1.212   3.554  20.892  0.00  0.00    +0.000 A 
ATOM     17  C   UNL     1       2.223   4.475  20.606  0.00  0.00    +0.000 A 
ENDBRANCH  11  12
ENDBRANCH   3  10
TORSDOF 3
ENDMDL
MODEL 9
REMARK VINA RESULT:      -6.6      2.086      6.463
REMARK  Name = 
REMARK  3 active torsions:
REMARK  status: ('A' for Active; 'I' for Inactive)
REMARK    1  A    between atoms: C_4  and  C_5
REMARK    2  A    between atoms: N_7  and  N_8
REMARK    3  A    between atoms: C_9  and  C_10
REMARK                            x       y       z     vdW  Elec       q    Type
REMARK                         _______ _______ _______ _____ _____    ______ ____
ROOT
ATOM      1  C   UNL     1       4.241   5.141  18.444  0.00  0.00    +0.000 C 
ATOM      2  O   UNL     1       4.119   5.201  19.671  0.00  0.00    +0.000 OA
ATOM      3  N   UNL     1       5.413   5.603  17.867  0.00  0.00    +0.000 N 
ATOM      4  H   UNL     1       6.123   5.985  18.481  0.00  0.00    +0.000 HD
ENDROOT
BRANCH   1   8
ATOM      5  C   UNL     1       0.996   2.654  19.131  0.00  0.00    +0.000 C 
ATOM      6  C   UNL     1       1.737   3.356  18.273  0.00  0.00    +0.000 C 
ATOM      7  C   UNL     1       2.960   3.023  17.447  0.00  0.00    +0.000 C 
ATOM      8  C   UNL     1       3.189   4.557  17.437  0.00  0.00    +0.000 C 
ATOM      9  C   UNL     1       1.691   4.788  17.790  0.00  0.00    +0.000 C 
ENDBRANCH   1   8
BRANCH   3  10
ATOM     10  N   UNL     1       5.588   5.534  16.526  0.00  0.00    +0.000 NA
ATOM     11  C   UNL     1       6.365   4.603  16.079  0.00  0.00    +0.000 C 
BRANCH  11  12
ATOM     12  C   UNL     1       6.596   4.478  14.626  0.00  0.00    +0.000 A 
ATOM     13  C   UNL     1       7.566   5.274  14.002  0.00  0.00    +0.000 A 
ATOM     14  C   UNL     1       7.783   5.158  12.632  0.00  0.00    +0.000 A 
ATOM     15  C   UNL     1       7.034   4.248  11.886  0.00  0.00    +0.000 A 
ATOM     16  C   UNL     1       6.068   3.455  12.509  0.00  0.00    +0.000 A 
ATOM     17  C   UNL     1       5.844   3.567  13.884  0.00  0.00    +0.000 A 
ENDBRANCH  11  12
ENDBRANCH   3  10
TORSDOF 3
ENDMDL
