MODEL 1
REMARK VINA RESULT:      -8.0      0.000      0.000
REMARK  Name = 
REMARK  5 active torsions:
REMARK  status: ('A' for Active; 'I' for Inactive)
REMARK    1  A    between atoms: C_1  and  O_2
REMARK    2  A    between atoms: O_2  and  C_3
REMARK    3  A    between atoms: C_8  and  C_9
REMARK    4  A    between atoms: C_13  and  C_14
REMARK    5  A    between atoms: N_15  and  C_16
REMARK                            x       y       z     vdW  Elec       q    Type
REMARK                         _______ _______ _______ _____ _____    ______ ____
ROOT
ATOM      1  C   UNL     1       3.748   4.804  18.346  0.00  0.00    +0.000 C 
ATOM      2  O   UNL     1       3.324   3.728  18.774  0.00  0.00    +0.000 OA
ATOM      3  N   UNL     1       3.081   6.023  18.552  0.00  0.00    +0.000 N 
ATOM      4  C   UNL     1       3.160   7.137  17.741  0.00  0.00    +0.000 A 
ATOM      5  C   UNL     1       2.483   8.167  18.268  0.00  0.00    +0.000 A 
ATOM      6  C   UNL     1       2.499   9.544  17.702  0.00  0.00    +0.000 C 
ATOM      7  N   UNL     1       1.898   7.782  19.478  0.00  0.00    +0.000 N 
ATOM      8  C   UNL     1       2.217   6.364  19.677  0.00  0.00    +0.000 A 
ATOM      9  S   UNL     1       1.673   5.318  20.867  0.00  0.00    +0.000 S 
ENDROOT
BRANCH   7  10
ATOM     10  C   UNL     1       1.150   8.605  20.386  0.00  0.00    +0.000 A 
ATOM     11  C   UNL     1       0.169   9.494  19.925  0.00  0.00    +0.000 A 
ATOM     12  C   UNL     1      -0.542  10.328  20.800  0.00  0.00    +0.000 A 
ATOM     13  C   UNL     1      -0.300  10.261  22.166  0.00  0.00    +0.000 A 
ATOM     14 CL   UNL     1      -1.176  11.272  23.243  0.00  0.00    +0.000 Cl
ATOM     15  C   UNL     1       0.653   9.381  22.657  0.00  0.00    +0.000 A 
ATOM     16  C   UNL     1       1.380   8.574  21.771  0.00  0.00    +0.000 A 
ENDBRANCH   7  10
BRANCH   1  22
ATOM     17  C   UNL     1       6.304   4.855  17.962  0.00  0.00    +0.000 A 
ATOM     18  C   UNL     1       7.365   4.686  17.055  0.00  0.00    +0.000 A 
ATOM     19  C   UNL     1       7.130   4.310  15.730  0.00  0.00    +0.000 A 
ATOM     20  C   UNL     1       5.832   4.107  15.287  0.00  0.00    +0.000 A 
ATOM     21  C   UNL     1       4.767   4.317  16.161  0.00  0.00    +0.000 A 
ATOM     22  C   UNL     1       4.981   4.715  17.498  0.00  0.00    +0.000 A 
BRANCH  17  24
ATOM     23  C   UNL     1       7.778   5.669  19.652  0.00  0.00    +0.000 C 
ATOM     24  O   UNL     1       6.504   5.142  19.287  0.00  0.00    +0.000 OA
ENDBRANCH  17  24
ENDBRANCH   1  22
TORSDOF 3
ENDMDL
MODEL 2
REMARK VINA RESULT:      -7.1      3.133      4.707
REMARK  Name = 
REMARK  5 active torsions:
REMARK  status: ('A' for Active; 'I' for Inactive)
REMARK    1  A    between atoms: C_1  and  O_2
REMARK    2  A    between atoms: O_2  and  C_3
REMARK    3  A    between atoms: C_8  and  C_9
REMARK    4  A    between atoms: C_13  and  C_14
REMARK    5  A    between atoms: N_15  and  C_16
REMARK                            x       y       z     vdW  Elec       q    Type
REMARK                         _______ _______ _______ _____ _____    ______ ____
ROOT
ATOM      1  C   UNL     1       2.433   6.268  19.351  0.00  0.00    +0.000 C 
ATOM      2  O   UNL     1       3.347   6.259  18.522  0.00  0.00    +0.000 OA
ATOM      3  N   UNL     1       1.883   7.453  19.867  0.00  0.00    +0.000 N 
ATOM      4  C   UNL     1       1.270   7.593  21.095  0.00  0.00    +0.000 A 
ATOM      5  C   UNL     1       0.764   8.826  21.245  0.00  0.00    +0.000 A 
ATOM      6  C   UNL     1      -0.078   9.241  22.400  0.00  0.00    +0.000 C 
ATOM      7  N   UNL     1       1.029   9.590  20.103  0.00  0.00    +0.000 N 
ATOM      8  C   UNL     1       1.812   8.745  19.194  0.00  0.00    +0.000 A 
ATOM      9  S   UNL     1       2.541   9.154  17.742  0.00  0.00    +0.000 S 
ENDROOT
BRANCH   7  10
ATOM     10  C   UNL     1       0.602  10.933  19.835  0.00  0.00    +0.000 A 
ATOM     11  C   UNL     1      -0.495  11.198  19.003  0.00  0.00    +0.000 A 
ATOM     12  C   UNL     1      -0.897  12.508  18.705  0.00  0.00    +0.000 A 
ATOM     13  C   UNL     1      -0.221  13.583  19.267  0.00  0.00    +0.000 A 
ATOM     14 CL   UNL     1      -0.717  15.188  18.915  0.00  0.00    +0.000 Cl
ATOM     15  C   UNL     1       0.860  13.356  20.108  0.00  0.00    +0.000 A 
ATOM     16  C   UNL     1       1.273  12.043  20.374  0.00  0.00    +0.000 A 
ENDBRANCH   7  10
BRANCH   1  22
ATOM     17  C   UNL     1       1.511   3.871  19.056  0.00  0.00    +0.000 A 
ATOM     18  C   UNL     1       1.211   2.639  19.663  0.00  0.00    +0.000 A 
ATOM     19  C   UNL     1       1.471   2.419  21.017  0.00  0.00    +0.000 A 
ATOM     20  C   UNL     1       2.025   3.428  21.791  0.00  0.00    +0.000 A 
ATOM     21  C   UNL     1       2.283   4.670  21.215  0.00  0.00    +0.000 A 
ATOM     22  C   UNL     1       2.010   4.920  19.853  0.00  0.00    +0.000 A 
BRANCH  17  24
ATOM     23  C   UNL     1       2.306   3.509  16.836  0.00  0.00    +0.000 C 
ATOM     24  O   UNL     1       1.345   4.093  17.713  0.00  0.00    +0.000 OA
ENDBRANCH  17  24
ENDBRANCH   1  22
TORSDOF 3
ENDMDL
MODEL 3
REMARK VINA RESULT:      -7.0      3.131      4.733
REMARK  Name = 
REMARK  5 active torsions:
REMARK  status: ('A' for Active; 'I' for Inactive)
REMARK    1  A    between atoms: C_1  and  O_2
REMARK    2  A    between atoms: O_2  and  C_3
REMARK    3  A    between atoms: C_8  and  C_9
REMARK    4  A    between atoms: C_13  and  C_14
REMARK    5  A    between atoms: N_15  and  C_16
REMARK                            x       y       z     vdW  Elec       q    Type
REMARK                         _______ _______ _______ _____ _____    ______ ____
ROOT
ATOM      1  C   UNL     1       2.313   6.369  19.355  0.00  0.00    +0.000 C 
ATOM      2  O   UNL     1       3.148   6.414  18.448  0.00  0.00    +0.000 OA
ATOM      3  N   UNL     1       1.782   7.520  19.961  0.00  0.00    +0.000 N 
ATOM      4  C   UNL     1       1.279   7.601  21.243  0.00  0.00    +0.000 A 
ATOM      5  C   UNL     1       0.760   8.814  21.483  0.00  0.00    +0.000 A 
ATOM      6  C   UNL     1       0.014   9.165  22.722  0.00  0.00    +0.000 C 
ATOM      7  N   UNL     1       0.902   9.624  20.351  0.00  0.00    +0.000 N 
ATOM      8  C   UNL     1       1.620   8.832  19.345  0.00  0.00    +0.000 A 
ATOM      9  S   UNL     1       2.207   9.310  17.851  0.00  0.00    +0.000 S 
ENDROOT
BRANCH   7  10
ATOM     10  C   UNL     1       0.421  10.963  20.172  0.00  0.00    +0.000 A 
ATOM     11  C   UNL     1       1.195  12.073  20.539  0.00  0.00    +0.000 A 
ATOM     12  C   UNL     1       0.719  13.384  20.402  0.00  0.00    +0.000 A 
ATOM     13  C   UNL     1      -0.540  13.609  19.859  0.00  0.00    +0.000 A 
ATOM     14 CL   UNL     1      -1.123  15.213  19.678  0.00  0.00    +0.000 Cl
ATOM     15  C   UNL     1      -1.326  12.533  19.470  0.00  0.00    +0.000 A 
ATOM     16  C   UNL     1      -0.853  11.225  19.641  0.00  0.00    +0.000 A 
ENDBRANCH   7  10
BRANCH   1  22
ATOM     17  C   UNL     1       1.535   3.925  19.034  0.00  0.00    +0.000 A 
ATOM     18  C   UNL     1       1.307   2.671  19.628  0.00  0.00    +0.000 A 
ATOM     19  C   UNL     1       1.576   2.453  20.981  0.00  0.00    +0.000 A 
ATOM     20  C   UNL     1       2.067   3.486  21.766  0.00  0.00    +0.000 A 
ATOM     21  C   UNL     1       2.252   4.747  21.203  0.00  0.00    +0.000 A 
ATOM     22  C   UNL     1       1.969   4.993  19.842  0.00  0.00    +0.000 A 
BRANCH  17  24
ATOM     23  C   UNL     1       2.298   3.543  16.806  0.00  0.00    +0.000 C 
ATOM     24  O   UNL     1       1.360   4.150  17.693  0.00  0.00    +0.000 OA
ENDBRANCH  17  24
ENDBRANCH   1  22
TORSDOF 3
ENDMDL
MODEL 4
REMARK VINA RESULT:      -6.9      2.415      3.572
REMARK  Name = 
REMARK  5 active torsions:
REMARK  status: ('A' for Active; 'I' for Inactive)
REMARK    1  A    between atoms: C_1  and  O_2
REMARK    2  A    between atoms: O_2  and  C_3
REMARK    3  A    between atoms: C_8  and  C_9
REMARK    4  A    between atoms: C_13  and  C_14
REMARK    5  A    between atoms: N_15  and  C_16
REMARK                            x       y       z     vdW  Elec       q    Type
REMARK                         _______ _______ _______ _____ _____    ______ ____
ROOT
ATOM      1  C   UNL     1       2.914   6.968  18.376  0.00  0.00    +0.000 C 
ATOM      2  O   UNL     1       3.704   7.413  17.540  0.00  0.00    +0.000 OA
ATOM      3  N   UNL     1       2.164   7.794  19.231  0.00  0.00    +0.000 N 
ATOM      4  C   UNL     1       1.678   7.443  20.474  0.00  0.00    +0.000 A 
ATOM      5  C   UNL     1       0.919   8.421  20.990  0.00  0.00    +0.000 A 
ATOM      6  C   UNL     1       0.140   8.286  22.251  0.00  0.00    +0.000 C 
ATOM      7  N   UNL     1       0.866   9.500  20.102  0.00  0.00    +0.000 N 
ATOM      8  C   UNL     1       1.717   9.154  18.956  0.00  0.00    +0.000 A 
ATOM      9  S   UNL     1       2.161  10.104  17.650  0.00  0.00    +0.000 S 
ENDROOT
BRANCH   7  10
ATOM     10  C   UNL     1       0.110  10.711  20.244  0.00  0.00    +0.000 A 
ATOM     11  C   UNL     1      -1.122  10.882  19.598  0.00  0.00    +0.000 A 
ATOM     12  C   UNL     1      -1.851  12.075  19.701  0.00  0.00    +0.000 A 
ATOM     13  C   UNL     1      -1.369  13.113  20.487  0.00  0.00    +0.000 A 
ATOM     14 CL   UNL     1      -2.263  14.572  20.627  0.00  0.00    +0.000 Cl
ATOM     15  C   UNL     1      -0.160  12.971  21.154  0.00  0.00    +0.000 A 
ATOM     16  C   UNL     1       0.576  11.786  21.018  0.00  0.00    +0.000 A 
ENDBRANCH   7  10
BRANCH   1  22
ATOM     17  C   UNL     1       3.790   4.688  19.223  0.00  0.00    +0.000 A 
ATOM     18  C   UNL     1       3.591   3.299  19.289  0.00  0.00    +0.000 A 
ATOM     19  C   UNL     1       2.469   2.701  18.711  0.00  0.00    +0.000 A 
ATOM     20  C   UNL     1       1.532   3.480  18.048  0.00  0.00    +0.000 A 
ATOM     21  C   UNL     1       1.740   4.853  17.932  0.00  0.00    +0.000 A 
ATOM     22  C   UNL     1       2.877   5.474  18.493  0.00  0.00    +0.000 A 
BRANCH  17  24
ATOM     23  C   UNL     1       6.114   5.232  19.221  0.00  0.00    +0.000 C 
ATOM     24  O   UNL     1       4.836   5.316  19.850  0.00  0.00    +0.000 OA
ENDBRANCH  17  24
ENDBRANCH   1  22
TORSDOF 3
ENDMDL
MODEL 5
REMARK VINA RESULT:      -6.9      2.491      4.212
REMARK  Name = 
REMARK  5 active torsions:
REMARK  status: ('A' for Active; 'I' for Inactive)
REMARK    1  A    between atoms: C_1  and  O_2
REMARK    2  A    between atoms: O_2  and  C_3
REMARK    3  A    between atoms: C_8  and  C_9
REMARK    4  A    between atoms: C_13  and  C_14
REMARK    5  A    between atoms: N_15  and  C_16
REMARK                            x       y       z     vdW  Elec       q    Type
REMARK                         _______ _______ _______ _____ _____    ______ ____
ROOT
ATOM      1  C   UNL     1       2.488   6.784  19.134  0.00  0.00    +0.000 C 
ATOM      2  O   UNL     1       3.133   6.957  18.096  0.00  0.00    +0.000 OA
ATOM      3  N   UNL     1       1.931   7.842  19.871  0.00  0.00    +0.000 N 
ATOM      4  C   UNL     1       1.662   7.833  21.224  0.00  0.00    +0.000 A 
ATOM      5  C   UNL     1       1.041   8.959  21.602  0.00  0.00    +0.000 A 
ATOM      6  C   UNL     1       0.493   9.186  22.967  0.00  0.00    +0.000 C 
ATOM      7  N   UNL     1       0.870   9.800  20.497  0.00  0.00    +0.000 N 
ATOM      8  C   UNL     1       1.491   9.131  19.348  0.00  0.00    +0.000 A 
ATOM      9  S   UNL     1       1.731   9.709  17.794  0.00  0.00    +0.000 S 
ENDROOT
BRANCH   7  10
ATOM     10  C   UNL     1       0.194  11.066  20.461  0.00  0.00    +0.000 A 
ATOM     11  C   UNL     1       0.834  12.247  20.860  0.00  0.00    +0.000 A 
ATOM     12  C   UNL     1       0.172  13.482  20.863  0.00  0.00    +0.000 A 
ATOM     13  C   UNL     1      -1.147  13.559  20.432  0.00  0.00    +0.000 A 
ATOM     14 CL   UNL     1      -1.960  15.072  20.422  0.00  0.00    +0.000 Cl
ATOM     15  C   UNL     1      -1.805  12.411  20.015  0.00  0.00    +0.000 A 
ATOM     16  C   UNL     1      -1.143  11.177  20.046  0.00  0.00    +0.000 A 
ENDBRANCH   7  10
BRANCH   1  22
ATOM     17  C   UNL     1       3.528   4.532  19.865  0.00  0.00    +0.000 A 
ATOM     18  C   UNL     1       3.307   3.241  20.375  0.00  0.00    +0.000 A 
ATOM     19  C   UNL     1       2.023   2.806  20.709  0.00  0.00    +0.000 A 
ATOM     20  C   UNL     1       0.936   3.648  20.529  0.00  0.00    +0.000 A 
ATOM     21  C   UNL     1       1.132   4.914  19.979  0.00  0.00    +0.000 A 
ATOM     22  C   UNL     1       2.420   5.366  19.617  0.00  0.00    +0.000 A 
BRANCH  17  24
ATOM     23  C   UNL     1       5.520   4.389  18.560  0.00  0.00    +0.000 C 
ATOM     24  O   UNL     1       4.782   5.020  19.605  0.00  0.00    +0.000 OA
ENDBRANCH  17  24
ENDBRANCH   1  22
TORSDOF 3
ENDMDL
MODEL 6
REMARK VINA RESULT:      -6.2      4.003      7.707
REMARK  Name = 
REMARK  5 active torsions:
REMARK  status: ('A' for Active; 'I' for Inactive)
REMARK    1  A    between atoms: C_1  and  O_2
REMARK    2  A    between atoms: O_2  and  C_3
REMARK    3  A    between atoms: C_8  and  C_9
REMARK    4  A    between atoms: C_13  and  C_14
REMARK    5  A    between atoms: N_15  and  C_16
REMARK                            x       y       z     vdW  Elec       q    Type
REMARK                         _______ _______ _______ _____ _____    ______ ____
ROOT
ATOM      1  C   UNL     1       0.892   9.815  20.039  0.00  0.00    +0.000 C 
ATOM      2  O   UNL     1       0.635   9.795  21.246  0.00  0.00    +0.000 OA
ATOM      3  N   UNL     1       1.670   8.829  19.409  0.00  0.00    +0.000 N 
ATOM      4  C   UNL     1       2.418   8.998  18.262  0.00  0.00    +0.000 A 
ATOM      5  C   UNL     1       2.963   7.840  17.865  0.00  0.00    +0.000 A 
ATOM      6  C   UNL     1       3.704   7.669  16.586  0.00  0.00    +0.000 C 
ATOM      7  N   UNL     1       2.607   6.818  18.752  0.00  0.00    +0.000 N 
ATOM      8  C   UNL     1       1.803   7.434  19.814  0.00  0.00    +0.000 A 
ATOM      9  S   UNL     1       1.219   6.747  21.226  0.00  0.00    +0.000 S 
ENDROOT
BRANCH   7  10
ATOM     10  C   UNL     1       2.927   5.423  18.649  0.00  0.00    +0.000 A 
ATOM     11  C   UNL     1       2.111   4.539  17.929  0.00  0.00    +0.000 A 
ATOM     12  C   UNL     1       2.395   3.168  17.853  0.00  0.00    +0.000 A 
ATOM     13  C   UNL     1       3.528   2.662  18.476  0.00  0.00    +0.000 A 
ATOM     14 CL   UNL     1       3.887   0.986  18.377  0.00  0.00    +0.000 Cl
ATOM     15  C   UNL     1       4.366   3.513  19.184  0.00  0.00    +0.000 A 
ATOM     16  C   UNL     1       4.056   4.876  19.280  0.00  0.00    +0.000 A 
ENDBRANCH   7  10
BRANCH   1  22
ATOM     17  C   UNL     1      -0.824  11.113  18.607  0.00  0.00    +0.000 A 
ATOM     18  C   UNL     1      -1.177  12.335  18.008  0.00  0.00    +0.000 A 
ATOM     19  C   UNL     1      -0.376  13.469  18.154  0.00  0.00    +0.000 A 
ATOM     20  C   UNL     1       0.797  13.400  18.891  0.00  0.00    +0.000 A 
ATOM     21  C   UNL     1       1.185  12.185  19.450  0.00  0.00    +0.000 A 
ATOM     22  C   UNL     1       0.400  11.022  19.299  0.00  0.00    +0.000 A 
BRANCH  17  24
ATOM     23  C   UNL     1      -2.709  10.030  17.622  0.00  0.00    +0.000 C 
ATOM     24  O   UNL     1      -1.628  10.004  18.553  0.00  0.00    +0.000 OA
ENDBRANCH  17  24
ENDBRANCH   1  22
TORSDOF 3
ENDMDL
MODEL 7
REMARK VINA RESULT:      -6.1      4.950      9.677
REMARK  Name = 
REMARK  5 active torsions:
REMARK  status: ('A' for Active; 'I' for Inactive)
REMARK    1  A    between atoms: C_1  and  O_2
REMARK    2  A    between atoms: O_2  and  C_3
REMARK    3  A    between atoms: C_8  and  C_9
REMARK    4  A    between atoms: C_13  and  C_14
REMARK    5  A    between atoms: N_15  and  C_16
REMARK                            x       y       z     vdW  Elec       q    Type
REMARK                         _______ _______ _______ _____ _____    ______ ____
ROOT
ATOM      1  C   UNL     1      -1.967  12.279  21.006  0.00  0.00    +0.000 C 
ATOM      2  O   UNL     1      -2.874  12.343  20.172  0.00  0.00    +0.000 OA
ATOM      3  N   UNL     1      -1.024  11.237  21.028  0.00  0.00    +0.000 N 
ATOM      4  C   UNL     1      -0.335  10.794  22.138  0.00  0.00    +0.000 A 
ATOM      5  C   UNL     1       0.561   9.854  21.807  0.00  0.00    +0.000 A 
ATOM      6  C   UNL     1       1.555   9.285  22.758  0.00  0.00    +0.000 C 
ATOM      7  N   UNL     1       0.507   9.610  20.431  0.00  0.00    +0.000 N 
ATOM      8  C   UNL     1      -0.561  10.457  19.887  0.00  0.00    +0.000 A 
ATOM      9  S   UNL     1      -1.189  10.494  18.334  0.00  0.00    +0.000 S 
ENDROOT
BRANCH   7  10
ATOM     10  C   UNL     1       1.344   8.729  19.667  0.00  0.00    +0.000 A 
ATOM     11  C   UNL     1       1.723   7.473  20.160  0.00  0.00    +0.000 A 
ATOM     12  C   UNL     1       2.570   6.620  19.439  0.00  0.00    +0.000 A 
ATOM     13  C   UNL     1       3.029   7.003  18.185  0.00  0.00    +0.000 A 
ATOM     14 CL   UNL     1       4.057   5.957  17.291  0.00  0.00    +0.000 Cl
ATOM     15  C   UNL     1       2.661   8.233  17.660  0.00  0.00    +0.000 A 
ATOM     16  C   UNL     1       1.839   9.091  18.404  0.00  0.00    +0.000 A 
ENDBRANCH   7  10
BRANCH   1  22
ATOM     17  C   UNL     1      -2.718  13.275  23.270  0.00  0.00    +0.000 A 
ATOM     18  C   UNL     1      -2.596  14.325  24.196  0.00  0.00    +0.000 A 
ATOM     19  C   UNL     1      -1.715  15.386  23.972  0.00  0.00    +0.000 A 
ATOM     20  C   UNL     1      -0.950  15.421  22.816  0.00  0.00    +0.000 A 
ATOM     21  C   UNL     1      -1.095  14.412  21.867  0.00  0.00    +0.000 A 
ATOM     22  C   UNL     1      -1.993  13.341  22.064  0.00  0.00    +0.000 A 
BRANCH  17  24
ATOM     23  C   UNL     1      -4.487  12.287  24.530  0.00  0.00    +0.000 C 
ATOM     24  O   UNL     1      -3.510  12.179  23.496  0.00  0.00    +0.000 OA
ENDBRANCH  17  24
ENDBRANCH   1  22
TORSDOF 3
ENDMDL
MODEL 8
REMARK VINA RESULT:      -6.0      5.577     10.362
REMARK  Name = 
REMARK  5 active torsions:
REMARK  status: ('A' for Active; 'I' for Inactive)
REMARK    1  A    between atoms: C_1  and  O_2
REMARK    2  A    between atoms: O_2  and  C_3
REMARK    3  A    between atoms: C_8  and  C_9
REMARK    4  A    between atoms: C_13  and  C_14
REMARK    5  A    between atoms: N_15  and  C_16
REMARK                            x       y       z     vdW  Elec       q    Type
REMARK                         _______ _______ _______ _____ _____    ______ ____
ROOT
ATOM      1  C   UNL     1      -1.930  13.611  21.845  0.00  0.00    +0.000 C 
ATOM      2  O   UNL     1      -2.499  14.142  20.887  0.00  0.00    +0.000 OA
ATOM      3  N   UNL     1      -1.300  12.358  21.759  0.00  0.00    +0.000 N 
ATOM      4  C   UNL     1      -1.102  11.478  22.803  0.00  0.00    +0.000 A 
ATOM      5  C   UNL     1      -0.383  10.417  22.411  0.00  0.00    +0.000 A 
ATOM      6  C   UNL     1       0.116   9.366  23.339  0.00  0.00    +0.000 C 
ATOM      7  N   UNL     1      -0.067  10.532  21.053  0.00  0.00    +0.000 N 
ATOM      8  C   UNL     1      -0.698  11.766  20.570  0.00  0.00    +0.000 A 
ATOM      9  S   UNL     1      -0.795  12.357  19.005  0.00  0.00    +0.000 S 
ENDROOT
BRANCH   7  10
ATOM     10  C   UNL     1       0.742   9.645  20.268  0.00  0.00    +0.000 A 
ATOM     11  C   UNL     1       1.076   9.945  18.940  0.00  0.00    +0.000 A 
ATOM     12  C   UNL     1       1.835   9.068  18.153  0.00  0.00    +0.000 A 
ATOM     13  C   UNL     1       2.303   7.880  18.698  0.00  0.00    +0.000 A 
ATOM     14 CL   UNL     1       3.244   6.807  17.742  0.00  0.00    +0.000 Cl
ATOM     15  C   UNL     1       2.005   7.559  20.015  0.00  0.00    +0.000 A 
ATOM     16  C   UNL     1       1.219   8.429  20.784  0.00  0.00    +0.000 A 
ENDBRANCH   7  10
BRANCH   1  22
ATOM     17  C   UNL     1      -3.078  14.202  24.084  0.00  0.00    +0.000 A 
ATOM     18  C   UNL     1      -3.013  14.921  25.290  0.00  0.00    +0.000 A 
ATOM     19  C   UNL     1      -1.905  15.713  25.600  0.00  0.00    +0.000 A 
ATOM     20  C   UNL     1      -0.849  15.808  24.706  0.00  0.00    +0.000 A 
ATOM     21  C   UNL     1      -0.920  15.140  23.486  0.00  0.00    +0.000 A 
ATOM     22  C   UNL     1      -2.039  14.350  23.145  0.00  0.00    +0.000 A 
BRANCH  17  24
ATOM     23  C   UNL     1      -4.469  12.391  24.778  0.00  0.00    +0.000 C 
ATOM     24  O   UNL     1      -4.112  13.352  23.786  0.00  0.00    +0.000 OA
ENDBRANCH  17  24
ENDBRANCH   1  22
TORSDOF 3
ENDMDL
MODEL 9
REMARK VINA RESULT:      -6.0      7.435      9.501
REMARK  Name = 
REMARK  5 active torsions:
REMARK  status: ('A' for Active; 'I' for Inactive)
REMARK    1  A    between atoms: C_1  and  O_2
REMARK    2  A    between atoms: O_2  and  C_3
REMARK    3  A    between atoms: C_8  and  C_9
REMARK    4  A    between atoms: C_13  and  C_14
REMARK    5  A    between atoms: N_15  and  C_16
REMARK                            x       y       z     vdW  Elec       q    Type
REMARK                         _______ _______ _______ _____ _____    ______ ____
ROOT
ATOM      1  C   UNL     1      -1.482  11.394  18.645  0.00  0.00    +0.000 C 
ATOM      2  O   UNL     1      -1.160  10.220  18.845  0.00  0.00    +0.000 OA
ATOM      3  N   UNL     1      -0.622  12.475  18.901  0.00  0.00    +0.000 N 
ATOM      4  C   UNL     1      -1.010  13.765  19.201  0.00  0.00    +0.000 A 
ATOM      5  C   UNL     1       0.050  14.580  19.293  0.00  0.00    +0.000 A 
ATOM      6  C   UNL     1      -0.051  16.055  19.462  0.00  0.00    +0.000 C 
ATOM      7  N   UNL     1       1.226  13.857  19.064  0.00  0.00    +0.000 N 
ATOM      8  C   UNL     1       0.836  12.457  18.859  0.00  0.00    +0.000 A 
ATOM      9  S   UNL     1       1.811  11.106  18.689  0.00  0.00    +0.000 S 
ENDROOT
BRANCH   7  10
ATOM     10  C   UNL     1       2.566  14.368  19.006  0.00  0.00    +0.000 A 
ATOM     11  C   UNL     1       3.134  14.791  17.797  0.00  0.00    +0.000 A 
ATOM     12  C   UNL     1       4.454  15.256  17.723  0.00  0.00    +0.000 A 
ATOM     13  C   UNL     1       5.223  15.336  18.877  0.00  0.00    +0.000 A 
ATOM     14 CL   UNL     1       6.837  15.916  18.795  0.00  0.00    +0.000 Cl
ATOM     15  C   UNL     1       4.687  14.939  20.094  0.00  0.00    +0.000 A 
ATOM     16  C   UNL     1       3.376  14.446  20.151  0.00  0.00    +0.000 A 
ENDBRANCH   7  10
BRANCH   1  22
ATOM     17  C   UNL     1      -3.392  11.356  16.903  0.00  0.00    +0.000 A 
ATOM     18  C   UNL     1      -4.762  11.543  16.650  0.00  0.00    +0.000 A 
ATOM     19  C   UNL     1      -5.645  11.894  17.675  0.00  0.00    +0.000 A 
ATOM     20  C   UNL     1      -5.173  12.074  18.966  0.00  0.00    +0.000 A 
ATOM     21  C   UNL     1      -3.810  11.938  19.223  0.00  0.00    +0.000 A 
ATOM     22  C   UNL     1      -2.898  11.603  18.199  0.00  0.00    +0.000 A 
BRANCH  17  24
ATOM     23  C   UNL     1      -3.069  10.286  14.795  0.00  0.00    +0.000 C 
ATOM     24  O   UNL     1      -2.514  10.932  15.940  0.00  0.00    +0.000 OA
ENDBRANCH  17  24
ENDBRANCH   1  22
TORSDOF 3
ENDMDL
