MODEL 1
REMARK VINA RESULT:      -7.6      0.000      0.000
REMARK  Name = 
REMARK  4 active torsions:
REMARK  status: ('A' for Active; 'I' for Inactive)
REMARK    1  A    between atoms: C_1  and  C_2
REMARK    2  A    between atoms: C_7  and  C_8
REMARK    3  A    between atoms: N_10  and  C_11
REMARK    4  A    between atoms: C_19  and  C_20
REMARK                            x       y       z     vdW  Elec       q    Type
REMARK                         _______ _______ _______ _____ _____    ______ ____
ROOT
ATOM      1  C   UNL     1       5.458   4.308  18.278  0.00  0.00    +0.000 C 
ATOM      2  O   UNL     1       6.090   4.019  19.289  0.00  0.00    +0.000 OA
ATOM      3  N   UNL     1       4.080   4.213  18.202  0.00  0.00    +0.000 N 
ATOM      4  H   UNL     1       3.647   4.295  17.276  0.00  0.00    +0.000 HD
ENDROOT
BRANCH   1  11
ATOM      5  C   UNL     1       6.585   3.977  13.298  0.00  0.00    +0.000 C 
ATOM      6  C   UNL     1       6.744   4.645  14.651  0.00  0.00    +0.000 A 
ATOM      7  N   UNL     1       7.523   5.678  14.687  0.00  0.00    +0.000 NA
ATOM      8  N   UNL     1       7.684   6.286  15.880  0.00  0.00    +0.000 N 
ATOM      9  C   UNL     1       7.107   5.901  17.057  0.00  0.00    +0.000 A 
ATOM     10  O   UNL     1       7.351   6.504  18.101  0.00  0.00    +0.000 OA
ATOM     11  C   UNL     1       6.180   4.733  17.019  0.00  0.00    +0.000 A 
ATOM     12  C   UNL     1       6.004   4.086  15.840  0.00  0.00    +0.000 A 
ATOM     13  C   UNL     1       5.158   2.874  15.541  0.00  0.00    +0.000 C 
ATOM     14  H   UNL     1       8.304   7.089  15.900  0.00  0.00    +0.000 HD
ENDBRANCH   1  11
BRANCH   3  15
ATOM     15  C   UNL     1       3.199   3.857  19.255  0.00  0.00    +0.000 A 
ATOM     16  C   UNL     1       2.724   4.770  20.203  0.00  0.00    +0.000 A 
ATOM     17  C   UNL     1       1.877   4.350  21.234  0.00  0.00    +0.000 A 
ATOM     18  C   UNL     1       1.496   3.018  21.314  0.00  0.00    +0.000 A 
ATOM     19  F   UNL     1       0.693   2.623  22.310  0.00  0.00    +0.000 F 
ATOM     20  C   UNL     1       1.932   2.094  20.375  0.00  0.00    +0.000 A 
ATOM     21  C   UNL     1       2.773   2.523  19.350  0.00  0.00    +0.000 A 
ATOM     22  F   UNL     1       3.199   1.621  18.451  0.00  0.00    +0.000 F 
ENDBRANCH   3  15
TORSDOF 2
ENDMDL
MODEL 2
REMARK VINA RESULT:      -7.4      1.031      1.031
REMARK  Name = 
REMARK  4 active torsions:
REMARK  status: ('A' for Active; 'I' for Inactive)
REMARK    1  A    between atoms: C_1  and  C_2
REMARK    2  A    between atoms: C_7  and  C_8
REMARK    3  A    between atoms: N_10  and  C_11
REMARK    4  A    between atoms: C_19  and  C_20
REMARK                            x       y       z     vdW  Elec       q    Type
REMARK                         _______ _______ _______ _____ _____    ______ ____
ROOT
ATOM      1  C   UNL     1       4.380   5.054  17.464  0.00  0.00    +0.000 C 
ATOM      2  O   UNL     1       3.480   5.888  17.464  0.00  0.00    +0.000 OA
ATOM      3  N   UNL     1       4.426   3.999  18.358  0.00  0.00    +0.000 N 
ATOM      4  H   UNL     1       5.296   3.458  18.412  0.00  0.00    +0.000 HD
ENDROOT
BRANCH   1  11
ATOM      5  C   UNL     1       6.804   4.139  13.051  0.00  0.00    +0.000 C 
ATOM      6  C   UNL     1       6.738   4.802  14.414  0.00  0.00    +0.000 A 
ATOM      7  N   UNL     1       7.740   5.561  14.726  0.00  0.00    +0.000 NA
ATOM      8  N   UNL     1       7.706   6.158  15.935  0.00  0.00    +0.000 N 
ATOM      9  C   UNL     1       6.714   6.023  16.865  0.00  0.00    +0.000 A 
ATOM     10  O   UNL     1       6.800   6.584  17.957  0.00  0.00    +0.000 OA
ATOM     11  C   UNL     1       5.540   5.179  16.501  0.00  0.00    +0.000 A 
ATOM     12  C   UNL     1       5.544   4.551  15.299  0.00  0.00    +0.000 A 
ATOM     13  C   UNL     1       4.509   3.627  14.709  0.00  0.00    +0.000 C 
ATOM     14  H   UNL     1       8.501   6.743  16.174  0.00  0.00    +0.000 HD
ENDBRANCH   1  11
BRANCH   3  15
ATOM     15  C   UNL     1       3.446   3.673  19.330  0.00  0.00    +0.000 A 
ATOM     16  C   UNL     1       3.144   4.491  20.423  0.00  0.00    +0.000 A 
ATOM     17  C   UNL     1       2.184   4.099  21.362  0.00  0.00    +0.000 A 
ATOM     18  C   UNL     1       1.517   2.892  21.205  0.00  0.00    +0.000 A 
ATOM     19  F   UNL     1       0.607   2.521  22.114  0.00  0.00    +0.000 F 
ATOM     20  C   UNL     1       1.779   2.070  20.118  0.00  0.00    +0.000 A 
ATOM     21  C   UNL     1       2.735   2.471  19.186  0.00  0.00    +0.000 A 
ATOM     22  F   UNL     1       2.990   1.665  18.144  0.00  0.00    +0.000 F 
ENDBRANCH   3  15
TORSDOF 2
ENDMDL
MODEL 3
REMARK VINA RESULT:      -7.4      1.051      1.300
REMARK  Name = 
REMARK  4 active torsions:
REMARK  status: ('A' for Active; 'I' for Inactive)
REMARK    1  A    between atoms: C_1  and  C_2
REMARK    2  A    between atoms: C_7  and  C_8
REMARK    3  A    between atoms: N_10  and  C_11
REMARK    4  A    between atoms: C_19  and  C_20
REMARK                            x       y       z     vdW  Elec       q    Type
REMARK                         _______ _______ _______ _____ _____    ______ ____
ROOT
ATOM      1  C   UNL     1       5.435   4.471  18.503  0.00  0.00    +0.000 C 
ATOM      2  O   UNL     1       6.004   4.642  19.577  0.00  0.00    +0.000 OA
ATOM      3  N   UNL     1       4.168   3.924  18.403  0.00  0.00    +0.000 N 
ATOM      4  H   UNL     1       3.841   3.647  17.472  0.00  0.00    +0.000 HD
ENDROOT
BRANCH   1  11
ATOM      5  C   UNL     1       6.375   3.868  13.509  0.00  0.00    +0.000 C 
ATOM      6  C   UNL     1       6.614   4.584  14.826  0.00  0.00    +0.000 A 
ATOM      7  N   UNL     1       7.446   5.575  14.791  0.00  0.00    +0.000 NA
ATOM      8  N   UNL     1       7.677   6.225  15.951  0.00  0.00    +0.000 N 
ATOM      9  C   UNL     1       7.121   5.921  17.161  0.00  0.00    +0.000 A 
ATOM     10  O   UNL     1       7.431   6.555  18.169  0.00  0.00    +0.000 OA
ATOM     11  C   UNL     1       6.136   4.803  17.204  0.00  0.00    +0.000 A 
ATOM     12  C   UNL     1       5.887   4.117  16.061  0.00  0.00    +0.000 A 
ATOM     13  C   UNL     1       4.971   2.939  15.843  0.00  0.00    +0.000 C 
ATOM     14  H   UNL     1       8.339   6.994  15.915  0.00  0.00    +0.000 HD
ENDBRANCH   1  11
BRANCH   3  15
ATOM     15  C   UNL     1       3.320   3.557  19.480  0.00  0.00    +0.000 A 
ATOM     16  C   UNL     1       3.666   2.603  20.442  0.00  0.00    +0.000 A 
ATOM     17  C   UNL     1       2.773   2.267  21.464  0.00  0.00    +0.000 A 
ATOM     18  C   UNL     1       1.535   2.891  21.532  0.00  0.00    +0.000 A 
ATOM     19  F   UNL     1       0.683   2.555  22.509  0.00  0.00    +0.000 F 
ATOM     20  C   UNL     1       1.173   3.859  20.606  0.00  0.00    +0.000 A 
ATOM     21  C   UNL     1       2.071   4.189  19.592  0.00  0.00    +0.000 A 
ATOM     22  F   UNL     1       1.709   5.118  18.694  0.00  0.00    +0.000 F 
ENDBRANCH   3  15
TORSDOF 2
ENDMDL
MODEL 4
REMARK VINA RESULT:      -7.4      1.261      1.276
REMARK  Name = 
REMARK  4 active torsions:
REMARK  status: ('A' for Active; 'I' for Inactive)
REMARK    1  A    between atoms: C_1  and  C_2
REMARK    2  A    between atoms: C_7  and  C_8
REMARK    3  A    between atoms: N_10  and  C_11
REMARK    4  A    between atoms: C_19  and  C_20
REMARK                            x       y       z     vdW  Elec       q    Type
REMARK                         _______ _______ _______ _____ _____    ______ ____
ROOT
ATOM      1  C   UNL     1       4.409   5.079  17.745  0.00  0.00    +0.000 C 
ATOM      2  O   UNL     1       3.689   6.044  17.982  0.00  0.00    +0.000 OA
ATOM      3  N   UNL     1       4.294   3.874  18.414  0.00  0.00    +0.000 N 
ATOM      4  H   UNL     1       5.044   3.186  18.289  0.00  0.00    +0.000 HD
ENDROOT
BRANCH   1  11
ATOM      5  C   UNL     1       6.634   4.065  13.250  0.00  0.00    +0.000 C 
ATOM      6  C   UNL     1       6.626   4.763  14.597  0.00  0.00    +0.000 A 
ATOM      7  N   UNL     1       7.635   5.536  14.842  0.00  0.00    +0.000 NA
ATOM      8  N   UNL     1       7.653   6.164  16.036  0.00  0.00    +0.000 N 
ATOM      9  C   UNL     1       6.706   6.047  17.014  0.00  0.00    +0.000 A 
ATOM     10  O   UNL     1       6.838   6.637  18.086  0.00  0.00    +0.000 OA
ATOM     11  C   UNL     1       5.523   5.187  16.727  0.00  0.00    +0.000 A 
ATOM     12  C   UNL     1       5.476   4.527  15.542  0.00  0.00    +0.000 A 
ATOM     13  C   UNL     1       4.421   3.582  15.025  0.00  0.00    +0.000 C 
ATOM     14  H   UNL     1       8.453   6.760  16.222  0.00  0.00    +0.000 HD
ENDBRANCH   1  11
BRANCH   3  15
ATOM     15  C   UNL     1       3.319   3.539  19.388  0.00  0.00    +0.000 A 
ATOM     16  C   UNL     1       2.000   4.003  19.349  0.00  0.00    +0.000 A 
ATOM     17  C   UNL     1       1.093   3.657  20.355  0.00  0.00    +0.000 A 
ATOM     18  C   UNL     1       1.500   2.838  21.400  0.00  0.00    +0.000 A 
ATOM     19  F   UNL     1       0.627   2.521  22.364  0.00  0.00    +0.000 F 
ATOM     20  C   UNL     1       2.795   2.343  21.454  0.00  0.00    +0.000 A 
ATOM     21  C   UNL     1       3.691   2.692  20.444  0.00  0.00    +0.000 A 
ATOM     22  F   UNL     1       4.945   2.217  20.509  0.00  0.00    +0.000 F 
ENDBRANCH   3  15
TORSDOF 2
ENDMDL
MODEL 5
REMARK VINA RESULT:      -7.3      3.140      6.896
REMARK  Name = 
REMARK  4 active torsions:
REMARK  status: ('A' for Active; 'I' for Inactive)
REMARK    1  A    between atoms: C_1  and  C_2
REMARK    2  A    between atoms: C_7  and  C_8
REMARK    3  A    between atoms: N_10  and  C_11
REMARK    4  A    between atoms: C_19  and  C_20
REMARK                            x       y       z     vdW  Elec       q    Type
REMARK                         _______ _______ _______ _____ _____    ______ ____
ROOT
ATOM      1  C   UNL     1       4.478   4.683  16.898  0.00  0.00    +0.000 C 
ATOM      2  O   UNL     1       4.293   5.853  16.579  0.00  0.00    +0.000 OA
ATOM      3  N   UNL     1       5.139   3.779  16.086  0.00  0.00    +0.000 N 
ATOM      4  H   UNL     1       5.092   2.786  16.340  0.00  0.00    +0.000 HD
ENDROOT
BRANCH   1  11
ATOM      5  C   UNL     1       0.707   3.153  20.000  0.00  0.00    +0.000 C 
ATOM      6  C   UNL     1       2.180   3.384  19.719  0.00  0.00    +0.000 A 
ATOM      7  N   UNL     1       2.999   3.045  20.663  0.00  0.00    +0.000 NA
ATOM      8  N   UNL     1       4.314   3.245  20.437  0.00  0.00    +0.000 N 
ATOM      9  C   UNL     1       4.857   3.786  19.306  0.00  0.00    +0.000 A 
ATOM     10  O   UNL     1       6.072   3.961  19.218  0.00  0.00    +0.000 OA
ATOM     11  C   UNL     1       3.925   4.148  18.200  0.00  0.00    +0.000 A 
ATOM     12  C   UNL     1       2.594   3.974  18.394  0.00  0.00    +0.000 A 
ATOM     13  C   UNL     1       1.451   4.286  17.462  0.00  0.00    +0.000 C 
ATOM     14  H   UNL     1       4.947   2.985  21.187  0.00  0.00    +0.000 HD
ENDBRANCH   1  11
BRANCH   3  15
ATOM     15  C   UNL     1       5.755   4.058  14.839  0.00  0.00    +0.000 A 
ATOM     16  C   UNL     1       5.263   3.591  13.616  0.00  0.00    +0.000 A 
ATOM     17  C   UNL     1       5.933   3.879  12.422  0.00  0.00    +0.000 A 
ATOM     18  C   UNL     1       7.091   4.644  12.448  0.00  0.00    +0.000 A 
ATOM     19  F   UNL     1       7.731   4.906  11.301  0.00  0.00    +0.000 F 
ATOM     20  C   UNL     1       7.590   5.140  13.644  0.00  0.00    +0.000 A 
ATOM     21  C   UNL     1       6.914   4.850  14.827  0.00  0.00    +0.000 A 
ATOM     22  F   UNL     1       7.409   5.325  15.981  0.00  0.00    +0.000 F 
ENDBRANCH   3  15
TORSDOF 2
ENDMDL
MODEL 6
REMARK VINA RESULT:      -7.2      1.686      2.067
REMARK  Name = 
REMARK  4 active torsions:
REMARK  status: ('A' for Active; 'I' for Inactive)
REMARK    1  A    between atoms: C_1  and  C_2
REMARK    2  A    between atoms: C_7  and  C_8
REMARK    3  A    between atoms: N_10  and  C_11
REMARK    4  A    between atoms: C_19  and  C_20
REMARK                            x       y       z     vdW  Elec       q    Type
REMARK                         _______ _______ _______ _____ _____    ______ ____
ROOT
ATOM      1  C   UNL     1       4.884   4.690  16.432  0.00  0.00    +0.000 C 
ATOM      2  O   UNL     1       4.201   5.665  16.728  0.00  0.00    +0.000 OA
ATOM      3  N   UNL     1       4.734   3.455  17.037  0.00  0.00    +0.000 N 
ATOM      4  H   UNL     1       5.457   2.749  16.866  0.00  0.00    +0.000 HD
ENDROOT
BRANCH   1  11
ATOM      5  C   UNL     1       6.951   3.999  11.802  0.00  0.00    +0.000 C 
ATOM      6  C   UNL     1       7.023   4.538  13.218  0.00  0.00    +0.000 A 
ATOM      7  N   UNL     1       8.102   5.185  13.526  0.00  0.00    +0.000 NA
ATOM      8  N   UNL     1       8.191   5.670  14.782  0.00  0.00    +0.000 N 
ATOM      9  C   UNL     1       7.250   5.528  15.761  0.00  0.00    +0.000 A 
ATOM     10  O   UNL     1       7.448   5.978  16.889  0.00  0.00    +0.000 OA
ATOM     11  C   UNL     1       5.990   4.814  15.407  0.00  0.00    +0.000 A 
ATOM     12  C   UNL     1       5.869   4.299  14.157  0.00  0.00    +0.000 A 
ATOM     13  C   UNL     1       4.726   3.516  13.562  0.00  0.00    +0.000 C 
ATOM     14  H   UNL     1       9.044   6.167  15.015  0.00  0.00    +0.000 HD
ENDBRANCH   1  11
BRANCH   3  15
ATOM     15  C   UNL     1       3.757   3.103  18.003  0.00  0.00    +0.000 A 
ATOM     16  C   UNL     1       2.521   2.536  17.678  0.00  0.00    +0.000 A 
ATOM     17  C   UNL     1       1.590   2.235  18.677  0.00  0.00    +0.000 A 
ATOM     18  C   UNL     1       1.897   2.493  20.006  0.00  0.00    +0.000 A 
ATOM     19  F   UNL     1       0.995   2.211  20.955  0.00  0.00    +0.000 F 
ATOM     20  C   UNL     1       3.124   3.033  20.362  0.00  0.00    +0.000 A 
ATOM     21  C   UNL     1       4.046   3.327  19.359  0.00  0.00    +0.000 A 
ATOM     22  F   UNL     1       5.227   3.859  19.711  0.00  0.00    +0.000 F 
ENDBRANCH   3  15
TORSDOF 2
ENDMDL
MODEL 7
REMARK VINA RESULT:      -7.2      4.179      5.200
REMARK  Name = 
REMARK  4 active torsions:
REMARK  status: ('A' for Active; 'I' for Inactive)
REMARK    1  A    between atoms: C_1  and  C_2
REMARK    2  A    between atoms: C_7  and  C_8
REMARK    3  A    between atoms: N_10  and  C_11
REMARK    4  A    between atoms: C_19  and  C_20
REMARK                            x       y       z     vdW  Elec       q    Type
REMARK                         _______ _______ _______ _____ _____    ______ ____
ROOT
ATOM      1  C   UNL     1       2.812   6.265  18.278  0.00  0.00    +0.000 C 
ATOM      2  O   UNL     1       1.762   5.758  17.895  0.00  0.00    +0.000 OA
ATOM      3  N   UNL     1       2.887   7.556  18.770  0.00  0.00    +0.000 N 
ATOM      4  H   UNL     1       3.818   7.965  18.895  0.00  0.00    +0.000 HD
ENDROOT
BRANCH   1  11
ATOM      5  C   UNL     1       7.332   5.177  16.140  0.00  0.00    +0.000 C 
ATOM      6  C   UNL     1       6.286   4.951  17.216  0.00  0.00    +0.000 A 
ATOM      7  N   UNL     1       6.580   4.070  18.119  0.00  0.00    +0.000 NA
ATOM      8  N   UNL     1       5.663   3.848  19.083  0.00  0.00    +0.000 N 
ATOM      9  C   UNL     1       4.447   4.462  19.185  0.00  0.00    +0.000 A 
ATOM     10  O   UNL     1       3.666   4.158  20.086  0.00  0.00    +0.000 OA
ATOM     11  C   UNL     1       4.114   5.503  18.171  0.00  0.00    +0.000 A 
ATOM     12  C   UNL     1       5.005   5.744  17.177  0.00  0.00    +0.000 A 
ATOM     13  C   UNL     1       4.899   6.709  16.023  0.00  0.00    +0.000 C 
ATOM     14  H   UNL     1       5.899   3.149  19.780  0.00  0.00    +0.000 HD
ENDBRANCH   1  11
BRANCH   3  15
ATOM     15  C   UNL     1       1.800   8.444  18.978  0.00  0.00    +0.000 A 
ATOM     16  C   UNL     1       1.261   9.250  17.970  0.00  0.00    +0.000 A 
ATOM     17  C   UNL     1       0.205  10.125  18.247  0.00  0.00    +0.000 A 
ATOM     18  C   UNL     1      -0.319  10.190  19.530  0.00  0.00    +0.000 A 
ATOM     19  F   UNL     1      -1.323  11.038  19.788  0.00  0.00    +0.000 F 
ATOM     20  C   UNL     1       0.180   9.386  20.545  0.00  0.00    +0.000 A 
ATOM     21  C   UNL     1       1.230   8.515  20.259  0.00  0.00    +0.000 A 
ATOM     22  F   UNL     1       1.713   7.748  21.248  0.00  0.00    +0.000 F 
ENDBRANCH   3  15
TORSDOF 2
ENDMDL
MODEL 8
REMARK VINA RESULT:      -7.2      4.274      5.213
REMARK  Name = 
REMARK  4 active torsions:
REMARK  status: ('A' for Active; 'I' for Inactive)
REMARK    1  A    between atoms: C_1  and  C_2
REMARK    2  A    between atoms: C_7  and  C_8
REMARK    3  A    between atoms: N_10  and  C_11
REMARK    4  A    between atoms: C_19  and  C_20
REMARK                            x       y       z     vdW  Elec       q    Type
REMARK                         _______ _______ _______ _____ _____    ______ ____
ROOT
ATOM      1  C   UNL     1       2.773   6.232  18.478  0.00  0.00    +0.000 C 
ATOM      2  O   UNL     1       1.728   5.839  17.968  0.00  0.00    +0.000 OA
ATOM      3  N   UNL     1       2.865   7.418  19.184  0.00  0.00    +0.000 N 
ATOM      4  H   UNL     1       3.802   7.762  19.417  0.00  0.00    +0.000 HD
ENDROOT
BRANCH   1  11
ATOM      5  C   UNL     1       7.233   5.174  16.202  0.00  0.00    +0.000 C 
ATOM      6  C   UNL     1       6.196   4.904  17.278  0.00  0.00    +0.000 A 
ATOM      7  N   UNL     1       6.480   3.958  18.115  0.00  0.00    +0.000 NA
ATOM      8  N   UNL     1       5.571   3.697  19.077  0.00  0.00    +0.000 N 
ATOM      9  C   UNL     1       4.373   4.332  19.239  0.00  0.00    +0.000 A 
ATOM     10  O   UNL     1       3.598   3.989  20.130  0.00  0.00    +0.000 OA
ATOM     11  C   UNL     1       4.053   5.446  18.300  0.00  0.00    +0.000 A 
ATOM     12  C   UNL     1       4.936   5.730  17.310  0.00  0.00    +0.000 A 
ATOM     13  C   UNL     1       4.839   6.771  16.224  0.00  0.00    +0.000 C 
ATOM     14  H   UNL     1       5.799   2.947  19.723  0.00  0.00    +0.000 HD
ENDBRANCH   1  11
BRANCH   3  15
ATOM     15  C   UNL     1       1.799   8.302  19.491  0.00  0.00    +0.000 A 
ATOM     16  C   UNL     1       1.148   8.322  20.728  0.00  0.00    +0.000 A 
ATOM     17  C   UNL     1       0.085   9.201  20.960  0.00  0.00    +0.000 A 
ATOM     18  C   UNL     1      -0.323  10.069  19.957  0.00  0.00    +0.000 A 
ATOM     19  F   UNL     1      -1.348  10.900  20.184  0.00  0.00    +0.000 F 
ATOM     20  C   UNL     1       0.319  10.089  18.726  0.00  0.00    +0.000 A 
ATOM     21  C   UNL     1       1.379   9.211  18.507  0.00  0.00    +0.000 A 
ATOM     22  F   UNL     1       1.988   9.229  17.311  0.00  0.00    +0.000 F 
ENDBRANCH   3  15
TORSDOF 2
ENDMDL
MODEL 9
REMARK VINA RESULT:      -7.1      1.836      2.292
REMARK  Name = 
REMARK  4 active torsions:
REMARK  status: ('A' for Active; 'I' for Inactive)
REMARK    1  A    between atoms: C_1  and  C_2
REMARK    2  A    between atoms: C_7  and  C_8
REMARK    3  A    between atoms: N_10  and  C_11
REMARK    4  A    between atoms: C_19  and  C_20
REMARK                            x       y       z     vdW  Elec       q    Type
REMARK                         _______ _______ _______ _____ _____    ______ ____
ROOT
ATOM      1  C   UNL     1       5.201   3.922  16.223  0.00  0.00    +0.000 C 
ATOM      2  O   UNL     1       5.072   2.714  16.392  0.00  0.00    +0.000 OA
ATOM      3  N   UNL     1       4.406   4.859  16.860  0.00  0.00    +0.000 N 
ATOM      4  H   UNL     1       4.453   5.828  16.528  0.00  0.00    +0.000 HD
ENDROOT
BRANCH   1  11
ATOM      5  C   UNL     1       7.150   4.576  11.537  0.00  0.00    +0.000 C 
ATOM      6  C   UNL     1       7.187   4.821  13.034  0.00  0.00    +0.000 A 
ATOM      7  N   UNL     1       8.144   5.582  13.461  0.00  0.00    +0.000 NA
ATOM      8  N   UNL     1       8.200   5.811  14.790  0.00  0.00    +0.000 N 
ATOM      9  C   UNL     1       7.345   5.301  15.725  0.00  0.00    +0.000 A 
ATOM     10  O   UNL     1       7.509   5.543  16.920  0.00  0.00    +0.000 OA
ATOM     11  C   UNL     1       6.219   4.453  15.239  0.00  0.00    +0.000 A 
ATOM     12  C   UNL     1       6.137   4.188  13.911  0.00  0.00    +0.000 A 
ATOM     13  C   UNL     1       5.129   3.343  13.173  0.00  0.00    +0.000 C 
ATOM     14  H   UNL     1       8.960   6.400  15.116  0.00  0.00    +0.000 HD
ENDBRANCH   1  11
BRANCH   3  15
ATOM     15  C   UNL     1       3.407   4.596  17.831  0.00  0.00    +0.000 A 
ATOM     16  C   UNL     1       2.177   4.003  17.530  0.00  0.00    +0.000 A 
ATOM     17  C   UNL     1       1.222   3.795  18.530  0.00  0.00    +0.000 A 
ATOM     18  C   UNL     1       1.498   4.173  19.837  0.00  0.00    +0.000 A 
ATOM     19  F   UNL     1       0.574   3.979  20.786  0.00  0.00    +0.000 F 
ATOM     20  C   UNL     1       2.719   4.743  20.171  0.00  0.00    +0.000 A 
ATOM     21  C   UNL     1       3.665   4.943  19.167  0.00  0.00    +0.000 A 
ATOM     22  F   UNL     1       4.838   5.504  19.497  0.00  0.00    +0.000 F 
ENDBRANCH   3  15
TORSDOF 2
ENDMDL
