MODEL 1
REMARK VINA RESULT:      -7.7      0.000      0.000
REMARK  Name = 
REMARK  12 active torsions:
REMARK  status: ('A' for Active; 'I' for Inactive)
REMARK    1  A    between atoms: C_1  and  C_2
REMARK    2  A    between atoms: C_2  and  O_3
REMARK    3  A    between atoms: C_2  and  C_14
REMARK    4  A    between atoms: O_3  and  C_4
REMARK    5  A    between atoms: C_7  and  C_8
REMARK    6  A    between atoms: C_8  and  C_9
REMARK    7  A    between atoms: C_8  and  C_10
REMARK    8  A    between atoms: C_8  and  C_11
REMARK    9  A    between atoms: N_16  and  C_17
REMARK   10  A    between atoms: C_17  and  C_18
REMARK   11  A    between atoms: C_18  and  C_19
REMARK   12  A    between atoms: C_18  and  N_24
REMARK                            x       y       z     vdW  Elec       q    Type
REMARK                         _______ _______ _______ _____ _____    ______ ____
ROOT
ATOM      1  C   UNL     1       3.056   3.910  19.129  0.00  0.00    +0.000 C 
ATOM      2  O   UNL     1       3.630   3.045  19.791  0.00  0.00    +0.000 OA
ATOM      3  N   UNL     1       3.354   4.126  17.797  0.00  0.00    +0.000 N 
ATOM      4  H   UNL     1       3.123   5.052  17.450  0.00  0.00    +0.000 HD
ENDROOT
BRANCH   1   6
ATOM      5  C   UNL     1       1.020   3.825  20.544  0.00  0.00    +0.000 C 
ATOM      6  C   UNL     1       1.911   4.763  19.715  0.00  0.00    +0.000 C 
BRANCH   6   7
ATOM      7  O   UNL     1       2.425   5.851  20.497  0.00  0.00    +0.000 OA
BRANCH   7   8
ATOM      8  C   UNL     1       1.879   7.088  20.263  0.00  0.00    +0.000 A 
ATOM      9  C   UNL     1       1.125   7.806  21.180  0.00  0.00    +0.000 A 
ATOM     10  C   UNL     1       0.675   9.098  20.888  0.00  0.00    +0.000 A 
ATOM     11  C   UNL     1       0.948   9.718  19.665  0.00  0.00    +0.000 A 
ATOM     12  C   UNL     1       1.684   8.969  18.727  0.00  0.00    +0.000 A 
ATOM     13  C   UNL     1       2.156   7.677  19.029  0.00  0.00    +0.000 A 
BRANCH  11  14
ATOM     14  C   UNL     1       0.493  11.158  19.370  0.00  0.00    +0.000 C 
ATOM     15  C   UNL     1       1.576  12.008  18.659  0.00  0.00    +0.000 C 
ATOM     16  C   UNL     1      -0.741  11.134  18.444  0.00  0.00    +0.000 C 
ATOM     17  C   UNL     1       0.134  11.888  20.679  0.00  0.00    +0.000 C 
ENDBRANCH  11  14
ENDBRANCH   7   8
ENDBRANCH   6   7
ENDBRANCH   1   6
BRANCH   3  18
ATOM     18  C   UNL     1       4.514   3.431  17.242  0.00  0.00    +0.000 C 
BRANCH  18  19
ATOM     19  C   UNL     1       5.804   4.284  17.083  0.00  0.00    +0.000 C 
BRANCH  19  20
ATOM     20  C   UNL     1       6.172   4.436  15.630  0.00  0.00    +0.000 A 
ATOM     21  C   UNL     1       5.439   4.394  14.460  0.00  0.00    +0.000 A 
ATOM     22  C   UNL     1       6.355   4.599  13.401  0.00  0.00    +0.000 A 
ATOM     23  C   UNL     1       7.584   4.778  13.988  0.00  0.00    +0.000 A 
ATOM     24  O   UNL     1       7.484   4.681  15.336  0.00  0.00    +0.000 OA
ENDBRANCH  19  20
BRANCH  19  25
ATOM     25  N   UNL     1       5.711   5.551  17.858  0.00  0.00    +0.000 NA
ATOM     26  C   UNL     1       6.084   6.781  17.150  0.00  0.00    +0.000 C 
ATOM     27  C   UNL     1       7.561   6.988  17.433  0.00  0.00    +0.000 C 
ATOM     28  C   UNL     1       7.788   6.322  18.783  0.00  0.00    +0.000 C 
ATOM     29  C   UNL     1       6.493   5.579  19.096  0.00  0.00    +0.000 C 
ENDBRANCH  19  25
ENDBRANCH  18  19
ENDBRANCH   3  18
TORSDOF 8
ENDMDL
MODEL 2
REMARK VINA RESULT:      -7.7      0.779      1.196
REMARK  Name = 
REMARK  12 active torsions:
REMARK  status: ('A' for Active; 'I' for Inactive)
REMARK    1  A    between atoms: C_1  and  C_2
REMARK    2  A    between atoms: C_2  and  O_3
REMARK    3  A    between atoms: C_2  and  C_14
REMARK    4  A    between atoms: O_3  and  C_4
REMARK    5  A    between atoms: C_7  and  C_8
REMARK    6  A    between atoms: C_8  and  C_9
REMARK    7  A    between atoms: C_8  and  C_10
REMARK    8  A    between atoms: C_8  and  C_11
REMARK    9  A    between atoms: N_16  and  C_17
REMARK   10  A    between atoms: C_17  and  C_18
REMARK   11  A    between atoms: C_18  and  C_19
REMARK   12  A    between atoms: C_18  and  N_24
REMARK                            x       y       z     vdW  Elec       q    Type
REMARK                         _______ _______ _______ _____ _____    ______ ____
ROOT
ATOM      1  C   UNL     1       2.341   4.313  18.813  0.00  0.00    +0.000 C 
ATOM      2  O   UNL     1       1.931   4.373  17.653  0.00  0.00    +0.000 OA
ATOM      3  N   UNL     1       3.632   3.917  19.110  0.00  0.00    +0.000 N 
ATOM      4  H   UNL     1       3.762   3.552  20.049  0.00  0.00    +0.000 HD
ENDROOT
BRANCH   1   6
ATOM      5  C   UNL     1       1.228   3.505  20.878  0.00  0.00    +0.000 C 
ATOM      6  C   UNL     1       1.472   4.750  20.012  0.00  0.00    +0.000 C 
BRANCH   6   7
ATOM      7  O   UNL     1       2.103   5.806  20.750  0.00  0.00    +0.000 OA
BRANCH   7   8
ATOM      8  C   UNL     1       1.767   7.089  20.399  0.00  0.00    +0.000 A 
ATOM      9  C   UNL     1       2.108   7.696  19.199  0.00  0.00    +0.000 A 
ATOM     10  C   UNL     1       1.655   8.983  18.887  0.00  0.00    +0.000 A 
ATOM     11  C   UNL     1       0.855   9.718  19.767  0.00  0.00    +0.000 A 
ATOM     12  C   UNL     1       0.542   9.108  20.997  0.00  0.00    +0.000 A 
ATOM     13  C   UNL     1       0.980   7.805  21.301  0.00  0.00    +0.000 A 
BRANCH  11  14
ATOM     14  C   UNL     1       0.317  11.112  19.397  0.00  0.00    +0.000 C 
ATOM     15  C   UNL     1       1.376  12.014  18.713  0.00  0.00    +0.000 C 
ATOM     16  C   UNL     1      -0.859  10.970  18.409  0.00  0.00    +0.000 C 
ATOM     17  C   UNL     1      -0.163  11.856  20.658  0.00  0.00    +0.000 C 
ENDBRANCH  11  14
ENDBRANCH   7   8
ENDBRANCH   6   7
ENDBRANCH   1   6
BRANCH   3  18
ATOM     18  C   UNL     1       4.441   3.377  18.021  0.00  0.00    +0.000 C 
BRANCH  18  19
ATOM     19  C   UNL     1       5.698   4.207  17.634  0.00  0.00    +0.000 C 
BRANCH  19  20
ATOM     20  C   UNL     1       5.843   4.298  16.137  0.00  0.00    +0.000 A 
ATOM     21  C   UNL     1       4.930   4.381  15.103  0.00  0.00    +0.000 A 
ATOM     22  C   UNL     1       5.681   4.432  13.905  0.00  0.00    +0.000 A 
ATOM     23  C   UNL     1       7.003   4.402  14.280  0.00  0.00    +0.000 A 
ATOM     24  O   UNL     1       7.111   4.320  15.628  0.00  0.00    +0.000 OA
ENDBRANCH  19  20
BRANCH  19  25
ATOM     25  N   UNL     1       5.732   5.503  18.363  0.00  0.00    +0.000 NA
ATOM     26  C   UNL     1       5.858   6.713  17.542  0.00  0.00    +0.000 C 
ATOM     27  C   UNL     1       7.347   6.994  17.445  0.00  0.00    +0.000 C 
ATOM     28  C   UNL     1       7.931   6.401  18.721  0.00  0.00    +0.000 C 
ATOM     29  C   UNL     1       6.791   5.622  19.369  0.00  0.00    +0.000 C 
ENDBRANCH  19  25
ENDBRANCH  18  19
ENDBRANCH   3  18
TORSDOF 8
ENDMDL
MODEL 3
REMARK VINA RESULT:      -7.6      2.087      3.871
REMARK  Name = 
REMARK  12 active torsions:
REMARK  status: ('A' for Active; 'I' for Inactive)
REMARK    1  A    between atoms: C_1  and  C_2
REMARK    2  A    between atoms: C_2  and  O_3
REMARK    3  A    between atoms: C_2  and  C_14
REMARK    4  A    between atoms: O_3  and  C_4
REMARK    5  A    between atoms: C_7  and  C_8
REMARK    6  A    between atoms: C_8  and  C_9
REMARK    7  A    between atoms: C_8  and  C_10
REMARK    8  A    between atoms: C_8  and  C_11
REMARK    9  A    between atoms: N_16  and  C_17
REMARK   10  A    between atoms: C_17  and  C_18
REMARK   11  A    between atoms: C_18  and  C_19
REMARK   12  A    between atoms: C_18  and  N_24
REMARK                            x       y       z     vdW  Elec       q    Type
REMARK                         _______ _______ _______ _____ _____    ______ ____
ROOT
ATOM      1  C   UNL     1       2.800   6.782  19.411  0.00  0.00    +0.000 C 
ATOM      2  O   UNL     1       3.010   7.532  18.456  0.00  0.00    +0.000 OA
ATOM      3  N   UNL     1       3.689   5.784  19.763  0.00  0.00    +0.000 N 
ATOM      4  H   UNL     1       3.284   5.017  20.291  0.00  0.00    +0.000 HD
ENDROOT
BRANCH   1   6
ATOM      5  C   UNL     1       1.179   5.554  20.833  0.00  0.00    +0.000 C 
ATOM      6  C   UNL     1       1.570   6.952  20.329  0.00  0.00    +0.000 C 
BRANCH   6   7
ATOM      7  O   UNL     1       1.852   7.855  21.407  0.00  0.00    +0.000 OA
BRANCH   7   8
ATOM      8  C   UNL     1       0.943   8.861  21.620  0.00  0.00    +0.000 A 
ATOM      9  C   UNL     1       0.334   9.133  22.836  0.00  0.00    +0.000 A 
ATOM     10  C   UNL     1      -0.521  10.231  22.985  0.00  0.00    +0.000 A 
ATOM     11  C   UNL     1      -0.811  11.091  21.923  0.00  0.00    +0.000 A 
ATOM     12  C   UNL     1      -0.217  10.789  20.682  0.00  0.00    +0.000 A 
ATOM     13  C   UNL     1       0.661   9.696  20.538  0.00  0.00    +0.000 A 
BRANCH  11  14
ATOM     14  C   UNL     1      -1.712  12.326  22.105  0.00  0.00    +0.000 C 
ATOM     15  C   UNL     1      -0.926  13.604  22.494  0.00  0.00    +0.000 C 
ATOM     16  C   UNL     1      -2.447  12.633  20.785  0.00  0.00    +0.000 C 
ATOM     17  C   UNL     1      -2.747  12.077  23.220  0.00  0.00    +0.000 C 
ENDBRANCH  11  14
ENDBRANCH   7   8
ENDBRANCH   6   7
ENDBRANCH   1   6
BRANCH   3  18
ATOM     18  C   UNL     1       4.795   5.511  18.849  0.00  0.00    +0.000 C 
BRANCH  18  19
ATOM     19  C   UNL     1       4.657   4.227  17.982  0.00  0.00    +0.000 C 
BRANCH  19  20
ATOM     20  C   UNL     1       3.443   3.432  18.388  0.00  0.00    +0.000 A 
ATOM     21  C   UNL     1       3.257   2.356  19.234  0.00  0.00    +0.000 A 
ATOM     22  C   UNL     1       1.878   2.045  19.196  0.00  0.00    +0.000 A 
ATOM     23  C   UNL     1       1.302   2.964  18.352  0.00  0.00    +0.000 A 
ATOM     24  O   UNL     1       2.241   3.807  17.857  0.00  0.00    +0.000 OA
ENDBRANCH  19  20
BRANCH  19  25
ATOM     25  N   UNL     1       4.763   4.542  16.532  0.00  0.00    +0.000 NA
ATOM     26  C   UNL     1       5.658   3.691  15.741  0.00  0.00    +0.000 C 
ATOM     27  C   UNL     1       7.008   4.386  15.753  0.00  0.00    +0.000 C 
ATOM     28  C   UNL     1       6.675   5.862  15.924  0.00  0.00    +0.000 C 
ATOM     29  C   UNL     1       5.181   5.912  16.224  0.00  0.00    +0.000 C 
ENDBRANCH  19  25
ENDBRANCH  18  19
ENDBRANCH   3  18
TORSDOF 8
ENDMDL
MODEL 4
REMARK VINA RESULT:      -7.5      0.585      1.429
REMARK  Name = 
REMARK  12 active torsions:
REMARK  status: ('A' for Active; 'I' for Inactive)
REMARK    1  A    between atoms: C_1  and  C_2
REMARK    2  A    between atoms: C_2  and  O_3
REMARK    3  A    between atoms: C_2  and  C_14
REMARK    4  A    between atoms: O_3  and  C_4
REMARK    5  A    between atoms: C_7  and  C_8
REMARK    6  A    between atoms: C_8  and  C_9
REMARK    7  A    between atoms: C_8  and  C_10
REMARK    8  A    between atoms: C_8  and  C_11
REMARK    9  A    between atoms: N_16  and  C_17
REMARK   10  A    between atoms: C_17  and  C_18
REMARK   11  A    between atoms: C_18  and  C_19
REMARK   12  A    between atoms: C_18  and  N_24
REMARK                            x       y       z     vdW  Elec       q    Type
REMARK                         _______ _______ _______ _____ _____    ______ ____
ROOT
ATOM      1  C   UNL     1       3.059   3.797  19.328  0.00  0.00    +0.000 C 
ATOM      2  O   UNL     1       3.588   2.960  20.061  0.00  0.00    +0.000 OA
ATOM      3  N   UNL     1       3.484   3.999  18.028  0.00  0.00    +0.000 N 
ATOM      4  H   UNL     1       3.263   4.912  17.642  0.00  0.00    +0.000 HD
ENDROOT
BRANCH   1   6
ATOM      5  C   UNL     1       0.841   3.655  20.430  0.00  0.00    +0.000 C 
ATOM      6  C   UNL     1       1.839   4.626  19.780  0.00  0.00    +0.000 C 
BRANCH   6   7
ATOM      7  O   UNL     1       2.230   5.677  20.676  0.00  0.00    +0.000 OA
BRANCH   7   8
ATOM      8  C   UNL     1       1.887   6.955  20.313  0.00  0.00    +0.000 A 
ATOM      9  C   UNL     1       2.197   7.542  19.095  0.00  0.00    +0.000 A 
ATOM     10  C   UNL     1       1.737   8.824  18.775  0.00  0.00    +0.000 A 
ATOM     11  C   UNL     1       0.962   9.575  19.664  0.00  0.00    +0.000 A 
ATOM     12  C   UNL     1       0.681   8.986  20.912  0.00  0.00    +0.000 A 
ATOM     13  C   UNL     1       1.126   7.686  21.225  0.00  0.00    +0.000 A 
BRANCH  11  14
ATOM     14  C   UNL     1       0.417  10.964  19.286  0.00  0.00    +0.000 C 
ATOM     15  C   UNL     1      -0.785  10.904  18.310  0.00  0.00    +0.000 C 
ATOM     16  C   UNL     1      -0.068  11.694  20.555  0.00  0.00    +0.000 C 
ATOM     17  C   UNL     1       1.513  11.804  18.602  0.00  0.00    +0.000 C 
ENDBRANCH  11  14
ENDBRANCH   7   8
ENDBRANCH   6   7
ENDBRANCH   1   6
BRANCH   3  18
ATOM     18  C   UNL     1       4.711   3.328  17.606  0.00  0.00    +0.000 C 
BRANCH  18  19
ATOM     19  C   UNL     1       5.915   4.258  17.283  0.00  0.00    +0.000 C 
BRANCH  19  20
ATOM     20  C   UNL     1       6.127   4.366  15.795  0.00  0.00    +0.000 A 
ATOM     21  C   UNL     1       7.243   4.595  15.014  0.00  0.00    +0.000 A 
ATOM     22  C   UNL     1       6.803   4.593  13.669  0.00  0.00    +0.000 A 
ATOM     23  C   UNL     1       5.453   4.338  13.709  0.00  0.00    +0.000 A 
ATOM     24  O   UNL     1       5.035   4.200  14.991  0.00  0.00    +0.000 OA
ENDBRANCH  19  20
BRANCH  19  25
ATOM     25  N   UNL     1       5.808   5.551  18.011  0.00  0.00    +0.000 NA
ATOM     26  C   UNL     1       6.101   6.764  17.240  0.00  0.00    +0.000 C 
ATOM     27  C   UNL     1       7.580   7.037  17.446  0.00  0.00    +0.000 C 
ATOM     28  C   UNL     1       7.893   6.435  18.810  0.00  0.00    +0.000 C 
ATOM     29  C   UNL     1       6.643   5.658  19.210  0.00  0.00    +0.000 C 
ENDBRANCH  19  25
ENDBRANCH  18  19
ENDBRANCH   3  18
TORSDOF 8
ENDMDL
MODEL 5
REMARK VINA RESULT:      -7.5      2.578      4.942
REMARK  Name = 
REMARK  12 active torsions:
REMARK  status: ('A' for Active; 'I' for Inactive)
REMARK    1  A    between atoms: C_1  and  C_2
REMARK    2  A    between atoms: C_2  and  O_3
REMARK    3  A    between atoms: C_2  and  C_14
REMARK    4  A    between atoms: O_3  and  C_4
REMARK    5  A    between atoms: C_7  and  C_8
REMARK    6  A    between atoms: C_8  and  C_9
REMARK    7  A    between atoms: C_8  and  C_10
REMARK    8  A    between atoms: C_8  and  C_11
REMARK    9  A    between atoms: N_16  and  C_17
REMARK   10  A    between atoms: C_17  and  C_18
REMARK   11  A    between atoms: C_18  and  C_19
REMARK   12  A    between atoms: C_18  and  N_24
REMARK                            x       y       z     vdW  Elec       q    Type
REMARK                         _______ _______ _______ _____ _____    ______ ____
ROOT
ATOM      1  C   UNL     1       1.730   8.144  19.962  0.00  0.00    +0.000 C 
ATOM      2  O   UNL     1       1.464   7.719  21.087  0.00  0.00    +0.000 OA
ATOM      3  N   UNL     1       2.414   7.378  19.037  0.00  0.00    +0.000 N 
ATOM      4  H   UNL     1       2.895   7.907  18.315  0.00  0.00    +0.000 HD
ENDROOT
BRANCH   1   6
ATOM      5  C   UNL     1       1.805   9.733  18.058  0.00  0.00    +0.000 C 
ATOM      6  C   UNL     1       1.252   9.529  19.477  0.00  0.00    +0.000 C 
BRANCH   6   7
ATOM      7  O   UNL     1      -0.179   9.625  19.518  0.00  0.00    +0.000 OA
BRANCH   7   8
ATOM      8  C   UNL     1      -0.706  10.627  20.293  0.00  0.00    +0.000 A 
ATOM      9  C   UNL     1      -1.482  11.672  19.815  0.00  0.00    +0.000 A 
ATOM     10  C   UNL     1      -2.049  12.607  20.688  0.00  0.00    +0.000 A 
ATOM     11  C   UNL     1      -1.852  12.543  22.070  0.00  0.00    +0.000 A 
ATOM     12  C   UNL     1      -1.035  11.499  22.545  0.00  0.00    +0.000 A 
ATOM     13  C   UNL     1      -0.483  10.544  21.668  0.00  0.00    +0.000 A 
BRANCH  11  14
ATOM     14  C   UNL     1      -2.520  13.545  23.030  0.00  0.00    +0.000 C 
ATOM     15  C   UNL     1      -3.382  14.607  22.302  0.00  0.00    +0.000 C 
ATOM     16  C   UNL     1      -3.454  12.792  23.999  0.00  0.00    +0.000 C 
ATOM     17  C   UNL     1      -1.453  14.307  23.839  0.00  0.00    +0.000 C 
ENDBRANCH  11  14
ENDBRANCH   7   8
ENDBRANCH   6   7
ENDBRANCH   1   6
BRANCH   3  18
ATOM     18  C   UNL     1       2.991   6.117  19.497  0.00  0.00    +0.000 C 
BRANCH  18  19
ATOM     19  C   UNL     1       2.934   4.937  18.486  0.00  0.00    +0.000 C 
BRANCH  19  20
ATOM     20  C   UNL     1       3.946   5.122  17.385  0.00  0.00    +0.000 A 
ATOM     21  C   UNL     1       4.537   4.253  16.488  0.00  0.00    +0.000 A 
ATOM     22  C   UNL     1       5.422   5.026  15.700  0.00  0.00    +0.000 A 
ATOM     23  C   UNL     1       5.299   6.321  16.145  0.00  0.00    +0.000 A 
ATOM     24  O   UNL     1       4.410   6.389  17.165  0.00  0.00    +0.000 OA
ENDBRANCH  19  20
BRANCH  19  25
ATOM     25  N   UNL     1       2.980   3.625  19.186  0.00  0.00    +0.000 NA
ATOM     26  C   UNL     1       2.230   2.526  18.569  0.00  0.00    +0.000 C 
ATOM     27  C   UNL     1       0.853   2.556  19.208  0.00  0.00    +0.000 C 
ATOM     28  C   UNL     1       1.084   3.162  20.586  0.00  0.00    +0.000 C 
ATOM     29  C   UNL     1       2.529   3.650  20.580  0.00  0.00    +0.000 C 
ENDBRANCH  19  25
ENDBRANCH  18  19
ENDBRANCH   3  18
TORSDOF 8
ENDMDL
MODEL 6
REMARK VINA RESULT:      -7.5      1.311      3.079
REMARK  Name = 
REMARK  12 active torsions:
REMARK  status: ('A' for Active; 'I' for Inactive)
REMARK    1  A    between atoms: C_1  and  C_2
REMARK    2  A    between atoms: C_2  and  O_3
REMARK    3  A    between atoms: C_2  and  C_14
REMARK    4  A    between atoms: O_3  and  C_4
REMARK    5  A    between atoms: C_7  and  C_8
REMARK    6  A    between atoms: C_8  and  C_9
REMARK    7  A    between atoms: C_8  and  C_10
REMARK    8  A    between atoms: C_8  and  C_11
REMARK    9  A    between atoms: N_16  and  C_17
REMARK   10  A    between atoms: C_17  and  C_18
REMARK   11  A    between atoms: C_18  and  C_19
REMARK   12  A    between atoms: C_18  and  N_24
REMARK                            x       y       z     vdW  Elec       q    Type
REMARK                         _______ _______ _______ _____ _____    ______ ____
ROOT
ATOM      1  C   UNL     1       2.788   4.419  17.820  0.00  0.00    +0.000 C 
ATOM      2  O   UNL     1       2.223   3.575  17.123  0.00  0.00    +0.000 OA
ATOM      3  N   UNL     1       4.030   4.927  17.485  0.00  0.00    +0.000 N 
ATOM      4  H   UNL     1       4.560   5.309  18.263  0.00  0.00    +0.000 HD
ENDROOT
BRANCH   1   6
ATOM      5  C   UNL     1       2.038   3.918  20.131  0.00  0.00    +0.000 C 
ATOM      6  C   UNL     1       2.121   5.028  19.071  0.00  0.00    +0.000 C 
BRANCH   6   7
ATOM      7  O   UNL     1       2.850   6.170  19.542  0.00  0.00    +0.000 OA
BRANCH   7   8
ATOM      8  C   UNL     1       2.229   7.388  19.425  0.00  0.00    +0.000 A 
ATOM      9  C   UNL     1       2.169   8.138  18.260  0.00  0.00    +0.000 A 
ATOM     10  C   UNL     1       1.444   9.333  18.208  0.00  0.00    +0.000 A 
ATOM     11  C   UNL     1       0.762   9.833  19.320  0.00  0.00    +0.000 A 
ATOM     12  C   UNL     1       0.856   9.084  20.509  0.00  0.00    +0.000 A 
ATOM     13  C   UNL     1       1.567   7.869  20.555  0.00  0.00    +0.000 A 
BRANCH  11  14
ATOM     14  C   UNL     1      -0.076  11.122  19.243  0.00  0.00    +0.000 C 
ATOM     15  C   UNL     1       0.734  12.349  18.751  0.00  0.00    +0.000 C 
ATOM     16  C   UNL     1      -1.242  10.925  18.253  0.00  0.00    +0.000 C 
ATOM     17  C   UNL     1      -0.640  11.482  20.631  0.00  0.00    +0.000 C 
ENDBRANCH  11  14
ENDBRANCH   7   8
ENDBRANCH   6   7
ENDBRANCH   1   6
BRANCH   3  18
ATOM     18  C   UNL     1       4.747   4.288  16.384  0.00  0.00    +0.000 C 
BRANCH  18  19
ATOM     19  C   UNL     1       6.010   5.037  15.873  0.00  0.00    +0.000 C 
BRANCH  19  20
ATOM     20  C   UNL     1       6.761   5.667  17.017  0.00  0.00    +0.000 A 
ATOM     21  C   UNL     1       7.308   6.921  17.212  0.00  0.00    +0.000 A 
ATOM     22  C   UNL     1       7.899   6.909  18.497  0.00  0.00    +0.000 A 
ATOM     23  C   UNL     1       7.656   5.661  19.018  0.00  0.00    +0.000 A 
ATOM     24  O   UNL     1       6.969   4.902  18.130  0.00  0.00    +0.000 OA
ENDBRANCH  19  20
BRANCH  19  25
ATOM     25  N   UNL     1       6.820   4.174  14.971  0.00  0.00    +0.000 NA
ATOM     26  C   UNL     1       7.692   4.863  14.014  0.00  0.00    +0.000 C 
ATOM     27  C   UNL     1       6.873   5.019  12.746  0.00  0.00    +0.000 C 
ATOM     28  C   UNL     1       5.892   3.854  12.779  0.00  0.00    +0.000 C 
ATOM     29  C   UNL     1       6.049   3.227  14.161  0.00  0.00    +0.000 C 
ENDBRANCH  19  25
ENDBRANCH  18  19
ENDBRANCH   3  18
TORSDOF 8
ENDMDL
MODEL 7
REMARK VINA RESULT:      -7.5      2.940      6.077
REMARK  Name = 
REMARK  12 active torsions:
REMARK  status: ('A' for Active; 'I' for Inactive)
REMARK    1  A    between atoms: C_1  and  C_2
REMARK    2  A    between atoms: C_2  and  O_3
REMARK    3  A    between atoms: C_2  and  C_14
REMARK    4  A    between atoms: O_3  and  C_4
REMARK    5  A    between atoms: C_7  and  C_8
REMARK    6  A    between atoms: C_8  and  C_9
REMARK    7  A    between atoms: C_8  and  C_10
REMARK    8  A    between atoms: C_8  and  C_11
REMARK    9  A    between atoms: N_16  and  C_17
REMARK   10  A    between atoms: C_17  and  C_18
REMARK   11  A    between atoms: C_18  and  C_19
REMARK   12  A    between atoms: C_18  and  N_24
REMARK                            x       y       z     vdW  Elec       q    Type
REMARK                         _______ _______ _______ _____ _____    ______ ____
ROOT
ATOM      1  C   UNL     1       1.196   9.161  19.765  0.00  0.00    +0.000 C 
ATOM      2  O   UNL     1       0.971   9.309  20.967  0.00  0.00    +0.000 OA
ATOM      3  N   UNL     1       1.719   7.984  19.263  0.00  0.00    +0.000 N 
ATOM      4  H   UNL     1       2.200   8.075  18.373  0.00  0.00    +0.000 HD
ENDROOT
BRANCH   1   6
ATOM      5  C   UNL     1       2.154  10.711  18.082  0.00  0.00    +0.000 C 
ATOM      6  C   UNL     1       0.840  10.244  18.726  0.00  0.00    +0.000 C 
BRANCH   6   7
ATOM      7  O   UNL     1      -0.088   9.741  17.754  0.00  0.00    +0.000 OA
BRANCH   7   8
ATOM      8  C   UNL     1      -1.363  10.247  17.801  0.00  0.00    +0.000 A 
ATOM      9  C   UNL     1      -2.419   9.804  17.018  0.00  0.00    +0.000 A 
ATOM     10  C   UNL     1      -3.708  10.321  17.188  0.00  0.00    +0.000 A 
ATOM     11  C   UNL     1      -3.990  11.310  18.135  0.00  0.00    +0.000 A 
ATOM     12  C   UNL     1      -2.906  11.779  18.901  0.00  0.00    +0.000 A 
ATOM     13  C   UNL     1      -1.612  11.243  18.746  0.00  0.00    +0.000 A 
BRANCH  11  14
ATOM     14  C   UNL     1      -5.420  11.838  18.352  0.00  0.00    +0.000 C 
ATOM     15  C   UNL     1      -6.452  10.715  18.627  0.00  0.00    +0.000 C 
ATOM     16  C   UNL     1      -5.445  12.783  19.571  0.00  0.00    +0.000 C 
ATOM     17  C   UNL     1      -5.906  12.601  17.104  0.00  0.00    +0.000 C 
ENDBRANCH  11  14
ENDBRANCH   7   8
ENDBRANCH   6   7
ENDBRANCH   1   6
BRANCH   3  18
ATOM     18  C   UNL     1       2.186   6.987  20.223  0.00  0.00    +0.000 C 
BRANCH  18  19
ATOM     19  C   UNL     1       2.829   5.708  19.614  0.00  0.00    +0.000 C 
BRANCH  19  20
ATOM     20  C   UNL     1       2.375   4.475  20.351  0.00  0.00    +0.000 A 
ATOM     21  C   UNL     1       1.138   4.025  20.769  0.00  0.00    +0.000 A 
ATOM     22  C   UNL     1       1.356   2.791  21.425  0.00  0.00    +0.000 A 
ATOM     23  C   UNL     1       2.707   2.550  21.347  0.00  0.00    +0.000 A 
ATOM     24  O   UNL     1       3.332   3.564  20.701  0.00  0.00    +0.000 OA
ENDBRANCH  19  20
BRANCH  19  25
ATOM     25  N   UNL     1       2.660   5.671  18.136  0.00  0.00    +0.000 NA
ATOM     26  C   UNL     1       1.841   4.579  17.598  0.00  0.00    +0.000 C 
ATOM     27  C   UNL     1       2.810   3.454  17.281  0.00  0.00    +0.000 C 
ATOM     28  C   UNL     1       4.129   4.157  16.990  0.00  0.00    +0.000 C 
ATOM     29  C   UNL     1       3.908   5.617  17.370  0.00  0.00    +0.000 C 
ENDBRANCH  19  25
ENDBRANCH  18  19
ENDBRANCH   3  18
TORSDOF 8
ENDMDL
MODEL 8
REMARK VINA RESULT:      -7.5      3.025      5.370
REMARK  Name = 
REMARK  12 active torsions:
REMARK  status: ('A' for Active; 'I' for Inactive)
REMARK    1  A    between atoms: C_1  and  C_2
REMARK    2  A    between atoms: C_2  and  O_3
REMARK    3  A    between atoms: C_2  and  C_14
REMARK    4  A    between atoms: O_3  and  C_4
REMARK    5  A    between atoms: C_7  and  C_8
REMARK    6  A    between atoms: C_8  and  C_9
REMARK    7  A    between atoms: C_8  and  C_10
REMARK    8  A    between atoms: C_8  and  C_11
REMARK    9  A    between atoms: N_16  and  C_17
REMARK   10  A    between atoms: C_17  and  C_18
REMARK   11  A    between atoms: C_18  and  C_19
REMARK   12  A    between atoms: C_18  and  N_24
REMARK                            x       y       z     vdW  Elec       q    Type
REMARK                         _______ _______ _______ _____ _____    ______ ____
ROOT
ATOM      1  C   UNL     1       1.701   9.044  18.304  0.00  0.00    +0.000 C 
ATOM      2  O   UNL     1       2.153   9.667  17.343  0.00  0.00    +0.000 OA
ATOM      3  N   UNL     1       2.296   7.884  18.765  0.00  0.00    +0.000 N 
ATOM      4  H   UNL     1       1.681   7.266  19.286  0.00  0.00    +0.000 HD
ENDROOT
BRANCH   1   6
ATOM      5  C   UNL     1       0.905   9.592  20.589  0.00  0.00    +0.000 C 
ATOM      6  C   UNL     1       0.488   9.552  19.111  0.00  0.00    +0.000 C 
BRANCH   6   7
ATOM      7  O   UNL     1       0.053  10.835  18.638  0.00  0.00    +0.000 OA
BRANCH   7   8
ATOM      8  C   UNL     1      -1.294  11.087  18.694  0.00  0.00    +0.000 A 
ATOM      9  C   UNL     1      -1.890  12.022  19.528  0.00  0.00    +0.000 A 
ATOM     10  C   UNL     1      -3.265  12.274  19.463  0.00  0.00    +0.000 A 
ATOM     11  C   UNL     1      -4.100  11.593  18.573  0.00  0.00    +0.000 A 
ATOM     12  C   UNL     1      -3.494  10.620  17.754  0.00  0.00    +0.000 A 
ATOM     13  C   UNL     1      -2.106  10.383  17.804  0.00  0.00    +0.000 A 
BRANCH  11  14
ATOM     14  C   UNL     1      -5.603  11.910  18.471  0.00  0.00    +0.000 C 
ATOM     15  C   UNL     1      -6.091  12.913  19.548  0.00  0.00    +0.000 C 
ATOM     16  C   UNL     1      -5.908  12.540  17.097  0.00  0.00    +0.000 C 
ATOM     17  C   UNL     1      -6.437  10.625  18.640  0.00  0.00    +0.000 C 
ENDBRANCH  11  14
ENDBRANCH   7   8
ENDBRANCH   6   7
ENDBRANCH   1   6
BRANCH   3  18
ATOM     18  C   UNL     1       3.365   7.304  17.955  0.00  0.00    +0.000 C 
BRANCH  18  19
ATOM     19  C   UNL     1       3.985   5.985  18.496  0.00  0.00    +0.000 C 
BRANCH  19  20
ATOM     20  C   UNL     1       2.909   5.000  18.874  0.00  0.00    +0.000 A 
ATOM     21  C   UNL     1       2.401   4.576  20.087  0.00  0.00    +0.000 A 
ATOM     22  C   UNL     1       1.399   3.621  19.793  0.00  0.00    +0.000 A 
ATOM     23  C   UNL     1       1.340   3.538  18.422  0.00  0.00    +0.000 A 
ATOM     24  O   UNL     1       2.250   4.368  17.858  0.00  0.00    +0.000 OA
ENDBRANCH  19  20
BRANCH  19  25
ATOM     25  N   UNL     1       5.035   5.467  17.577  0.00  0.00    +0.000 NA
ATOM     26  C   UNL     1       6.058   4.601  18.174  0.00  0.00    +0.000 C 
ATOM     27  C   UNL     1       7.195   5.522  18.578  0.00  0.00    +0.000 C 
ATOM     28  C   UNL     1       7.099   6.695  17.611  0.00  0.00    +0.000 C 
ATOM     29  C   UNL     1       5.789   6.496  16.856  0.00  0.00    +0.000 C 
ENDBRANCH  19  25
ENDBRANCH  18  19
ENDBRANCH   3  18
TORSDOF 8
ENDMDL
MODEL 9
REMARK VINA RESULT:      -7.5      2.298      4.348
REMARK  Name = 
REMARK  12 active torsions:
REMARK  status: ('A' for Active; 'I' for Inactive)
REMARK    1  A    between atoms: C_1  and  C_2
REMARK    2  A    between atoms: C_2  and  O_3
REMARK    3  A    between atoms: C_2  and  C_14
REMARK    4  A    between atoms: O_3  and  C_4
REMARK    5  A    between atoms: C_7  and  C_8
REMARK    6  A    between atoms: C_8  and  C_9
REMARK    7  A    between atoms: C_8  and  C_10
REMARK    8  A    between atoms: C_8  and  C_11
REMARK    9  A    between atoms: N_16  and  C_17
REMARK   10  A    between atoms: C_17  and  C_18
REMARK   11  A    between atoms: C_18  and  C_19
REMARK   12  A    between atoms: C_18  and  N_24
REMARK                            x       y       z     vdW  Elec       q    Type
REMARK                         _______ _______ _______ _____ _____    ______ ____
ROOT
ATOM      1  C   UNL     1       2.156   6.834  20.287  0.00  0.00    +0.000 C 
ATOM      2  O   UNL     1       1.608   5.869  20.820  0.00  0.00    +0.000 OA
ATOM      3  N   UNL     1       3.274   6.687  19.487  0.00  0.00    +0.000 N 
ATOM      4  H   UNL     1       3.853   7.517  19.402  0.00  0.00    +0.000 HD
ENDROOT
BRANCH   1   6
ATOM      5  C   UNL     1       1.645   8.899  19.010  0.00  0.00    +0.000 C 
ATOM      6  C   UNL     1       1.593   8.266  20.409  0.00  0.00    +0.000 C 
BRANCH   6   7
ATOM      7  O   UNL     1       0.263   8.253  20.947  0.00  0.00    +0.000 OA
BRANCH   7   8
ATOM      8  C   UNL     1      -0.257   9.463  21.333  0.00  0.00    +0.000 A 
ATOM      9  C   UNL     1      -0.617  10.482  20.464  0.00  0.00    +0.000 A 
ATOM     10  C   UNL     1      -1.217  11.655  20.938  0.00  0.00    +0.000 A 
ATOM     11  C   UNL     1      -1.466  11.861  22.298  0.00  0.00    +0.000 A 
ATOM     12  C   UNL     1      -1.066  10.836  23.177  0.00  0.00    +0.000 A 
ATOM     13  C   UNL     1      -0.483   9.646  22.697  0.00  0.00    +0.000 A 
BRANCH  11  14
ATOM     14  C   UNL     1      -2.172  13.130  22.807  0.00  0.00    +0.000 C 
ATOM     15  C   UNL     1      -1.238  14.065  23.618  0.00  0.00    +0.000 C 
ATOM     16  C   UNL     1      -2.698  13.948  21.610  0.00  0.00    +0.000 C 
ATOM     17  C   UNL     1      -3.349  12.759  23.729  0.00  0.00    +0.000 C 
ENDBRANCH  11  14
ENDBRANCH   7   8
ENDBRANCH   6   7
ENDBRANCH   1   6
BRANCH   3  18
ATOM     18  C   UNL     1       3.910   5.372  19.449  0.00  0.00    +0.000 C 
BRANCH  18  19
ATOM     19  C   UNL     1       3.514   4.461  18.252  0.00  0.00    +0.000 C 
BRANCH  19  20
ATOM     20  C   UNL     1       4.401   4.722  17.062  0.00  0.00    +0.000 A 
ATOM     21  C   UNL     1       5.119   3.896  16.220  0.00  0.00    +0.000 A 
ATOM     22  C   UNL     1       5.769   4.737  15.286  0.00  0.00    +0.000 A 
ATOM     23  C   UNL     1       5.390   6.020  15.599  0.00  0.00    +0.000 A 
ATOM     24  O   UNL     1       4.563   6.022  16.672  0.00  0.00    +0.000 OA
ENDBRANCH  19  20
BRANCH  19  25
ATOM     25  N   UNL     1       3.404   3.038  18.672  0.00  0.00    +0.000 NA
ATOM     26  C   UNL     1       2.426   2.217  17.950  0.00  0.00    +0.000 C 
ATOM     27  C   UNL     1       1.139   2.309  18.748  0.00  0.00    +0.000 C 
ATOM     28  C   UNL     1       1.594   2.568  20.179  0.00  0.00    +0.000 C 
ATOM     29  C   UNL     1       3.094   2.831  20.088  0.00  0.00    +0.000 C 
ENDBRANCH  19  25
ENDBRANCH  18  19
ENDBRANCH   3  18
TORSDOF 8
ENDMDL
