MODEL 1
REMARK VINA RESULT:      -8.3      0.000      0.000
REMARK  Name = 
REMARK  7 active torsions:
REMARK  status: ('A' for Active; 'I' for Inactive)
REMARK    1  A    between atoms: C_1  and  C_2
REMARK    2  A    between atoms: C_5  and  C_6
REMARK    3  A    between atoms: C_6  and  C_7
REMARK    4  A    between atoms: N_9  and  C_10
REMARK    5  A    between atoms: C_10  and  C_11
REMARK    6  A    between atoms: C_14  and  C_15
REMARK    7  A    between atoms: C_17  and  C_18
REMARK                            x       y       z     vdW  Elec       q    Type
REMARK                         _______ _______ _______ _____ _____    ______ ____
ROOT
ATOM      1  C   UNL     1       7.415   5.758  17.730  0.00  0.00    +0.000 A 
ATOM      2  C   UNL     1       7.160   6.791  16.813  0.00  0.00    +0.000 A 
ATOM      3  C   UNL     1       7.587   8.104  17.080  0.00  0.00    +0.000 A 
ATOM      4  C   UNL     1       8.243   8.410  18.281  0.00  0.00    +0.000 A 
ATOM      5  C   UNL     1       8.500   7.377  19.184  0.00  0.00    +0.000 A 
ATOM      6  C   UNL     1       8.144   6.065  18.888  0.00  0.00    +0.000 A 
ENDROOT
BRANCH   4   7
ATOM      7  C   UNL     1       8.744   9.747  18.570  0.00  0.00    +0.000 A 
ATOM      8  N   UNL     1       8.679  10.823  17.826  0.00  0.00    +0.000 NA
ATOM      9  C   UNL     1       9.480  11.745  18.477  0.00  0.00    +0.000 A 
ATOM     10  C   UNL     1       9.993  11.170  19.616  0.00  0.00    +0.000 A 
ATOM     11  O   UNL     1       9.509   9.900  19.702  0.00  0.00    +0.000 OA
BRANCH   9  12
ATOM     12  C   UNL     1       9.810  13.064  17.955  0.00  0.00    +0.000 C 
ATOM     13  O   UNL     1      10.676  13.184  17.088  0.00  0.00    +0.000 OA
ATOM     14  N   UNL     1       9.097  14.157  18.451  0.00  0.00    +0.000 N 
ATOM     15  C   UNL     1       9.251  15.453  17.805  0.00  0.00    +0.000 C 
ATOM     16  C   UNL     1       9.784  16.488  18.791  0.00  0.00    +0.000 C 
ATOM     17  C   UNL     1       8.914  16.551  20.045  0.00  0.00    +0.000 C 
ATOM     18  C   UNL     1       8.753  15.170  20.668  0.00  0.00    +0.000 C 
ATOM     19  C   UNL     1       8.254  14.152  19.650  0.00  0.00    +0.000 C 
ENDBRANCH   9  12
ENDBRANCH   4   7
BRANCH   1  20
ATOM     20  C   UNL     1       6.864   4.365  17.550  0.00  0.00    +0.000 C 
BRANCH  20  23
ATOM     21  C   UNL     1       4.472   4.175  16.967  0.00  0.00    +0.000 C 
ATOM     22  O   UNL     1       4.698   4.273  15.757  0.00  0.00    +0.000 OA
ATOM     23  N   UNL     1       5.470   4.229  17.921  0.00  0.00    +0.000 N 
ATOM     24  H   UNL     1       5.258   3.871  18.842  0.00  0.00    +0.000 HD
BRANCH  21  25
ATOM     25  C   UNL     1       3.057   4.026  17.525  0.00  0.00    +0.000 C 
BRANCH  25  30
ATOM     26  C   UNL     1       1.292   8.217  21.220  0.00  0.00    +0.000 C 
ATOM     27  C   UNL     1       1.759   7.132  20.287  0.00  0.00    +0.000 A 
ATOM     28  C   UNL     1       1.601   5.778  20.607  0.00  0.00    +0.000 A 
ATOM     29  C   UNL     1       2.022   4.786  19.706  0.00  0.00    +0.000 A 
ATOM     30  C   UNL     1       2.587   5.122  18.463  0.00  0.00    +0.000 A 
ATOM     31  C   UNL     1       2.772   6.480  18.175  0.00  0.00    +0.000 A 
ATOM     32  C   UNL     1       2.365   7.469  19.077  0.00  0.00    +0.000 A 
ENDBRANCH  25  30
ENDBRANCH  21  25
ENDBRANCH  20  23
ENDBRANCH   1  20
TORSDOF 6
ENDMDL
MODEL 2
REMARK VINA RESULT:      -8.0      4.841      8.294
REMARK  Name = 
REMARK  7 active torsions:
REMARK  status: ('A' for Active; 'I' for Inactive)
REMARK    1  A    between atoms: C_1  and  C_2
REMARK    2  A    between atoms: C_5  and  C_6
REMARK    3  A    between atoms: C_6  and  C_7
REMARK    4  A    between atoms: N_9  and  C_10
REMARK    5  A    between atoms: C_10  and  C_11
REMARK    6  A    between atoms: C_14  and  C_15
REMARK    7  A    between atoms: C_17  and  C_18
REMARK                            x       y       z     vdW  Elec       q    Type
REMARK                         _______ _______ _______ _____ _____    ______ ____
ROOT
ATOM      1  C   UNL     1       2.000   6.287  19.936  0.00  0.00    +0.000 A 
ATOM      2  C   UNL     1       1.298   6.712  21.076  0.00  0.00    +0.000 A 
ATOM      3  C   UNL     1       0.941   8.064  21.232  0.00  0.00    +0.000 A 
ATOM      4  C   UNL     1       1.310   9.013  20.269  0.00  0.00    +0.000 A 
ATOM      5  C   UNL     1       2.000   8.582  19.135  0.00  0.00    +0.000 A 
ATOM      6  C   UNL     1       2.289   7.235  18.944  0.00  0.00    +0.000 A 
ENDROOT
BRANCH   4   7
ATOM      7  C   UNL     1       0.915  10.412  20.370  0.00  0.00    +0.000 A 
ATOM      8  N   UNL     1       0.907  11.185  21.429  0.00  0.00    +0.000 NA
ATOM      9  C   UNL     1       0.256  12.334  21.015  0.00  0.00    +0.000 A 
ATOM     10  C   UNL     1      -0.096  12.199  19.692  0.00  0.00    +0.000 A 
ATOM     11  O   UNL     1       0.344  10.985  19.260  0.00  0.00    +0.000 OA
BRANCH   9  12
ATOM     12  C   UNL     1      -0.098  13.441  21.892  0.00  0.00    +0.000 C 
ATOM     13  O   UNL     1       0.768  14.233  22.264  0.00  0.00    +0.000 OA
ATOM     14  N   UNL     1      -1.439  13.578  22.258  0.00  0.00    +0.000 N 
ATOM     15  C   UNL     1      -1.862  14.784  22.954  0.00  0.00    +0.000 C 
ATOM     16  C   UNL     1      -2.448  14.443  24.320  0.00  0.00    +0.000 C 
ATOM     17  C   UNL     1      -3.565  13.408  24.195  0.00  0.00    +0.000 C 
ATOM     18  C   UNL     1      -3.089  12.179  23.432  0.00  0.00    +0.000 C 
ATOM     19  C   UNL     1      -2.477  12.556  22.090  0.00  0.00    +0.000 C 
ENDBRANCH   9  12
ENDBRANCH   4   7
BRANCH   1  20
ATOM     20  C   UNL     1       2.518   4.877  19.787  0.00  0.00    +0.000 C 
BRANCH  20  23
ATOM     21  C   UNL     1       3.981   4.117  17.948  0.00  0.00    +0.000 C 
ATOM     22  O   UNL     1       3.058   3.528  17.378  0.00  0.00    +0.000 OA
ATOM     23  N   UNL     1       3.813   4.790  19.144  0.00  0.00    +0.000 N 
ATOM     24  H   UNL     1       4.518   5.466  19.404  0.00  0.00    +0.000 HD
BRANCH  21  25
ATOM     25  C   UNL     1       5.408   4.124  17.403  0.00  0.00    +0.000 C 
BRANCH  25  30
ATOM     26  C   UNL     1       8.554   9.002  18.199  0.00  0.00    +0.000 C 
ATOM     27  C   UNL     1       7.765   7.738  17.989  0.00  0.00    +0.000 A 
ATOM     28  C   UNL     1       8.062   6.567  18.697  0.00  0.00    +0.000 A 
ATOM     29  C   UNL     1       7.293   5.409  18.500  0.00  0.00    +0.000 A 
ATOM     30  C   UNL     1       6.201   5.400  17.613  0.00  0.00    +0.000 A 
ATOM     31  C   UNL     1       5.942   6.568  16.886  0.00  0.00    +0.000 A 
ATOM     32  C   UNL     1       6.715   7.719  17.072  0.00  0.00    +0.000 A 
ENDBRANCH  25  30
ENDBRANCH  21  25
ENDBRANCH  20  23
ENDBRANCH   1  20
TORSDOF 6
ENDMDL
MODEL 3
REMARK VINA RESULT:      -8.0      5.101      8.495
REMARK  Name = 
REMARK  7 active torsions:
REMARK  status: ('A' for Active; 'I' for Inactive)
REMARK    1  A    between atoms: C_1  and  C_2
REMARK    2  A    between atoms: C_5  and  C_6
REMARK    3  A    between atoms: C_6  and  C_7
REMARK    4  A    between atoms: N_9  and  C_10
REMARK    5  A    between atoms: C_10  and  C_11
REMARK    6  A    between atoms: C_14  and  C_15
REMARK    7  A    between atoms: C_17  and  C_18
REMARK                            x       y       z     vdW  Elec       q    Type
REMARK                         _______ _______ _______ _____ _____    ______ ____
ROOT
ATOM      1  C   UNL     1       1.972   6.897  19.783  0.00  0.00    +0.000 A 
ATOM      2  C   UNL     1       2.093   7.821  18.733  0.00  0.00    +0.000 A 
ATOM      3  C   UNL     1       1.679   9.155  18.904  0.00  0.00    +0.000 A 
ATOM      4  C   UNL     1       1.105   9.572  20.113  0.00  0.00    +0.000 A 
ATOM      5  C   UNL     1       0.995   8.650  21.155  0.00  0.00    +0.000 A 
ATOM      6  C   UNL     1       1.473   7.352  21.013  0.00  0.00    +0.000 A 
ENDROOT
BRANCH   4   7
ATOM      7  C   UNL     1       0.710  10.956  20.345  0.00  0.00    +0.000 A 
ATOM      8  N   UNL     1       0.613  11.600  21.482  0.00  0.00    +0.000 NA
ATOM      9  C   UNL     1       0.008  12.799  21.151  0.00  0.00    +0.000 A 
ATOM     10  C   UNL     1      -0.227  12.826  19.797  0.00  0.00    +0.000 A 
ATOM     11  O   UNL     1       0.242  11.664  19.264  0.00  0.00    +0.000 OA
BRANCH   9  12
ATOM     12  C   UNL     1      -0.416  13.802  22.119  0.00  0.00    +0.000 C 
ATOM     13  O   UNL     1       0.395  14.621  22.553  0.00  0.00    +0.000 OA
ATOM     14  N   UNL     1      -1.760  13.812  22.499  0.00  0.00    +0.000 N 
ATOM     15  C   UNL     1      -2.261  14.923  23.295  0.00  0.00    +0.000 C 
ATOM     16  C   UNL     1      -2.809  14.428  24.629  0.00  0.00    +0.000 C 
ATOM     17  C   UNL     1      -3.851  13.330  24.422  0.00  0.00    +0.000 C 
ATOM     18  C   UNL     1      -3.296  12.206  23.558  0.00  0.00    +0.000 C 
ATOM     19  C   UNL     1      -2.724  12.736  22.250  0.00  0.00    +0.000 C 
ENDBRANCH   9  12
ENDBRANCH   4   7
BRANCH   1  20
ATOM     20  C   UNL     1       2.281   5.431  19.607  0.00  0.00    +0.000 C 
BRANCH  20  23
ATOM     21  C   UNL     1       3.786   4.356  17.970  0.00  0.00    +0.000 C 
ATOM     22  O   UNL     1       2.852   3.788  17.395  0.00  0.00    +0.000 OA
ATOM     23  N   UNL     1       3.602   5.165  19.075  0.00  0.00    +0.000 N 
ATOM     24  H   UNL     1       4.347   5.804  19.317  0.00  0.00    +0.000 HD
BRANCH  21  25
ATOM     25  C   UNL     1       5.241   4.183  17.536  0.00  0.00    +0.000 C 
BRANCH  25  30
ATOM     26  C   UNL     1       8.617   8.932  18.146  0.00  0.00    +0.000 C 
ATOM     27  C   UNL     1       7.731   7.725  17.996  0.00  0.00    +0.000 A 
ATOM     28  C   UNL     1       6.616   7.739  17.150  0.00  0.00    +0.000 A 
ATOM     29  C   UNL     1       5.822   6.589  17.009  0.00  0.00    +0.000 A 
ATOM     30  C   UNL     1       6.135   5.399  17.688  0.00  0.00    +0.000 A 
ATOM     31  C   UNL     1       7.232   5.413  18.560  0.00  0.00    +0.000 A 
ATOM     32  C   UNL     1       8.016   6.562  18.710  0.00  0.00    +0.000 A 
ENDBRANCH  25  30
ENDBRANCH  21  25
ENDBRANCH  20  23
ENDBRANCH   1  20
TORSDOF 6
ENDMDL
MODEL 4
REMARK VINA RESULT:      -8.0      5.914      8.964
REMARK  Name = 
REMARK  7 active torsions:
REMARK  status: ('A' for Active; 'I' for Inactive)
REMARK    1  A    between atoms: C_1  and  C_2
REMARK    2  A    between atoms: C_5  and  C_6
REMARK    3  A    between atoms: C_6  and  C_7
REMARK    4  A    between atoms: N_9  and  C_10
REMARK    5  A    between atoms: C_10  and  C_11
REMARK    6  A    between atoms: C_14  and  C_15
REMARK    7  A    between atoms: C_17  and  C_18
REMARK                            x       y       z     vdW  Elec       q    Type
REMARK                         _______ _______ _______ _____ _____    ______ ____
ROOT
ATOM      1  C   UNL     1       2.265   8.442  18.431  0.00  0.00    +0.000 A 
ATOM      2  C   UNL     1       1.974   7.839  19.666  0.00  0.00    +0.000 A 
ATOM      3  C   UNL     1       1.191   8.512  20.622  0.00  0.00    +0.000 A 
ATOM      4  C   UNL     1       0.719   9.808  20.371  0.00  0.00    +0.000 A 
ATOM      5  C   UNL     1       1.006  10.397  19.139  0.00  0.00    +0.000 A 
ATOM      6  C   UNL     1       1.717   9.705  18.164  0.00  0.00    +0.000 A 
ENDROOT
BRANCH   4   7
ATOM      7  C   UNL     1      -0.136  10.516  21.314  0.00  0.00    +0.000 A 
ATOM      8  N   UNL     1      -0.436  11.791  21.350  0.00  0.00    +0.000 NA
ATOM      9  C   UNL     1      -1.103  11.958  22.551  0.00  0.00    +0.000 A 
ATOM     10  C   UNL     1      -1.185  10.745  23.192  0.00  0.00    +0.000 A 
ATOM     11  O   UNL     1      -0.594   9.808  22.400  0.00  0.00    +0.000 OA
BRANCH   9  12
ATOM     12  C   UNL     1      -1.530  13.244  23.084  0.00  0.00    +0.000 C 
ATOM     13  O   UNL     1      -0.782  13.880  23.828  0.00  0.00    +0.000 OA
ATOM     14  N   UNL     1      -2.782  13.726  22.700  0.00  0.00    +0.000 N 
ATOM     15  C   UNL     1      -3.150  15.092  23.041  0.00  0.00    +0.000 C 
ATOM     16  C   UNL     1      -4.400  15.114  23.915  0.00  0.00    +0.000 C 
ATOM     17  C   UNL     1      -5.542  14.339  23.260  0.00  0.00    +0.000 C 
ATOM     18  C   UNL     1      -5.104  12.928  22.889  0.00  0.00    +0.000 C 
ATOM     19  C   UNL     1      -3.834  12.939  22.048  0.00  0.00    +0.000 C 
ENDBRANCH   9  12
ENDBRANCH   4   7
BRANCH   1  20
ATOM     20  C   UNL     1       3.206   7.817  17.431  0.00  0.00    +0.000 C 
BRANCH  20  23
ATOM     21  C   UNL     1       4.360   5.704  16.883  0.00  0.00    +0.000 C 
ATOM     22  O   UNL     1       4.965   6.211  15.934  0.00  0.00    +0.000 OA
ATOM     23  N   UNL     1       3.463   6.410  17.661  0.00  0.00    +0.000 N 
ATOM     24  H   UNL     1       3.223   6.027  18.565  0.00  0.00    +0.000 HD
BRANCH  21  25
ATOM     25  C   UNL     1       4.518   4.231  17.261  0.00  0.00    +0.000 C 
BRANCH  25  30
ATOM     26  C   UNL     1       1.303   2.392  21.800  0.00  0.00    +0.000 C 
ATOM     27  C   UNL     1       2.141   2.878  20.649  0.00  0.00    +0.000 A 
ATOM     28  C   UNL     1       3.533   2.733  20.648  0.00  0.00    +0.000 A 
ATOM     29  C   UNL     1       4.288   3.172  19.548  0.00  0.00    +0.000 A 
ATOM     30  C   UNL     1       3.671   3.742  18.420  0.00  0.00    +0.000 A 
ATOM     31  C   UNL     1       2.281   3.914  18.453  0.00  0.00    +0.000 A 
ATOM     32  C   UNL     1       1.529   3.488  19.554  0.00  0.00    +0.000 A 
ENDBRANCH  25  30
ENDBRANCH  21  25
ENDBRANCH  20  23
ENDBRANCH   1  20
TORSDOF 6
ENDMDL
MODEL 5
REMARK VINA RESULT:      -7.9      4.653      6.904
REMARK  Name = 
REMARK  7 active torsions:
REMARK  status: ('A' for Active; 'I' for Inactive)
REMARK    1  A    between atoms: C_1  and  C_2
REMARK    2  A    between atoms: C_5  and  C_6
REMARK    3  A    between atoms: C_6  and  C_7
REMARK    4  A    between atoms: N_9  and  C_10
REMARK    5  A    between atoms: C_10  and  C_11
REMARK    6  A    between atoms: C_14  and  C_15
REMARK    7  A    between atoms: C_17  and  C_18
REMARK                            x       y       z     vdW  Elec       q    Type
REMARK                         _______ _______ _______ _____ _____    ______ ____
ROOT
ATOM      1  C   UNL     1       1.725   7.176  20.345  0.00  0.00    +0.000 A 
ATOM      2  C   UNL     1       2.009   7.873  19.159  0.00  0.00    +0.000 A 
ATOM      3  C   UNL     1       1.576   9.201  18.991  0.00  0.00    +0.000 A 
ATOM      4  C   UNL     1       0.824   9.837  19.989  0.00  0.00    +0.000 A 
ATOM      5  C   UNL     1       0.553   9.141  21.167  0.00  0.00    +0.000 A 
ATOM      6  C   UNL     1       1.044   7.854  21.366  0.00  0.00    +0.000 A 
ENDROOT
BRANCH   4   7
ATOM      7  C   UNL     1       0.402  11.226  19.872  0.00  0.00    +0.000 A 
ATOM      8  N   UNL     1       0.815  12.138  19.026  0.00  0.00    +0.000 NA
ATOM      9  C   UNL     1       0.250  13.317  19.482  0.00  0.00    +0.000 A 
ATOM     10  C   UNL     1      -0.504  13.050  20.601  0.00  0.00    +0.000 A 
ATOM     11  O   UNL     1      -0.436  11.712  20.846  0.00  0.00    +0.000 OA
BRANCH   9  12
ATOM     12  C   UNL     1       0.525  14.633  18.923  0.00  0.00    +0.000 C 
ATOM     13  O   UNL     1      -0.382  15.284  18.405  0.00  0.00    +0.000 OA
ATOM     14  N   UNL     1       1.828  15.124  19.025  0.00  0.00    +0.000 N 
ATOM     15  C   UNL     1       2.092  16.511  18.671  0.00  0.00    +0.000 C 
ATOM     16  C   UNL     1       3.100  16.595  17.531  0.00  0.00    +0.000 C 
ATOM     17  C   UNL     1       4.373  15.818  17.864  0.00  0.00    +0.000 C 
ATOM     18  C   UNL     1       4.048  14.384  18.261  0.00  0.00    +0.000 C 
ATOM     19  C   UNL     1       3.012  14.332  19.376  0.00  0.00    +0.000 C 
ENDBRANCH   9  12
ENDBRANCH   4   7
BRANCH   1  20
ATOM     20  C   UNL     1       2.053   5.713  20.519  0.00  0.00    +0.000 C 
BRANCH  20  23
ATOM     21  C   UNL     1       3.499   4.147  19.272  0.00  0.00    +0.000 C 
ATOM     22  O   UNL     1       2.579   3.342  19.099  0.00  0.00    +0.000 OA
ATOM     23  N   UNL     1       3.338   5.328  19.973  0.00  0.00    +0.000 N 
ATOM     24  H   UNL     1       4.032   6.051  19.840  0.00  0.00    +0.000 HD
BRANCH  21  25
ATOM     25  C   UNL     1       4.916   3.893  18.759  0.00  0.00    +0.000 C 
BRANCH  25  30
ATOM     26  C   UNL     1       8.216   8.587  17.573  0.00  0.00    +0.000 C 
ATOM     27  C   UNL     1       7.386   7.367  17.871  0.00  0.00    +0.000 A 
ATOM     28  C   UNL     1       7.798   6.419  18.815  0.00  0.00    +0.000 A 
ATOM     29  C   UNL     1       6.991   5.304  19.094  0.00  0.00    +0.000 A 
ATOM     30  C   UNL     1       5.751   5.124  18.456  0.00  0.00    +0.000 A 
ATOM     31  C   UNL     1       5.372   6.062  17.488  0.00  0.00    +0.000 A 
ATOM     32  C   UNL     1       6.181   7.166  17.201  0.00  0.00    +0.000 A 
ENDBRANCH  25  30
ENDBRANCH  21  25
ENDBRANCH  20  23
ENDBRANCH   1  20
TORSDOF 6
ENDMDL
MODEL 6
REMARK VINA RESULT:      -7.9      1.399      1.688
REMARK  Name = 
REMARK  7 active torsions:
REMARK  status: ('A' for Active; 'I' for Inactive)
REMARK    1  A    between atoms: C_1  and  C_2
REMARK    2  A    between atoms: C_5  and  C_6
REMARK    3  A    between atoms: C_6  and  C_7
REMARK    4  A    between atoms: N_9  and  C_10
REMARK    5  A    between atoms: C_10  and  C_11
REMARK    6  A    between atoms: C_14  and  C_15
REMARK    7  A    between atoms: C_17  and  C_18
REMARK                            x       y       z     vdW  Elec       q    Type
REMARK                         _______ _______ _______ _____ _____    ______ ____
ROOT
ATOM      1  C   UNL     1       7.181   6.217  17.767  0.00  0.00    +0.000 A 
ATOM      2  C   UNL     1       6.920   7.348  16.977  0.00  0.00    +0.000 A 
ATOM      3  C   UNL     1       7.530   8.582  17.272  0.00  0.00    +0.000 A 
ATOM      4  C   UNL     1       8.378   8.709  18.381  0.00  0.00    +0.000 A 
ATOM      5  C   UNL     1       8.638   7.579  19.157  0.00  0.00    +0.000 A 
ATOM      6  C   UNL     1       8.096   6.343  18.823  0.00  0.00    +0.000 A 
ENDROOT
BRANCH   4   7
ATOM      7  C   UNL     1       9.066   9.956  18.688  0.00  0.00    +0.000 A 
ATOM      8  N   UNL     1       9.563  10.842  17.860  0.00  0.00    +0.000 NA
ATOM      9  C   UNL     1      10.275  11.711  18.668  0.00  0.00    +0.000 A 
ATOM     10  C   UNL     1      10.162  11.304  19.976  0.00  0.00    +0.000 A 
ATOM     11  O   UNL     1       9.369  10.198  20.007  0.00  0.00    +0.000 OA
BRANCH   9  12
ATOM     12  C   UNL     1      11.106  12.801  18.175  0.00  0.00    +0.000 C 
ATOM     13  O   UNL     1      12.328  12.661  18.105  0.00  0.00    +0.000 OA
ATOM     14  N   UNL     1      10.467  13.973  17.766  0.00  0.00    +0.000 N 
ATOM     15  C   UNL     1      11.239  14.996  17.075  0.00  0.00    +0.000 C 
ATOM     16  C   UNL     1      11.213  16.309  17.850  0.00  0.00    +0.000 C 
ATOM     17  C   UNL     1       9.778  16.746  18.142  0.00  0.00    +0.000 C 
ATOM     18  C   UNL     1       8.998  15.636  18.834  0.00  0.00    +0.000 C 
ATOM     19  C   UNL     1       9.074  14.329  18.054  0.00  0.00    +0.000 C 
ENDBRANCH   9  12
ENDBRANCH   4   7
BRANCH   1  20
ATOM     20  C   UNL     1       6.454   4.910  17.570  0.00  0.00    +0.000 C 
BRANCH  20  23
ATOM     21  C   UNL     1       4.369   5.174  18.868  0.00  0.00    +0.000 C 
ATOM     22  O   UNL     1       4.972   5.194  19.945  0.00  0.00    +0.000 OA
ATOM     23  N   UNL     1       5.011   5.019  17.654  0.00  0.00    +0.000 N 
ATOM     24  H   UNL     1       4.508   5.287  16.819  0.00  0.00    +0.000 HD
BRANCH  21  25
ATOM     25  C   UNL     1       2.847   5.278  18.780  0.00  0.00    +0.000 C 
BRANCH  25  30
ATOM     26  C   UNL     1       0.593  10.534  20.054  0.00  0.00    +0.000 C 
ATOM     27  C   UNL     1       1.187   9.187  19.744  0.00  0.00    +0.000 A 
ATOM     28  C   UNL     1       1.218   8.166  20.702  0.00  0.00    +0.000 A 
ATOM     29  C   UNL     1       1.754   6.909  20.377  0.00  0.00    +0.000 A 
ATOM     30  C   UNL     1       2.248   6.637  19.089  0.00  0.00    +0.000 A 
ATOM     31  C   UNL     1       2.245   7.681  18.155  0.00  0.00    +0.000 A 
ATOM     32  C   UNL     1       1.722   8.937  18.481  0.00  0.00    +0.000 A 
ENDBRANCH  25  30
ENDBRANCH  21  25
ENDBRANCH  20  23
ENDBRANCH   1  20
TORSDOF 6
ENDMDL
MODEL 7
REMARK VINA RESULT:      -7.8      6.216     11.028
REMARK  Name = 
REMARK  7 active torsions:
REMARK  status: ('A' for Active; 'I' for Inactive)
REMARK    1  A    between atoms: C_1  and  C_2
REMARK    2  A    between atoms: C_5  and  C_6
REMARK    3  A    between atoms: C_6  and  C_7
REMARK    4  A    between atoms: N_9  and  C_10
REMARK    5  A    between atoms: C_10  and  C_11
REMARK    6  A    between atoms: C_14  and  C_15
REMARK    7  A    between atoms: C_17  and  C_18
REMARK                            x       y       z     vdW  Elec       q    Type
REMARK                         _______ _______ _______ _____ _____    ______ ____
ROOT
ATOM      1  C   UNL     1      -0.820  10.919  22.317  0.00  0.00    +0.000 A 
ATOM      2  C   UNL     1      -0.616  11.338  20.992  0.00  0.00    +0.000 A 
ATOM      3  C   UNL     1       0.142  10.552  20.103  0.00  0.00    +0.000 A 
ATOM      4  C   UNL     1       0.734   9.358  20.537  0.00  0.00    +0.000 A 
ATOM      5  C   UNL     1       0.520   8.945  21.852  0.00  0.00    +0.000 A 
ATOM      6  C   UNL     1      -0.289   9.682  22.710  0.00  0.00    +0.000 A 
ENDROOT
BRANCH   4   7
ATOM      7  C   UNL     1       1.482   8.494  19.633  0.00  0.00    +0.000 A 
ATOM      8  N   UNL     1       2.072   7.352  19.894  0.00  0.00    +0.000 NA
ATOM      9  C   UNL     1       2.798   7.067  18.750  0.00  0.00    +0.000 A 
ATOM     10  C   UNL     1       2.598   8.069  17.830  0.00  0.00    +0.000 A 
ATOM     11  O   UNL     1       1.738   8.975  18.372  0.00  0.00    +0.000 OA
BRANCH   9  12
ATOM     12  C   UNL     1       3.717   5.946  18.616  0.00  0.00    +0.000 C 
ATOM     13  O   UNL     1       4.881   6.142  18.267  0.00  0.00    +0.000 OA
ATOM     14  N   UNL     1       3.236   4.671  18.922  0.00  0.00    +0.000 N 
ATOM     15  C   UNL     1       4.175   3.562  19.003  0.00  0.00    +0.000 C 
ATOM     16  C   UNL     1       3.822   2.479  17.988  0.00  0.00    +0.000 C 
ATOM     17  C   UNL     1       2.368   2.036  18.141  0.00  0.00    +0.000 C 
ATOM     18  C   UNL     1       1.424   3.230  18.084  0.00  0.00    +0.000 C 
ATOM     19  C   UNL     1       1.825   4.308  19.083  0.00  0.00    +0.000 C 
ENDBRANCH   9  12
ENDBRANCH   4   7
BRANCH   1  20
ATOM     20  C   UNL     1      -1.511  11.786  23.339  0.00  0.00    +0.000 C 
BRANCH  20  23
ATOM     21  C   UNL     1      -3.065  13.702  23.225  0.00  0.00    +0.000 C 
ATOM     22  O   UNL     1      -2.386  14.376  24.005  0.00  0.00    +0.000 OA
ATOM     23  N   UNL     1      -2.724  12.415  22.856  0.00  0.00    +0.000 N 
ATOM     24  H   UNL     1      -3.155  12.036  22.024  0.00  0.00    +0.000 HD
BRANCH  21  25
ATOM     25  C   UNL     1      -4.373  14.217  22.624  0.00  0.00    +0.000 C 
BRANCH  25  30
ATOM     26  C   UNL     1      -6.779  10.778  18.536  0.00  0.00    +0.000 C 
ATOM     27  C   UNL     1      -6.141  11.649  19.585  0.00  0.00    +0.000 A 
ATOM     28  C   UNL     1      -4.960  12.356  19.326  0.00  0.00    +0.000 A 
ATOM     29  C   UNL     1      -4.402  13.182  20.315  0.00  0.00    +0.000 A 
ATOM     30  C   UNL     1      -5.018  13.339  21.569  0.00  0.00    +0.000 A 
ATOM     31  C   UNL     1      -6.178  12.596  21.824  0.00  0.00    +0.000 A 
ATOM     32  C   UNL     1      -6.728  11.763  20.844  0.00  0.00    +0.000 A 
ENDBRANCH  25  30
ENDBRANCH  21  25
ENDBRANCH  20  23
ENDBRANCH   1  20
TORSDOF 6
ENDMDL
MODEL 8
REMARK VINA RESULT:      -7.8      5.961      9.135
REMARK  Name = 
REMARK  7 active torsions:
REMARK  status: ('A' for Active; 'I' for Inactive)
REMARK    1  A    between atoms: C_1  and  C_2
REMARK    2  A    between atoms: C_5  and  C_6
REMARK    3  A    between atoms: C_6  and  C_7
REMARK    4  A    between atoms: N_9  and  C_10
REMARK    5  A    between atoms: C_10  and  C_11
REMARK    6  A    between atoms: C_14  and  C_15
REMARK    7  A    between atoms: C_17  and  C_18
REMARK                            x       y       z     vdW  Elec       q    Type
REMARK                         _______ _______ _______ _____ _____    ______ ____
ROOT
ATOM      1  C   UNL     1       2.450   8.305  18.268  0.00  0.00    +0.000 A 
ATOM      2  C   UNL     1       2.115   7.808  19.538  0.00  0.00    +0.000 A 
ATOM      3  C   UNL     1       1.374   8.593  20.440  0.00  0.00    +0.000 A 
ATOM      4  C   UNL     1       0.990   9.898  20.099  0.00  0.00    +0.000 A 
ATOM      5  C   UNL     1       1.320  10.382  18.833  0.00  0.00    +0.000 A 
ATOM      6  C   UNL     1       1.987   9.581  17.912  0.00  0.00    +0.000 A 
ENDROOT
BRANCH   4   7
ATOM      7  C   UNL     1       0.181  10.722  20.987  0.00  0.00    +0.000 A 
ATOM      8  N   UNL     1      -1.072  10.561  21.337  0.00  0.00    +0.000 NA
ATOM      9  C   UNL     1      -1.395  11.722  22.017  0.00  0.00    +0.000 A 
ATOM     10  C   UNL     1      -0.292  12.543  22.054  0.00  0.00    +0.000 A 
ATOM     11  O   UNL     1       0.731  11.904  21.422  0.00  0.00    +0.000 OA
BRANCH   9  12
ATOM     12  C   UNL     1      -2.730  12.052  22.496  0.00  0.00    +0.000 C 
ATOM     13  O   UNL     1      -3.052  11.782  23.654  0.00  0.00    +0.000 OA
ATOM     14  N   UNL     1      -3.596  12.700  21.614  0.00  0.00    +0.000 N 
ATOM     15  C   UNL     1      -4.854  13.231  22.120  0.00  0.00    +0.000 C 
ATOM     16  C   UNL     1      -6.038  12.588  21.407  0.00  0.00    +0.000 C 
ATOM     17  C   UNL     1      -5.906  12.723  19.891  0.00  0.00    +0.000 C 
ATOM     18  C   UNL     1      -4.564  12.187  19.409  0.00  0.00    +0.000 C 
ATOM     19  C   UNL     1      -3.404  12.821  20.166  0.00  0.00    +0.000 C 
ENDBRANCH   9  12
ENDBRANCH   4   7
BRANCH   1  20
ATOM     20  C   UNL     1       3.351   7.554  17.319  0.00  0.00    +0.000 C 
BRANCH  20  23
ATOM     21  C   UNL     1       4.264   5.306  16.857  0.00  0.00    +0.000 C 
ATOM     22  O   UNL     1       5.010   5.728  15.968  0.00  0.00    +0.000 OA
ATOM     23  N   UNL     1       3.401   6.126  17.560  0.00  0.00    +0.000 N 
ATOM     24  H   UNL     1       3.036   5.780  18.437  0.00  0.00    +0.000 HD
BRANCH  21  25
ATOM     25  C   UNL     1       4.195   3.827  17.235  0.00  0.00    +0.000 C 
BRANCH  25  30
ATOM     26  C   UNL     1       1.153   2.470  22.055  0.00  0.00    +0.000 C 
ATOM     27  C   UNL     1       1.923   2.802  20.805  0.00  0.00    +0.000 A 
ATOM     28  C   UNL     1       1.270   3.173  19.623  0.00  0.00    +0.000 A 
ATOM     29  C   UNL     1       2.015   3.503  18.480  0.00  0.00    +0.000 A 
ATOM     30  C   UNL     1       3.421   3.493  18.496  0.00  0.00    +0.000 A 
ATOM     31  C   UNL     1       4.057   3.083  19.675  0.00  0.00    +0.000 A 
ATOM     32  C   UNL     1       3.316   2.742  20.811  0.00  0.00    +0.000 A 
ENDBRANCH  25  30
ENDBRANCH  21  25
ENDBRANCH  20  23
ENDBRANCH   1  20
TORSDOF 6
ENDMDL
MODEL 9
REMARK VINA RESULT:      -7.7      5.916      9.841
REMARK  Name = 
REMARK  7 active torsions:
REMARK  status: ('A' for Active; 'I' for Inactive)
REMARK    1  A    between atoms: C_1  and  C_2
REMARK    2  A    between atoms: C_5  and  C_6
REMARK    3  A    between atoms: C_6  and  C_7
REMARK    4  A    between atoms: N_9  and  C_10
REMARK    5  A    between atoms: C_10  and  C_11
REMARK    6  A    between atoms: C_14  and  C_15
REMARK    7  A    between atoms: C_17  and  C_18
REMARK                            x       y       z     vdW  Elec       q    Type
REMARK                         _______ _______ _______ _____ _____    ______ ____
ROOT
ATOM      1  C   UNL     1       0.346  10.682  21.360  0.00  0.00    +0.000 A 
ATOM      2  C   UNL     1       0.593   9.621  22.246  0.00  0.00    +0.000 A 
ATOM      3  C   UNL     1       1.167   8.423  21.783  0.00  0.00    +0.000 A 
ATOM      4  C   UNL     1       1.468   8.256  20.424  0.00  0.00    +0.000 A 
ATOM      5  C   UNL     1       1.226   9.317  19.551  0.00  0.00    +0.000 A 
ATOM      6  C   UNL     1       0.729  10.529  20.019  0.00  0.00    +0.000 A 
ENDROOT
BRANCH   4   7
ATOM      7  C   UNL     1       2.108   7.050  19.917  0.00  0.00    +0.000 A 
ATOM      8  N   UNL     1       2.586   6.820  18.718  0.00  0.00    +0.000 NA
ATOM      9  C   UNL     1       2.886   5.469  18.718  0.00  0.00    +0.000 A 
ATOM     10  C   UNL     1       2.578   4.939  19.949  0.00  0.00    +0.000 A 
ATOM     11  O   UNL     1       2.105   5.946  20.734  0.00  0.00    +0.000 OA
BRANCH   9  12
ATOM     12  C   UNL     1       3.337   4.725  17.549  0.00  0.00    +0.000 C 
ATOM     13  O   UNL     1       2.639   3.822  17.088  0.00  0.00    +0.000 OA
ATOM     14  N   UNL     1       4.554   5.094  16.973  0.00  0.00    +0.000 N 
ATOM     15  C   UNL     1       4.932   4.520  15.690  0.00  0.00    +0.000 C 
ATOM     16  C   UNL     1       6.241   3.747  15.808  0.00  0.00    +0.000 C 
ATOM     17  C   UNL     1       7.340   4.618  16.414  0.00  0.00    +0.000 C 
ATOM     18  C   UNL     1       6.890   5.225  17.736  0.00  0.00    +0.000 C 
ATOM     19  C   UNL     1       5.563   5.958  17.593  0.00  0.00    +0.000 C 
ENDBRANCH   9  12
ENDBRANCH   4   7
BRANCH   1  20
ATOM     20  C   UNL     1      -0.385  11.933  21.782  0.00  0.00    +0.000 C 
BRANCH  20  23
ATOM     21  C   UNL     1      -2.769  12.471  21.424  0.00  0.00    +0.000 C 
ATOM     22  O   UNL     1      -3.045  12.313  22.616  0.00  0.00    +0.000 OA
ATOM     23  N   UNL     1      -1.494  12.287  20.920  0.00  0.00    +0.000 N 
ATOM     24  H   UNL     1      -1.283  12.694  20.019  0.00  0.00    +0.000 HD
BRANCH  21  25
ATOM     25  C   UNL     1      -3.822  12.846  20.382  0.00  0.00    +0.000 C 
BRANCH  25  30
ATOM     26  C   UNL     1      -3.377  10.339  15.106  0.00  0.00    +0.000 C 
ATOM     27  C   UNL     1      -3.502  11.001  16.451  0.00  0.00    +0.000 A 
ATOM     28  C   UNL     1      -4.749  11.371  16.969  0.00  0.00    +0.000 A 
ATOM     29  C   UNL     1      -4.838  11.963  18.239  0.00  0.00    +0.000 A 
ATOM     30  C   UNL     1      -3.693  12.178  19.026  0.00  0.00    +0.000 A 
ATOM     31  C   UNL     1      -2.450  11.838  18.478  0.00  0.00    +0.000 A 
ATOM     32  C   UNL     1      -2.359  11.259  17.207  0.00  0.00    +0.000 A 
ENDBRANCH  25  30
ENDBRANCH  21  25
ENDBRANCH  20  23
ENDBRANCH   1  20
TORSDOF 6
ENDMDL
