MODEL 1
REMARK VINA RESULT:      -7.7      0.000      0.000
REMARK  Name = 
REMARK  5 active torsions:
REMARK  status: ('A' for Active; 'I' for Inactive)
REMARK    1  A    between atoms: O_1  and  C_2
REMARK    2  A    between atoms: C_2  and  C_3
REMARK    3  A    between atoms: C_6  and  N_7
REMARK    4  A    between atoms: N_12  and  C_13
REMARK    5  A    between atoms: C_24  and  O_25
REMARK                            x       y       z     vdW  Elec       q    Type
REMARK                         _______ _______ _______ _____ _____    ______ ____
ROOT
ATOM      1  N   UNL     1       2.192   6.898  19.582  0.00  0.00    +0.000 N 
ATOM      2  C   UNL     1       2.507   7.331  18.319  0.00  0.00    +0.000 A 
ATOM      3  N   UNL     1       2.162   8.592  18.127  0.00  0.00    +0.000 NA
ATOM      4  C   UNL     1       1.612   8.986  19.317  0.00  0.00    +0.000 A 
ATOM      5  C   UNL     1       1.046  10.215  19.726  0.00  0.00    +0.000 A 
ATOM      6  N   UNL     1       0.922  11.280  18.838  0.00  0.00    +0.000 N 
ATOM      7  N   UNL     1       0.608  10.304  21.007  0.00  0.00    +0.000 NA
ATOM      8  C   UNL     1       0.720   9.218  21.798  0.00  0.00    +0.000 A 
ATOM      9 CL   UNL     1       0.129   9.410  23.394  0.00  0.00    +0.000 Cl
ATOM     10  N   UNL     1       1.222   7.999  21.520  0.00  0.00    +0.000 NA
ATOM     11  C   UNL     1       1.649   7.958  20.250  0.00  0.00    +0.000 A 
ATOM     12  H   UNL     1       1.471  11.126  17.995  0.00  0.00    +0.000 HD
ENDROOT
BRANCH   1  16
ATOM     13  C   UNL     1       2.794   3.194  19.546  0.00  0.00    +0.000 C 
ATOM     14  C   UNL     1       4.217   3.749  19.604  0.00  0.00    +0.000 C 
ATOM     15  C   UNL     1       3.110   4.611  19.095  0.00  0.00    +0.000 C 
ATOM     16  C   UNL     1       2.418   5.555  20.059  0.00  0.00    +0.000 C 
ATOM     17  C   UNL     1       1.181   4.751  20.486  0.00  0.00    +0.000 C 
ATOM     18  C   UNL     1       1.756   3.333  20.655  0.00  0.00    +0.000 C 
BRANCH  18  19
ATOM     19  O   UNL     1       2.351   3.249  21.944  0.00  0.00    +0.000 OA
ATOM     20  H   UNL     1       2.042   4.006  22.469  0.00  0.00    +0.000 HD
ENDBRANCH  18  19
BRANCH  13  21
ATOM     21  C   UNL     1       2.610   2.018  18.628  0.00  0.00    +0.000 C 
BRANCH  21  22
ATOM     22  O   UNL     1       1.219   1.714  18.615  0.00  0.00    +0.000 OA
ATOM     23  H   UNL     1       0.751   2.491  18.266  0.00  0.00    +0.000 HD
ENDBRANCH  21  22
ENDBRANCH  13  21
ENDBRANCH   1  16
BRANCH   6  24
ATOM     24  C   UNL     1       0.866  12.633  19.358  0.00  0.00    +0.000 C 
ATOM     25  C   UNL     1       1.916  13.551  18.731  0.00  0.00    +0.000 C 
ATOM     26  C   UNL     1       1.300  14.934  18.851  0.00  0.00    +0.000 C 
ATOM     27  C   UNL     1      -0.168  14.708  18.530  0.00  0.00    +0.000 C 
ATOM     28  C   UNL     1      -0.479  13.286  18.995  0.00  0.00    +0.000 C 
ENDBRANCH   6  24
TORSDOF 5
ENDMDL
MODEL 2
REMARK VINA RESULT:      -7.2      0.997      1.056
REMARK  Name = 
REMARK  5 active torsions:
REMARK  status: ('A' for Active; 'I' for Inactive)
REMARK    1  A    between atoms: O_1  and  C_2
REMARK    2  A    between atoms: C_2  and  C_3
REMARK    3  A    between atoms: C_6  and  N_7
REMARK    4  A    between atoms: N_12  and  C_13
REMARK    5  A    between atoms: C_24  and  O_25
REMARK                            x       y       z     vdW  Elec       q    Type
REMARK                         _______ _______ _______ _____ _____    ______ ____
ROOT
ATOM      1  N   UNL     1       2.393   7.351  18.972  0.00  0.00    +0.000 N 
ATOM      2  C   UNL     1       2.612   7.922  17.744  0.00  0.00    +0.000 A 
ATOM      3  N   UNL     1       2.130   9.151  17.676  0.00  0.00    +0.000 NA
ATOM      4  C   UNL     1       1.588   9.379  18.913  0.00  0.00    +0.000 A 
ATOM      5  C   UNL     1       0.914  10.500  19.447  0.00  0.00    +0.000 A 
ATOM      6  N   UNL     1       0.644  11.618  18.663  0.00  0.00    +0.000 N 
ATOM      7  N   UNL     1       0.519  10.431  20.743  0.00  0.00    +0.000 NA
ATOM      8  C   UNL     1       0.774   9.299  21.430  0.00  0.00    +0.000 A 
ATOM      9 CL   UNL     1       0.229   9.288  23.053  0.00  0.00    +0.000 Cl
ATOM     10  N   UNL     1       1.390   8.169  21.028  0.00  0.00    +0.000 NA
ATOM     11  C   UNL     1       1.769   8.284  19.748  0.00  0.00    +0.000 A 
ATOM     12  H   UNL     1       1.173  11.598  17.793  0.00  0.00    +0.000 HD
ENDROOT
BRANCH   1  16
ATOM     13  C   UNL     1       3.753   3.869  18.633  0.00  0.00    +0.000 C 
ATOM     14  C   UNL     1       4.972   4.641  19.139  0.00  0.00    +0.000 C 
ATOM     15  C   UNL     1       3.862   5.376  18.465  0.00  0.00    +0.000 C 
ATOM     16  C   UNL     1       2.777   6.004  19.319  0.00  0.00    +0.000 C 
ATOM     17  C   UNL     1       1.671   4.937  19.295  0.00  0.00    +0.000 C 
ATOM     18  C   UNL     1       2.475   3.631  19.432  0.00  0.00    +0.000 C 
BRANCH  18  19
ATOM     19  O   UNL     1       2.749   3.426  20.812  0.00  0.00    +0.000 OA
ATOM     20  H   UNL     1       1.909   3.466  21.297  0.00  0.00    +0.000 HD
ENDBRANCH  18  19
BRANCH  13  21
ATOM     21  C   UNL     1       4.044   2.859  17.559  0.00  0.00    +0.000 C 
BRANCH  21  22
ATOM     22  O   UNL     1       3.883   1.571  18.144  0.00  0.00    +0.000 OA
ATOM     23  H   UNL     1       3.580   1.698  19.057  0.00  0.00    +0.000 HD
ENDBRANCH  21  22
ENDBRANCH  13  21
ENDBRANCH   1  16
BRANCH   6  24
ATOM     24  C   UNL     1       0.467  12.907  19.304  0.00  0.00    +0.000 C 
ATOM     25  C   UNL     1       1.729  13.770  19.254  0.00  0.00    +0.000 C 
ATOM     26  C   UNL     1       1.195  15.190  19.321  0.00  0.00    +0.000 C 
ATOM     27  C   UNL     1      -0.043  15.156  18.440  0.00  0.00    +0.000 C 
ATOM     28  C   UNL     1      -0.591  13.734  18.551  0.00  0.00    +0.000 C 
ENDBRANCH   6  24
TORSDOF 5
ENDMDL
MODEL 3
REMARK VINA RESULT:      -7.2      1.107      1.728
REMARK  Name = 
REMARK  5 active torsions:
REMARK  status: ('A' for Active; 'I' for Inactive)
REMARK    1  A    between atoms: O_1  and  C_2
REMARK    2  A    between atoms: C_2  and  C_3
REMARK    3  A    between atoms: C_6  and  N_7
REMARK    4  A    between atoms: N_12  and  C_13
REMARK    5  A    between atoms: C_24  and  O_25
REMARK                            x       y       z     vdW  Elec       q    Type
REMARK                         _______ _______ _______ _____ _____    ______ ____
ROOT
ATOM      1  N   UNL     1       2.338   7.216  18.592  0.00  0.00    +0.000 N 
ATOM      2  C   UNL     1       2.579   7.825  17.387  0.00  0.00    +0.000 A 
ATOM      3  N   UNL     1       2.200   9.092  17.388  0.00  0.00    +0.000 NA
ATOM      4  C   UNL     1       1.705   9.305  18.646  0.00  0.00    +0.000 A 
ATOM      5  C   UNL     1       1.139  10.451  19.249  0.00  0.00    +0.000 A 
ATOM      6  N   UNL     1       0.948  11.624  18.524  0.00  0.00    +0.000 N 
ATOM      7  N   UNL     1       0.767  10.352  20.549  0.00  0.00    +0.000 NA
ATOM      8  C   UNL     1       0.940   9.171  21.176  0.00  0.00    +0.000 A 
ATOM      9 CL   UNL     1       0.430   9.127  22.810  0.00  0.00    +0.000 Cl
ATOM     10  N   UNL     1       1.450   8.015  20.708  0.00  0.00    +0.000 NA
ATOM     11  C   UNL     1       1.810   8.159  19.425  0.00  0.00    +0.000 A 
ATOM     12  H   UNL     1       1.455  11.601  17.641  0.00  0.00    +0.000 HD
ENDROOT
BRANCH   1  16
ATOM     13  C   UNL     1       2.234   3.861  20.271  0.00  0.00    +0.000 C 
ATOM     14  C   UNL     1       1.147   3.720  19.206  0.00  0.00    +0.000 C 
ATOM     15  C   UNL     1       1.560   5.080  19.661  0.00  0.00    +0.000 C 
ATOM     16  C   UNL     1       2.614   5.826  18.866  0.00  0.00    +0.000 C 
ATOM     17  C   UNL     1       3.904   5.513  19.641  0.00  0.00    +0.000 C 
ATOM     18  C   UNL     1       3.724   4.023  19.983  0.00  0.00    +0.000 C 
BRANCH  18  19
ATOM     19  O   UNL     1       4.126   3.260  18.853  0.00  0.00    +0.000 OA
ATOM     20  H   UNL     1       4.947   3.644  18.505  0.00  0.00    +0.000 HD
ENDBRANCH  18  19
BRANCH  13  21
ATOM     21  C   UNL     1       1.893   3.266  21.608  0.00  0.00    +0.000 C 
BRANCH  21  22
ATOM     22  O   UNL     1       2.968   2.405  21.968  0.00  0.00    +0.000 OA
ATOM     23  H   UNL     1       3.606   2.929  22.480  0.00  0.00    +0.000 HD
ENDBRANCH  21  22
ENDBRANCH  13  21
ENDBRANCH   1  16
BRANCH   6  24
ATOM     24  C   UNL     1       0.893  12.891  19.228  0.00  0.00    +0.000 C 
ATOM     25  C   UNL     1       1.959  13.878  18.752  0.00  0.00    +0.000 C 
ATOM     26  C   UNL     1       1.352  15.236  19.056  0.00  0.00    +0.000 C 
ATOM     27  C   UNL     1      -0.113  15.071  18.685  0.00  0.00    +0.000 C 
ATOM     28  C   UNL     1      -0.441  13.601  18.940  0.00  0.00    +0.000 C 
ENDBRANCH   6  24
TORSDOF 5
ENDMDL
MODEL 4
REMARK VINA RESULT:      -7.2      1.067      1.150
REMARK  Name = 
REMARK  5 active torsions:
REMARK  status: ('A' for Active; 'I' for Inactive)
REMARK    1  A    between atoms: O_1  and  C_2
REMARK    2  A    between atoms: C_2  and  C_3
REMARK    3  A    between atoms: C_6  and  N_7
REMARK    4  A    between atoms: N_12  and  C_13
REMARK    5  A    between atoms: C_24  and  O_25
REMARK                            x       y       z     vdW  Elec       q    Type
REMARK                         _______ _______ _______ _____ _____    ______ ____
ROOT
ATOM      1  N   UNL     1       2.299   7.333  18.687  0.00  0.00    +0.000 N 
ATOM      2  C   UNL     1       2.541   7.937  17.479  0.00  0.00    +0.000 A 
ATOM      3  N   UNL     1       2.156   9.201  17.472  0.00  0.00    +0.000 NA
ATOM      4  C   UNL     1       1.655   9.419  18.728  0.00  0.00    +0.000 A 
ATOM      5  C   UNL     1       1.081  10.565  19.322  0.00  0.00    +0.000 A 
ATOM      6  N   UNL     1       0.887  11.733  18.590  0.00  0.00    +0.000 N 
ATOM      7  N   UNL     1       0.705  10.472  20.622  0.00  0.00    +0.000 NA
ATOM      8  C   UNL     1       0.882   9.295  21.256  0.00  0.00    +0.000 A 
ATOM      9 CL   UNL     1       0.366   9.258  22.888  0.00  0.00    +0.000 Cl
ATOM     10  N   UNL     1       1.400   8.139  20.796  0.00  0.00    +0.000 NA
ATOM     11  C   UNL     1       1.764   8.278  19.513  0.00  0.00    +0.000 A 
ATOM     12  H   UNL     1       1.397  11.708  17.709  0.00  0.00    +0.000 HD
ENDROOT
BRANCH   1  16
ATOM     13  C   UNL     1       1.917   3.601  18.782  0.00  0.00    +0.000 C 
ATOM     14  C   UNL     1       2.768   3.803  17.529  0.00  0.00    +0.000 C 
ATOM     15  C   UNL     1       1.938   4.931  18.046  0.00  0.00    +0.000 C 
ATOM     16  C   UNL     1       2.581   5.946  18.970  0.00  0.00    +0.000 C 
ATOM     17  C   UNL     1       2.192   5.428  20.363  0.00  0.00    +0.000 C 
ATOM     18  C   UNL     1       2.371   3.906  20.206  0.00  0.00    +0.000 C 
BRANCH  18  19
ATOM     19  O   UNL     1       3.748   3.604  20.394  0.00  0.00    +0.000 OA
ATOM     20  H   UNL     1       3.895   3.436  21.340  0.00  0.00    +0.000 HD
ENDBRANCH  18  19
BRANCH  13  21
ATOM     21  C   UNL     1       0.838   2.562  18.654  0.00  0.00    +0.000 C 
BRANCH  21  22
ATOM     22  O   UNL     1       0.011   2.677  19.807  0.00  0.00    +0.000 OA
ATOM     23  H   UNL     1      -0.913   2.651  19.510  0.00  0.00    +0.000 HD
ENDBRANCH  21  22
ENDBRANCH  13  21
ENDBRANCH   1  16
BRANCH   6  24
ATOM     24  C   UNL     1       0.824  13.004  19.287  0.00  0.00    +0.000 C 
ATOM     25  C   UNL     1       1.909  13.981  18.834  0.00  0.00    +0.000 C 
ATOM     26  C   UNL     1       1.304  15.345  19.116  0.00  0.00    +0.000 C 
ATOM     27  C   UNL     1      -0.152  15.189  18.708  0.00  0.00    +0.000 C 
ATOM     28  C   UNL     1      -0.498  13.722  18.962  0.00  0.00    +0.000 C 
ENDBRANCH   6  24
TORSDOF 5
ENDMDL
MODEL 5
REMARK VINA RESULT:      -7.0      3.845      7.584
REMARK  Name = 
REMARK  5 active torsions:
REMARK  status: ('A' for Active; 'I' for Inactive)
REMARK    1  A    between atoms: O_1  and  C_2
REMARK    2  A    between atoms: C_2  and  C_3
REMARK    3  A    between atoms: C_6  and  N_7
REMARK    4  A    between atoms: N_12  and  C_13
REMARK    5  A    between atoms: C_24  and  O_25
REMARK                            x       y       z     vdW  Elec       q    Type
REMARK                         _______ _______ _______ _____ _____    ______ ____
ROOT
ATOM      1  N   UNL     1       1.855   8.251  19.147  0.00  0.00    +0.000 N 
ATOM      2  C   UNL     1       2.287   9.030  18.104  0.00  0.00    +0.000 A 
ATOM      3  N   UNL     1       3.215   8.424  17.385  0.00  0.00    +0.000 NA
ATOM      4  C   UNL     1       3.379   7.205  17.986  0.00  0.00    +0.000 A 
ATOM      5  C   UNL     1       4.238   6.123  17.690  0.00  0.00    +0.000 A 
ATOM      6  N   UNL     1       5.168   6.204  16.657  0.00  0.00    +0.000 N 
ATOM      7  N   UNL     1       4.136   5.016  18.467  0.00  0.00    +0.000 NA
ATOM      8  C   UNL     1       3.244   5.024  19.478  0.00  0.00    +0.000 A 
ATOM      9 CL   UNL     1       3.191   3.594  20.420  0.00  0.00    +0.000 Cl
ATOM     10  N   UNL     1       2.390   5.992  19.865  0.00  0.00    +0.000 NA
ATOM     11  C   UNL     1       2.519   7.061  19.067  0.00  0.00    +0.000 A 
ATOM     12  H   UNL     1       4.982   7.002  16.053  0.00  0.00    +0.000 HD
ENDROOT
BRANCH   1  16
ATOM     13  C   UNL     1      -0.269  10.495  21.278  0.00  0.00    +0.000 C 
ATOM     14  C   UNL     1      -1.169  10.260  20.065  0.00  0.00    +0.000 C 
ATOM     15  C   UNL     1       0.305  10.063  19.938  0.00  0.00    +0.000 C 
ATOM     16  C   UNL     1       0.875   8.670  20.120  0.00  0.00    +0.000 C 
ATOM     17  C   UNL     1       1.314   8.676  21.592  0.00  0.00    +0.000 C 
ATOM     18  C   UNL     1       0.152   9.421  22.276  0.00  0.00    +0.000 C 
BRANCH  18  19
ATOM     19  O   UNL     1      -0.893   8.485  22.511  0.00  0.00    +0.000 OA
ATOM     20  H   UNL     1      -0.572   7.604  22.257  0.00  0.00    +0.000 HD
ENDBRANCH  18  19
BRANCH  13  21
ATOM     21  C   UNL     1      -0.269  11.903  21.802  0.00  0.00    +0.000 C 
BRANCH  21  22
ATOM     22  O   UNL     1      -0.635  11.836  23.177  0.00  0.00    +0.000 OA
ATOM     23  H   UNL     1      -1.542  12.174  23.257  0.00  0.00    +0.000 HD
ENDBRANCH  21  22
ENDBRANCH  13  21
ENDBRANCH   1  16
BRANCH   6  24
ATOM     24  C   UNL     1       5.632   4.984  16.024  0.00  0.00    +0.000 C 
ATOM     25  C   UNL     1       4.899   4.681  14.717  0.00  0.00    +0.000 C 
ATOM     26  C   UNL     1       5.902   3.859  13.926  0.00  0.00    +0.000 C 
ATOM     27  C   UNL     1       7.232   4.541  14.206  0.00  0.00    +0.000 C 
ATOM     28  C   UNL     1       7.108   5.130  15.610  0.00  0.00    +0.000 C 
ENDBRANCH   6  24
TORSDOF 5
ENDMDL
MODEL 6
REMARK VINA RESULT:      -7.0      0.757      1.108
REMARK  Name = 
REMARK  5 active torsions:
REMARK  status: ('A' for Active; 'I' for Inactive)
REMARK    1  A    between atoms: O_1  and  C_2
REMARK    2  A    between atoms: C_2  and  C_3
REMARK    3  A    between atoms: C_6  and  N_7
REMARK    4  A    between atoms: N_12  and  C_13
REMARK    5  A    between atoms: C_24  and  O_25
REMARK                            x       y       z     vdW  Elec       q    Type
REMARK                         _______ _______ _______ _____ _____    ______ ____
ROOT
ATOM      1  N   UNL     1       2.267   6.774  19.428  0.00  0.00    +0.000 N 
ATOM      2  C   UNL     1       2.616   7.134  18.151  0.00  0.00    +0.000 A 
ATOM      3  N   UNL     1       2.257   8.375  17.871  0.00  0.00    +0.000 NA
ATOM      4  C   UNL     1       1.661   8.831  19.016  0.00  0.00    +0.000 A 
ATOM      5  C   UNL     1       1.063  10.072  19.331  0.00  0.00    +0.000 A 
ATOM      6  N   UNL     1       0.950  11.078  18.375  0.00  0.00    +0.000 N 
ATOM      7  N   UNL     1       0.582  10.231  20.589  0.00  0.00    +0.000 NA
ATOM      8  C   UNL     1       0.685   9.197  21.449  0.00  0.00    +0.000 A 
ATOM      9 CL   UNL     1       0.039   9.475  23.010  0.00  0.00    +0.000 Cl
ATOM     10  N   UNL     1       1.216   7.973  21.262  0.00  0.00    +0.000 NA
ATOM     11  C   UNL     1       1.685   7.862  20.011  0.00  0.00    +0.000 A 
ATOM     12  H   UNL     1       1.529  10.883  17.561  0.00  0.00    +0.000 HD
ENDROOT
BRANCH   1  16
ATOM     13  C   UNL     1       2.921   3.084  19.639  0.00  0.00    +0.000 C 
ATOM     14  C   UNL     1       4.334   3.664  19.697  0.00  0.00    +0.000 C 
ATOM     15  C   UNL     1       3.229   4.475  19.108  0.00  0.00    +0.000 C 
ATOM     16  C   UNL     1       2.499   5.467  19.993  0.00  0.00    +0.000 C 
ATOM     17  C   UNL     1       1.262   4.672  20.439  0.00  0.00    +0.000 C 
ATOM     18  C   UNL     1       1.852   3.276  20.711  0.00  0.00    +0.000 C 
BRANCH  18  19
ATOM     19  O   UNL     1       2.415   3.282  22.017  0.00  0.00    +0.000 OA
ATOM     20  H   UNL     1       1.893   2.680  22.574  0.00  0.00    +0.000 HD
ENDBRANCH  18  19
BRANCH  13  21
ATOM     21  C   UNL     1       2.776   1.851  18.792  0.00  0.00    +0.000 C 
BRANCH  21  22
ATOM     22  O   UNL     1       1.381   1.625  18.620  0.00  0.00    +0.000 OA
ATOM     23  H   UNL     1       0.951   1.768  19.479  0.00  0.00    +0.000 HD
ENDBRANCH  21  22
ENDBRANCH  13  21
ENDBRANCH   1  16
BRANCH   6  24
ATOM     24  C   UNL     1       0.855  12.459  18.809  0.00  0.00    +0.000 C 
ATOM     25  C   UNL     1      -0.438  12.751  19.571  0.00  0.00    +0.000 C 
ATOM     26  C   UNL     1      -0.069  13.920  20.468  0.00  0.00    +0.000 C 
ATOM     27  C   UNL     1       1.334  13.583  20.947  0.00  0.00    +0.000 C 
ATOM     28  C   UNL     1       1.974  12.776  19.817  0.00  0.00    +0.000 C 
ENDBRANCH   6  24
TORSDOF 5
ENDMDL
MODEL 7
REMARK VINA RESULT:      -6.9      1.202      1.638
REMARK  Name = 
REMARK  5 active torsions:
REMARK  status: ('A' for Active; 'I' for Inactive)
REMARK    1  A    between atoms: O_1  and  C_2
REMARK    2  A    between atoms: C_2  and  C_3
REMARK    3  A    between atoms: C_6  and  N_7
REMARK    4  A    between atoms: N_12  and  C_13
REMARK    5  A    between atoms: C_24  and  O_25
REMARK                            x       y       z     vdW  Elec       q    Type
REMARK                         _______ _______ _______ _____ _____    ______ ____
ROOT
ATOM      1  N   UNL     1       2.040   6.883  18.746  0.00  0.00    +0.000 N 
ATOM      2  C   UNL     1       2.552   7.390  17.579  0.00  0.00    +0.000 A 
ATOM      3  N   UNL     1       2.456   8.707  17.526  0.00  0.00    +0.000 NA
ATOM      4  C   UNL     1       1.866   9.059  18.710  0.00  0.00    +0.000 A 
ATOM      5  C   UNL     1       1.488  10.318  19.230  0.00  0.00    +0.000 A 
ATOM      6  N   UNL     1       1.642  11.481  18.481  0.00  0.00    +0.000 N 
ATOM      7  N   UNL     1       0.946  10.341  20.473  0.00  0.00    +0.000 NA
ATOM      8  C   UNL     1       0.784   9.170  21.123  0.00  0.00    +0.000 A 
ATOM      9 CL   UNL     1       0.079   9.287  22.679  0.00  0.00    +0.000 Cl
ATOM     10  N   UNL     1       1.089   7.918  20.729  0.00  0.00    +0.000 NA
ATOM     11  C   UNL     1       1.628   7.943  19.501  0.00  0.00    +0.000 A 
ATOM     12  H   UNL     1       2.238  11.324  17.671  0.00  0.00    +0.000 HD
ENDROOT
BRANCH   1  16
ATOM     13  C   UNL     1       3.114   3.462  19.853  0.00  0.00    +0.000 C 
ATOM     14  C   UNL     1       2.558   4.057  21.147  0.00  0.00    +0.000 C 
ATOM     15  C   UNL     1       3.006   4.965  20.050  0.00  0.00    +0.000 C 
ATOM     16  C   UNL     1       1.977   5.476  19.060  0.00  0.00    +0.000 C 
ATOM     17  C   UNL     1       2.122   4.495  17.888  0.00  0.00    +0.000 C 
ATOM     18  C   UNL     1       2.287   3.145  18.611  0.00  0.00    +0.000 C 
BRANCH  18  19
ATOM     19  O   UNL     1       0.991   2.667  18.951  0.00  0.00    +0.000 OA
ATOM     20  H   UNL     1       0.922   2.643  19.919  0.00  0.00    +0.000 HD
ENDBRANCH  18  19
BRANCH  13  21
ATOM     21  C   UNL     1       4.374   2.660  20.015  0.00  0.00    +0.000 C 
BRANCH  21  22
ATOM     22  O   UNL     1       5.360   3.260  19.181  0.00  0.00    +0.000 OA
ATOM     23  H   UNL     1       5.728   4.020  19.661  0.00  0.00    +0.000 HD
ENDBRANCH  21  22
ENDBRANCH  13  21
ENDBRANCH   1  16
BRANCH   6  24
ATOM     24  C   UNL     1       1.774  12.752  19.167  0.00  0.00    +0.000 C 
ATOM     25  C   UNL     1       2.791  13.680  18.502  0.00  0.00    +0.000 C 
ATOM     26  C   UNL     1       2.314  15.070  18.887  0.00  0.00    +0.000 C 
ATOM     27  C   UNL     1       0.801  14.980  18.774  0.00  0.00    +0.000 C 
ATOM     28  C   UNL     1       0.447  13.530  19.102  0.00  0.00    +0.000 C 
ENDBRANCH   6  24
TORSDOF 5
ENDMDL
MODEL 8
REMARK VINA RESULT:      -6.6      3.826      7.765
REMARK  Name = 
REMARK  5 active torsions:
REMARK  status: ('A' for Active; 'I' for Inactive)
REMARK    1  A    between atoms: O_1  and  C_2
REMARK    2  A    between atoms: C_2  and  C_3
REMARK    3  A    between atoms: C_6  and  N_7
REMARK    4  A    between atoms: N_12  and  C_13
REMARK    5  A    between atoms: C_24  and  O_25
REMARK                            x       y       z     vdW  Elec       q    Type
REMARK                         _______ _______ _______ _____ _____    ______ ____
ROOT
ATOM      1  N   UNL     1       1.329   9.347  18.970  0.00  0.00    +0.000 N 
ATOM      2  C   UNL     1       1.852   9.899  17.828  0.00  0.00    +0.000 A 
ATOM      3  N   UNL     1       2.756   9.114  17.268  0.00  0.00    +0.000 NA
ATOM      4  C   UNL     1       2.808   8.012  18.078  0.00  0.00    +0.000 A 
ATOM      5  C   UNL     1       3.592   6.838  18.013  0.00  0.00    +0.000 A 
ATOM      6  N   UNL     1       4.559   6.673  17.025  0.00  0.00    +0.000 N 
ATOM      7  N   UNL     1       3.383   5.895  18.965  0.00  0.00    +0.000 NA
ATOM      8  C   UNL     1       2.461   6.141  19.918  0.00  0.00    +0.000 A 
ATOM      9 CL   UNL     1       2.271   4.907  21.089  0.00  0.00    +0.000 Cl
ATOM     10  N   UNL     1       1.670   7.218  20.091  0.00  0.00    +0.000 NA
ATOM     11  C   UNL     1       1.904   8.119  19.127  0.00  0.00    +0.000 A 
ATOM     12  H   UNL     1       4.454   7.363  16.284  0.00  0.00    +0.000 HD
ENDROOT
BRANCH   1  16
ATOM     13  C   UNL     1      -1.154  11.887  20.182  0.00  0.00    +0.000 C 
ATOM     14  C   UNL     1      -2.048  10.897  19.435  0.00  0.00    +0.000 C 
ATOM     15  C   UNL     1      -0.591  10.961  19.116  0.00  0.00    +0.000 C 
ATOM     16  C   UNL     1       0.351   9.996  19.809  0.00  0.00    +0.000 C 
ATOM     17  C   UNL     1       0.886  10.833  20.981  0.00  0.00    +0.000 C 
ATOM     18  C   UNL     1      -0.378  11.573  21.457  0.00  0.00    +0.000 C 
BRANCH  18  19
ATOM     19  O   UNL     1      -1.104  10.700  22.312  0.00  0.00    +0.000 OA
ATOM     20  H   UNL     1      -0.742   9.804  22.208  0.00  0.00    +0.000 HD
ENDBRANCH  18  19
BRANCH  13  21
ATOM     21  C   UNL     1      -1.498  13.335  19.971  0.00  0.00    +0.000 C 
BRANCH  21  22
ATOM     22  O   UNL     1      -0.783  13.770  18.820  0.00  0.00    +0.000 OA
ATOM     23  H   UNL     1       0.093  13.351  18.842  0.00  0.00    +0.000 HD
ENDBRANCH  21  22
ENDBRANCH  13  21
ENDBRANCH   1  16
BRANCH   6  24
ATOM     24  C   UNL     1       4.952   5.333  16.635  0.00  0.00    +0.000 C 
ATOM     25  C   UNL     1       5.212   5.206  15.134  0.00  0.00    +0.000 C 
ATOM     26  C   UNL     1       6.198   4.055  15.036  0.00  0.00    +0.000 C 
ATOM     27  C   UNL     1       7.137   4.281  16.210  0.00  0.00    +0.000 C 
ATOM     28  C   UNL     1       6.296   4.962  17.288  0.00  0.00    +0.000 C 
ENDBRANCH   6  24
TORSDOF 5
ENDMDL
MODEL 9
REMARK VINA RESULT:      -6.5      1.360      1.755
REMARK  Name = 
REMARK  5 active torsions:
REMARK  status: ('A' for Active; 'I' for Inactive)
REMARK    1  A    between atoms: O_1  and  C_2
REMARK    2  A    between atoms: C_2  and  C_3
REMARK    3  A    between atoms: C_6  and  N_7
REMARK    4  A    between atoms: N_12  and  C_13
REMARK    5  A    between atoms: C_24  and  O_25
REMARK                            x       y       z     vdW  Elec       q    Type
REMARK                         _______ _______ _______ _____ _____    ______ ____
ROOT
ATOM      1  N   UNL     1       2.354   7.571  18.869  0.00  0.00    +0.000 N 
ATOM      2  C   UNL     1       2.584   8.171  17.657  0.00  0.00    +0.000 A 
ATOM      3  N   UNL     1       2.009   9.358  17.575  0.00  0.00    +0.000 NA
ATOM      4  C   UNL     1       1.392   9.529  18.785  0.00  0.00    +0.000 A 
ATOM      5  C   UNL     1       0.605  10.586  19.294  0.00  0.00    +0.000 A 
ATOM      6  N   UNL     1       0.284  11.688  18.505  0.00  0.00    +0.000 N 
ATOM      7  N   UNL     1       0.156  10.472  20.569  0.00  0.00    +0.000 NA
ATOM      8  C   UNL     1       0.469   9.356  21.259  0.00  0.00    +0.000 A 
ATOM      9 CL   UNL     1      -0.150   9.284  22.854  0.00  0.00    +0.000 Cl
ATOM     10  N   UNL     1       1.192   8.284  20.880  0.00  0.00    +0.000 NA
ATOM     11  C   UNL     1       1.620   8.443  19.620  0.00  0.00    +0.000 A 
ATOM     12  H   UNL     1       0.854  11.719  17.662  0.00  0.00    +0.000 HD
ENDROOT
BRANCH   1  16
ATOM     13  C   UNL     1       4.006   4.214  18.572  0.00  0.00    +0.000 C 
ATOM     14  C   UNL     1       5.132   5.075  19.145  0.00  0.00    +0.000 C 
ATOM     15  C   UNL     1       4.001   5.727  18.422  0.00  0.00    +0.000 C 
ATOM     16  C   UNL     1       2.828   6.255  19.224  0.00  0.00    +0.000 C 
ATOM     17  C   UNL     1       1.814   5.104  19.136  0.00  0.00    +0.000 C 
ATOM     18  C   UNL     1       2.714   3.865  19.304  0.00  0.00    +0.000 C 
BRANCH  18  19
ATOM     19  O   UNL     1       2.935   3.666  20.694  0.00  0.00    +0.000 OA
ATOM     20  H   UNL     1       2.088   3.784  21.155  0.00  0.00    +0.000 HD
ENDBRANCH  18  19
BRANCH  13  21
ATOM     21  C   UNL     1       4.431   3.243  17.507  0.00  0.00    +0.000 C 
BRANCH  21  22
ATOM     22  O   UNL     1       4.042   1.946  17.946  0.00  0.00    +0.000 OA
ATOM     23  H   UNL     1       3.191   1.736  17.528  0.00  0.00    +0.000 HD
ENDBRANCH  21  22
ENDBRANCH  13  21
ENDBRANCH   1  16
BRANCH   6  24
ATOM     24  C   UNL     1      -0.026  12.952  19.146  0.00  0.00    +0.000 C 
ATOM     25  C   UNL     1      -1.278  12.880  20.020  0.00  0.00    +0.000 C 
ATOM     26  C   UNL     1      -1.054  13.966  21.059  0.00  0.00    +0.000 C 
ATOM     27  C   UNL     1       0.423  13.847  21.396  0.00  0.00    +0.000 C 
ATOM     28  C   UNL     1       1.099  13.342  20.122  0.00  0.00    +0.000 C 
ENDBRANCH   6  24
TORSDOF 5
ENDMDL
