MODEL 1
REMARK VINA RESULT:      -8.4      0.000      0.000
REMARK  Name = 
REMARK  6 active torsions:
REMARK  status: ('A' for Active; 'I' for Inactive)
REMARK    1  A    between atoms: N_1  and  C_2
REMARK    2  A    between atoms: C_2  and  C_3
REMARK    3  A    between atoms: C_3  and  C_4
REMARK    4  A    between atoms: C_3  and  C_14
REMARK    5  A    between atoms: C_14  and  O_15
REMARK    6  A    between atoms: C_14  and  C_16
REMARK                            x       y       z     vdW  Elec       q    Type
REMARK                         _______ _______ _______ _____ _____    ______ ____
ROOT
ATOM      1  C   UNL     1       5.815   4.341  16.922  0.00  0.00    +0.000 C 
ENDROOT
BRANCH   1   2
ATOM      2  C   UNL     1       4.539   4.024  17.711  0.00  0.00    +0.000 A 
ATOM      3  C   UNL     1       3.306   4.467  17.198  0.00  0.00    +0.000 A 
ATOM      4  C   UNL     1       2.120   4.295  17.913  0.00  0.00    +0.000 A 
ATOM      5  C   UNL     1       2.136   3.692  19.176  0.00  0.00    +0.000 A 
ATOM      6  C   UNL     1       0.955   3.578  19.925  0.00  0.00    +0.000 A 
ATOM      7  C   UNL     1       0.986   3.000  21.196  0.00  0.00    +0.000 A 
ATOM      8  C   UNL     1       2.187   2.517  21.719  0.00  0.00    +0.000 A 
ATOM      9  C   UNL     1       3.370   2.615  20.978  0.00  0.00    +0.000 A 
ATOM     10  C   UNL     1       3.363   3.213  19.702  0.00  0.00    +0.000 A 
ATOM     11  C   UNL     1       4.551   3.363  18.961  0.00  0.00    +0.000 A 
ENDBRANCH   1   2
BRANCH   1  12
ATOM     12  C   UNL     1       6.930   4.893  17.839  0.00  0.00    +0.000 C 
BRANCH  12  13
ATOM     13  N   UNL     1       8.168   4.126  17.689  0.00  0.00    +0.000 NA
ATOM     14  H   UNL     1       8.882   4.702  17.189  0.00  0.00    +0.000 HD
ATOM     15  H   UNL     1       8.548   3.878  18.633  0.00  0.00    +0.000 HD
ENDBRANCH  12  13
ENDBRANCH   1  12
BRANCH   1  16
ATOM     16  C   UNL     1       5.566   5.274  15.692  0.00  0.00    +0.000 C 
BRANCH  16  17
ATOM     17  C   UNL     1       6.117   4.761  14.375  0.00  0.00    +0.000 A 
ATOM     18  C   UNL     1       5.394   3.800  13.642  0.00  0.00    +0.000 A 
ATOM     19  C   UNL     1       5.854   3.364  12.397  0.00  0.00    +0.000 A 
ATOM     20  C   UNL     1       7.040   3.881  11.871  0.00  0.00    +0.000 A 
ATOM     21  C   UNL     1       7.773   4.827  12.595  0.00  0.00    +0.000 A 
ATOM     22  C   UNL     1       7.318   5.267  13.840  0.00  0.00    +0.000 A 
ENDBRANCH  16  17
BRANCH  16  23
ATOM     23  O   UNL     1       6.085   6.562  15.917  0.00  0.00    +0.000 OA
ATOM     24  H   UNL     1       6.215   6.997  15.033  0.00  0.00    +0.000 HD
ENDBRANCH  16  23
ENDBRANCH   1  16
TORSDOF 6
ENDMDL
MODEL 2
REMARK VINA RESULT:      -8.4      0.082      1.061
REMARK  Name = 
REMARK  6 active torsions:
REMARK  status: ('A' for Active; 'I' for Inactive)
REMARK    1  A    between atoms: N_1  and  C_2
REMARK    2  A    between atoms: C_2  and  C_3
REMARK    3  A    between atoms: C_3  and  C_4
REMARK    4  A    between atoms: C_3  and  C_14
REMARK    5  A    between atoms: C_14  and  O_15
REMARK    6  A    between atoms: C_14  and  C_16
REMARK                            x       y       z     vdW  Elec       q    Type
REMARK                         _______ _______ _______ _____ _____    ______ ____
ROOT
ATOM      1  C   UNL     1       5.774   4.339  16.879  0.00  0.00    +0.000 C 
ENDROOT
BRANCH   1   2
ATOM      2  C   UNL     1       4.509   3.992  17.674  0.00  0.00    +0.000 A 
ATOM      3  C   UNL     1       3.259   4.349  17.135  0.00  0.00    +0.000 A 
ATOM      4  C   UNL     1       2.078   4.147  17.850  0.00  0.00    +0.000 A 
ATOM      5  C   UNL     1       2.115   3.599  19.137  0.00  0.00    +0.000 A 
ATOM      6  C   UNL     1       0.935   3.458  19.883  0.00  0.00    +0.000 A 
ATOM      7  C   UNL     1       0.984   2.936  21.178  0.00  0.00    +0.000 A 
ATOM      8  C   UNL     1       2.204   2.538  21.728  0.00  0.00    +0.000 A 
ATOM      9  C   UNL     1       3.387   2.664  20.990  0.00  0.00    +0.000 A 
ATOM     10  C   UNL     1       3.360   3.206  19.690  0.00  0.00    +0.000 A 
ATOM     11  C   UNL     1       4.545   3.385  18.951  0.00  0.00    +0.000 A 
ENDBRANCH   1   2
BRANCH   1  12
ATOM     12  C   UNL     1       6.892   4.884  17.798  0.00  0.00    +0.000 C 
BRANCH  12  13
ATOM     13  N   UNL     1       8.128   4.115  17.642  0.00  0.00    +0.000 NA
ATOM     14  H   UNL     1       8.669   4.129  18.535  0.00  0.00    +0.000 HD
ATOM     15  H   UNL     1       7.899   3.119  17.412  0.00  0.00    +0.000 HD
ENDBRANCH  12  13
ENDBRANCH   1  12
BRANCH   1  16
ATOM     16  C   UNL     1       5.503   5.295  15.672  0.00  0.00    +0.000 C 
BRANCH  16  17
ATOM     17  C   UNL     1       6.026   4.805  14.335  0.00  0.00    +0.000 A 
ATOM     18  C   UNL     1       7.256   5.287  13.847  0.00  0.00    +0.000 A 
ATOM     19  C   UNL     1       7.783   4.800  12.648  0.00  0.00    +0.000 A 
ATOM     20  C   UNL     1       7.090   3.828  11.924  0.00  0.00    +0.000 A 
ATOM     21  C   UNL     1       5.861   3.351  12.392  0.00  0.00    +0.000 A 
ATOM     22  C   UNL     1       5.329   3.834  13.590  0.00  0.00    +0.000 A 
ENDBRANCH  16  17
BRANCH  16  23
ATOM     23  O   UNL     1       6.029   6.577  15.910  0.00  0.00    +0.000 OA
ATOM     24  H   UNL     1       5.674   6.896  16.780  0.00  0.00    +0.000 HD
ENDBRANCH  16  23
ENDBRANCH   1  16
TORSDOF 6
ENDMDL
MODEL 3
REMARK VINA RESULT:      -8.1      3.533      4.915
REMARK  Name = 
REMARK  6 active torsions:
REMARK  status: ('A' for Active; 'I' for Inactive)
REMARK    1  A    between atoms: N_1  and  C_2
REMARK    2  A    between atoms: C_2  and  C_3
REMARK    3  A    between atoms: C_3  and  C_4
REMARK    4  A    between atoms: C_3  and  C_14
REMARK    5  A    between atoms: C_14  and  O_15
REMARK    6  A    between atoms: C_14  and  C_16
REMARK                            x       y       z     vdW  Elec       q    Type
REMARK                         _______ _______ _______ _____ _____    ______ ____
ROOT
ATOM      1  C   UNL     1       3.093   3.968  18.909  0.00  0.00    +0.000 C 
ENDROOT
BRANCH   1   2
ATOM      2  C   UNL     1       2.644   5.393  19.253  0.00  0.00    +0.000 A 
ATOM      3  C   UNL     1       2.034   5.622  20.501  0.00  0.00    +0.000 A 
ATOM      4  C   UNL     1       1.519   6.875  20.836  0.00  0.00    +0.000 A 
ATOM      5  C   UNL     1       1.580   7.933  19.922  0.00  0.00    +0.000 A 
ATOM      6  C   UNL     1       1.002   9.174  20.231  0.00  0.00    +0.000 A 
ATOM      7  C   UNL     1       1.043  10.216  19.302  0.00  0.00    +0.000 A 
ATOM      8  C   UNL     1       1.674  10.032  18.069  0.00  0.00    +0.000 A 
ATOM      9  C   UNL     1       2.263   8.803  17.753  0.00  0.00    +0.000 A 
ATOM     10  C   UNL     1       2.214   7.734  18.669  0.00  0.00    +0.000 A 
ATOM     11  C   UNL     1       2.759   6.475  18.349  0.00  0.00    +0.000 A 
ENDBRANCH   1   2
BRANCH   1  12
ATOM     12  C   UNL     1       2.314   2.913  19.729  0.00  0.00    +0.000 C 
BRANCH  12  13
ATOM     13  N   UNL     1       2.003   1.735  18.918  0.00  0.00    +0.000 NA
ATOM     14  H   UNL     1       1.396   2.009  18.114  0.00  0.00    +0.000 HD
ATOM     15  H   UNL     1       2.888   1.324  18.537  0.00  0.00    +0.000 HD
ENDBRANCH  12  13
ENDBRANCH   1  12
BRANCH   1  16
ATOM     16  C   UNL     1       4.638   3.761  19.023  0.00  0.00    +0.000 C 
BRANCH  16  17
ATOM     17  C   UNL     1       5.425   4.099  17.772  0.00  0.00    +0.000 A 
ATOM     18  C   UNL     1       4.841   3.905  16.506  0.00  0.00    +0.000 A 
ATOM     19  C   UNL     1       5.528   4.270  15.345  0.00  0.00    +0.000 A 
ATOM     20  C   UNL     1       6.803   4.832  15.435  0.00  0.00    +0.000 A 
ATOM     21  C   UNL     1       7.399   5.018  16.687  0.00  0.00    +0.000 A 
ATOM     22  C   UNL     1       6.717   4.655  17.851  0.00  0.00    +0.000 A 
ENDBRANCH  16  17
BRANCH  16  23
ATOM     23  O   UNL     1       4.949   2.441  19.398  0.00  0.00    +0.000 OA
ATOM     24  H   UNL     1       5.910   2.287  19.204  0.00  0.00    +0.000 HD
ENDBRANCH  16  23
ENDBRANCH   1  16
TORSDOF 6
ENDMDL
MODEL 4
REMARK VINA RESULT:      -8.0      3.538      4.919
REMARK  Name = 
REMARK  6 active torsions:
REMARK  status: ('A' for Active; 'I' for Inactive)
REMARK    1  A    between atoms: N_1  and  C_2
REMARK    2  A    between atoms: C_2  and  C_3
REMARK    3  A    between atoms: C_3  and  C_4
REMARK    4  A    between atoms: C_3  and  C_14
REMARK    5  A    between atoms: C_14  and  O_15
REMARK    6  A    between atoms: C_14  and  C_16
REMARK                            x       y       z     vdW  Elec       q    Type
REMARK                         _______ _______ _______ _____ _____    ______ ____
ROOT
ATOM      1  C   UNL     1       3.147   4.087  18.737  0.00  0.00    +0.000 C 
ENDROOT
BRANCH   1   2
ATOM      2  C   UNL     1       2.669   5.484  19.149  0.00  0.00    +0.000 A 
ATOM      3  C   UNL     1       2.081   5.644  20.418  0.00  0.00    +0.000 A 
ATOM      4  C   UNL     1       1.540   6.868  20.816  0.00  0.00    +0.000 A 
ATOM      5  C   UNL     1       1.553   7.964  19.946  0.00  0.00    +0.000 A 
ATOM      6  C   UNL     1       0.951   9.175  20.319  0.00  0.00    +0.000 A 
ATOM      7  C   UNL     1       0.944  10.255  19.434  0.00  0.00    +0.000 A 
ATOM      8  C   UNL     1       1.551  10.140  18.182  0.00  0.00    +0.000 A 
ATOM      9  C   UNL     1       2.165   8.942  17.802  0.00  0.00    +0.000 A 
ATOM     10  C   UNL     1       2.165   7.834  18.673  0.00  0.00    +0.000 A 
ATOM     11  C   UNL     1       2.735   6.605  18.290  0.00  0.00    +0.000 A 
ENDBRANCH   1   2
BRANCH   1  12
ATOM     12  C   UNL     1       2.418   2.979  19.530  0.00  0.00    +0.000 C 
BRANCH  12  13
ATOM     13  N   UNL     1       2.193   1.793  18.701  0.00  0.00    +0.000 NA
ATOM     14  H   UNL     1       1.617   2.048  17.868  0.00  0.00    +0.000 HD
ATOM     15  H   UNL     1       3.111   1.418  18.364  0.00  0.00    +0.000 HD
ENDBRANCH  12  13
ENDBRANCH   1  12
BRANCH   1  16
ATOM     16  C   UNL     1       4.700   3.919  18.805  0.00  0.00    +0.000 C 
BRANCH  16  17
ATOM     17  C   UNL     1       5.437   4.221  17.514  0.00  0.00    +0.000 A 
ATOM     18  C   UNL     1       6.807   4.541  17.551  0.00  0.00    +0.000 A 
ATOM     19  C   UNL     1       7.516   4.760  16.367  0.00  0.00    +0.000 A 
ATOM     20  C   UNL     1       6.866   4.662  15.135  0.00  0.00    +0.000 A 
ATOM     21  C   UNL     1       5.501   4.358  15.087  0.00  0.00    +0.000 A 
ATOM     22  C   UNL     1       4.787   4.138  16.267  0.00  0.00    +0.000 A 
ENDBRANCH  16  17
BRANCH  16  23
ATOM     23  O   UNL     1       5.053   2.623  19.223  0.00  0.00    +0.000 OA
ATOM     24  H   UNL     1       4.917   2.571  20.205  0.00  0.00    +0.000 HD
ENDBRANCH  16  23
ENDBRANCH   1  16
TORSDOF 6
ENDMDL
MODEL 5
REMARK VINA RESULT:      -7.9      0.967      1.212
REMARK  Name = 
REMARK  6 active torsions:
REMARK  status: ('A' for Active; 'I' for Inactive)
REMARK    1  A    between atoms: N_1  and  C_2
REMARK    2  A    between atoms: C_2  and  C_3
REMARK    3  A    between atoms: C_3  and  C_4
REMARK    4  A    between atoms: C_3  and  C_14
REMARK    5  A    between atoms: C_14  and  O_15
REMARK    6  A    between atoms: C_14  and  C_16
REMARK                            x       y       z     vdW  Elec       q    Type
REMARK                         _______ _______ _______ _____ _____    ______ ____
ROOT
ATOM      1  C   UNL     1       5.874   4.561  16.743  0.00  0.00    +0.000 C 
ENDROOT
BRANCH   1   2
ATOM      2  C   UNL     1       4.752   4.489  17.786  0.00  0.00    +0.000 A 
ATOM      3  C   UNL     1       4.682   5.496  18.767  0.00  0.00    +0.000 A 
ATOM      4  C   UNL     1       3.745   5.437  19.799  0.00  0.00    +0.000 A 
ATOM      5  C   UNL     1       2.861   4.356  19.893  0.00  0.00    +0.000 A 
ATOM      6  C   UNL     1       1.964   4.262  20.967  0.00  0.00    +0.000 A 
ATOM      7  C   UNL     1       1.105   3.165  21.068  0.00  0.00    +0.000 A 
ATOM      8  C   UNL     1       1.125   2.167  20.091  0.00  0.00    +0.000 A 
ATOM      9  C   UNL     1       2.007   2.254  19.009  0.00  0.00    +0.000 A 
ATOM     10  C   UNL     1       2.895   3.343  18.901  0.00  0.00    +0.000 A 
ATOM     11  C   UNL     1       3.823   3.424  17.845  0.00  0.00    +0.000 A 
ENDBRANCH   1   2
BRANCH   1  12
ATOM     12  C   UNL     1       7.168   5.161  17.340  0.00  0.00    +0.000 C 
BRANCH  12  13
ATOM     13  N   UNL     1       8.139   4.115  17.662  0.00  0.00    +0.000 NA
ATOM     14  H   UNL     1       7.668   3.182  17.659  0.00  0.00    +0.000 HD
ATOM     15  H   UNL     1       8.898   4.102  16.940  0.00  0.00    +0.000 HD
ENDBRANCH  12  13
ENDBRANCH   1  12
BRANCH   1  16
ATOM     16  C   UNL     1       5.451   5.294  15.429  0.00  0.00    +0.000 C 
BRANCH  16  17
ATOM     17  C   UNL     1       6.033   4.714  14.154  0.00  0.00    +0.000 A 
ATOM     18  C   UNL     1       5.321   3.727  13.447  0.00  0.00    +0.000 A 
ATOM     19  C   UNL     1       5.812   3.228  12.237  0.00  0.00    +0.000 A 
ATOM     20  C   UNL     1       7.017   3.708  11.722  0.00  0.00    +0.000 A 
ATOM     21  C   UNL     1       7.741   4.680  12.422  0.00  0.00    +0.000 A 
ATOM     22  C   UNL     1       7.254   5.182  13.632  0.00  0.00    +0.000 A 
ENDBRANCH  16  17
BRANCH  16  23
ATOM     23  O   UNL     1       5.775   6.661  15.482  0.00  0.00    +0.000 OA
ATOM     24  H   UNL     1       6.027   6.951  14.566  0.00  0.00    +0.000 HD
ENDBRANCH  16  23
ENDBRANCH   1  16
TORSDOF 6
ENDMDL
MODEL 6
REMARK VINA RESULT:      -7.9      1.909      3.742
REMARK  Name = 
REMARK  6 active torsions:
REMARK  status: ('A' for Active; 'I' for Inactive)
REMARK    1  A    between atoms: N_1  and  C_2
REMARK    2  A    between atoms: C_2  and  C_3
REMARK    3  A    between atoms: C_3  and  C_4
REMARK    4  A    between atoms: C_3  and  C_14
REMARK    5  A    between atoms: C_14  and  O_15
REMARK    6  A    between atoms: C_14  and  C_16
REMARK                            x       y       z     vdW  Elec       q    Type
REMARK                         _______ _______ _______ _____ _____    ______ ____
ROOT
ATOM      1  C   UNL     1       5.502   5.091  15.115  0.00  0.00    +0.000 C 
ENDROOT
BRANCH   1   2
ATOM      2  C   UNL     1       4.538   4.955  16.301  0.00  0.00    +0.000 A 
ATOM      3  C   UNL     1       4.185   6.116  17.014  0.00  0.00    +0.000 A 
ATOM      4  C   UNL     1       3.390   6.048  18.159  0.00  0.00    +0.000 A 
ATOM      5  C   UNL     1       2.940   4.812  18.637  0.00  0.00    +0.000 A 
ATOM      6  C   UNL     1       2.197   4.736  19.824  0.00  0.00    +0.000 A 
ATOM      7  C   UNL     1       1.777   3.496  20.309  0.00  0.00    +0.000 A 
ATOM      8  C   UNL     1       2.079   2.329  19.604  0.00  0.00    +0.000 A 
ATOM      9  C   UNL     1       2.810   2.391  18.413  0.00  0.00    +0.000 A 
ATOM     10  C   UNL     1       3.261   3.631  17.919  0.00  0.00    +0.000 A 
ATOM     11  C   UNL     1       4.039   3.710  16.748  0.00  0.00    +0.000 A 
ENDBRANCH   1   2
BRANCH   1  12
ATOM     12  C   UNL     1       5.134   4.120  13.970  0.00  0.00    +0.000 C 
BRANCH  12  13
ATOM     13  N   UNL     1       6.304   3.362  13.522  0.00  0.00    +0.000 NA
ATOM     14  H   UNL     1       6.380   2.474  14.066  0.00  0.00    +0.000 HD
ATOM     15  H   UNL     1       6.201   3.119  12.508  0.00  0.00    +0.000 HD
ENDBRANCH  12  13
ENDBRANCH   1  12
BRANCH   1  16
ATOM     16  C   UNL     1       7.006   4.961  15.522  0.00  0.00    +0.000 C 
BRANCH  16  17
ATOM     17  C   UNL     1       7.374   5.616  16.839  0.00  0.00    +0.000 A 
ATOM     18  C   UNL     1       7.603   4.817  17.976  0.00  0.00    +0.000 A 
ATOM     19  C   UNL     1       8.004   5.399  19.182  0.00  0.00    +0.000 A 
ATOM     20  C   UNL     1       8.182   6.781  19.266  0.00  0.00    +0.000 A 
ATOM     21  C   UNL     1       7.945   7.586  18.146  0.00  0.00    +0.000 A 
ATOM     22  C   UNL     1       7.543   7.011  16.938  0.00  0.00    +0.000 A 
ENDBRANCH  16  17
BRANCH  16  23
ATOM     23  O   UNL     1       7.849   5.476  14.521  0.00  0.00    +0.000 OA
ATOM     24  H   UNL     1       7.623   6.435  14.394  0.00  0.00    +0.000 HD
ENDBRANCH  16  23
ENDBRANCH   1  16
TORSDOF 6
ENDMDL
MODEL 7
REMARK VINA RESULT:      -7.9      0.929      1.757
REMARK  Name = 
REMARK  6 active torsions:
REMARK  status: ('A' for Active; 'I' for Inactive)
REMARK    1  A    between atoms: N_1  and  C_2
REMARK    2  A    between atoms: C_2  and  C_3
REMARK    3  A    between atoms: C_3  and  C_4
REMARK    4  A    between atoms: C_3  and  C_14
REMARK    5  A    between atoms: C_14  and  O_15
REMARK    6  A    between atoms: C_14  and  C_16
REMARK                            x       y       z     vdW  Elec       q    Type
REMARK                         _______ _______ _______ _____ _____    ______ ____
ROOT
ATOM      1  C   UNL     1       5.804   4.550  16.586  0.00  0.00    +0.000 C 
ENDROOT
BRANCH   1   2
ATOM      2  C   UNL     1       4.698   4.460  17.645  0.00  0.00    +0.000 A 
ATOM      3  C   UNL     1       4.854   5.186  18.841  0.00  0.00    +0.000 A 
ATOM      4  C   UNL     1       3.931   5.073  19.882  0.00  0.00    +0.000 A 
ATOM      5  C   UNL     1       2.834   4.212  19.765  0.00  0.00    +0.000 A 
ATOM      6  C   UNL     1       1.943   4.047  20.836  0.00  0.00    +0.000 A 
ATOM      7  C   UNL     1       0.867   3.164  20.721  0.00  0.00    +0.000 A 
ATOM      8  C   UNL     1       0.663   2.457  19.534  0.00  0.00    +0.000 A 
ATOM      9  C   UNL     1       1.538   2.621  18.455  0.00  0.00    +0.000 A 
ATOM     10  C   UNL     1       2.641   3.491  18.559  0.00  0.00    +0.000 A 
ATOM     11  C   UNL     1       3.560   3.633  17.501  0.00  0.00    +0.000 A 
ENDBRANCH   1   2
BRANCH   1  12
ATOM     12  C   UNL     1       7.097   5.169  17.165  0.00  0.00    +0.000 C 
BRANCH  12  13
ATOM     13  N   UNL     1       8.044   4.132  17.574  0.00  0.00    +0.000 NA
ATOM     14  H   UNL     1       8.546   3.760  16.736  0.00  0.00    +0.000 HD
ATOM     15  H   UNL     1       8.755   4.539  18.228  0.00  0.00    +0.000 HD
ENDBRANCH  12  13
ENDBRANCH   1  12
BRANCH   1  16
ATOM     16  C   UNL     1       5.351   5.278  15.279  0.00  0.00    +0.000 C 
BRANCH  16  17
ATOM     17  C   UNL     1       5.899   4.689  13.993  0.00  0.00    +0.000 A 
ATOM     18  C   UNL     1       7.157   5.104  13.516  0.00  0.00    +0.000 A 
ATOM     19  C   UNL     1       7.705   4.527  12.367  0.00  0.00    +0.000 A 
ATOM     20  C   UNL     1       7.006   3.530  11.684  0.00  0.00    +0.000 A 
ATOM     21  C   UNL     1       5.749   3.119  12.141  0.00  0.00    +0.000 A 
ATOM     22  C   UNL     1       5.196   3.693  13.289  0.00  0.00    +0.000 A 
ENDBRANCH  16  17
BRANCH  16  23
ATOM     23  O   UNL     1       5.682   6.644  15.316  0.00  0.00    +0.000 OA
ATOM     24  H   UNL     1       6.615   6.742  14.989  0.00  0.00    +0.000 HD
ENDBRANCH  16  23
ENDBRANCH   1  16
TORSDOF 6
ENDMDL
MODEL 8
REMARK VINA RESULT:      -7.8      1.911      3.786
REMARK  Name = 
REMARK  6 active torsions:
REMARK  status: ('A' for Active; 'I' for Inactive)
REMARK    1  A    between atoms: N_1  and  C_2
REMARK    2  A    between atoms: C_2  and  C_3
REMARK    3  A    between atoms: C_3  and  C_4
REMARK    4  A    between atoms: C_3  and  C_14
REMARK    5  A    between atoms: C_14  and  O_15
REMARK    6  A    between atoms: C_14  and  C_16
REMARK                            x       y       z     vdW  Elec       q    Type
REMARK                         _______ _______ _______ _____ _____    ______ ____
ROOT
ATOM      1  C   UNL     1       5.514   5.023  15.063  0.00  0.00    +0.000 C 
ENDROOT
BRANCH   1   2
ATOM      2  C   UNL     1       4.600   4.944  16.292  0.00  0.00    +0.000 A 
ATOM      3  C   UNL     1       4.253   6.140  16.947  0.00  0.00    +0.000 A 
ATOM      4  C   UNL     1       3.504   6.130  18.124  0.00  0.00    +0.000 A 
ATOM      5  C   UNL     1       3.096   4.918  18.694  0.00  0.00    +0.000 A 
ATOM      6  C   UNL     1       2.401   4.903  19.912  0.00  0.00    +0.000 A 
ATOM      7  C   UNL     1       2.023   3.688  20.487  0.00  0.00    +0.000 A 
ATOM      8  C   UNL     1       2.321   2.485  19.844  0.00  0.00    +0.000 A 
ATOM      9  C   UNL     1       3.004   2.486  18.623  0.00  0.00    +0.000 A 
ATOM     10  C   UNL     1       3.411   3.701  18.037  0.00  0.00    +0.000 A 
ATOM     11  C   UNL     1       4.142   3.721  16.833  0.00  0.00    +0.000 A 
ENDBRANCH   1   2
BRANCH   1  12
ATOM     12  C   UNL     1       5.094   4.007  13.976  0.00  0.00    +0.000 C 
BRANCH  12  13
ATOM     13  N   UNL     1       6.263   3.382  13.355  0.00  0.00    +0.000 NA
ATOM     14  H   UNL     1       6.750   2.773  14.050  0.00  0.00    +0.000 HD
ATOM     15  H   UNL     1       5.959   2.783  12.551  0.00  0.00    +0.000 HD
ENDBRANCH  12  13
ENDBRANCH   1  12
BRANCH   1  16
ATOM     16  C   UNL     1       7.033   4.899  15.412  0.00  0.00    +0.000 C 
BRANCH  16  17
ATOM     17  C   UNL     1       7.437   5.500  16.745  0.00  0.00    +0.000 A 
ATOM     18  C   UNL     1       7.565   6.897  16.871  0.00  0.00    +0.000 A 
ATOM     19  C   UNL     1       7.874   7.471  18.107  0.00  0.00    +0.000 A 
ATOM     20  C   UNL     1       8.058   6.660  19.228  0.00  0.00    +0.000 A 
ATOM     21  C   UNL     1       7.947   5.270  19.112  0.00  0.00    +0.000 A 
ATOM     22  C   UNL     1       7.637   4.690  17.879  0.00  0.00    +0.000 A 
ENDBRANCH  16  17
BRANCH  16  23
ATOM     23  O   UNL     1       7.834   5.472  14.408  0.00  0.00    +0.000 OA
ATOM     24  H   UNL     1       7.438   5.234  13.529  0.00  0.00    +0.000 HD
ENDBRANCH  16  23
ENDBRANCH   1  16
TORSDOF 6
ENDMDL
MODEL 9
REMARK VINA RESULT:      -7.8      3.744      6.206
REMARK  Name = 
REMARK  6 active torsions:
REMARK  status: ('A' for Active; 'I' for Inactive)
REMARK    1  A    between atoms: N_1  and  C_2
REMARK    2  A    between atoms: C_2  and  C_3
REMARK    3  A    between atoms: C_3  and  C_4
REMARK    4  A    between atoms: C_3  and  C_14
REMARK    5  A    between atoms: C_14  and  O_15
REMARK    6  A    between atoms: C_14  and  C_16
REMARK                            x       y       z     vdW  Elec       q    Type
REMARK                         _______ _______ _______ _____ _____    ______ ____
ROOT
ATOM      1  C   UNL     1       3.917   6.145  18.000  0.00  0.00    +0.000 C 
ENDROOT
BRANCH   1   2
ATOM      2  C   UNL     1       2.884   7.176  18.473  0.00  0.00    +0.000 A 
ATOM      3  C   UNL     1       2.494   8.191  17.579  0.00  0.00    +0.000 A 
ATOM      4  C   UNL     1       1.632   9.214  17.978  0.00  0.00    +0.000 A 
ATOM      5  C   UNL     1       1.150   9.262  19.291  0.00  0.00    +0.000 A 
ATOM      6  C   UNL     1       0.338  10.326  19.711  0.00  0.00    +0.000 A 
ATOM      7  C   UNL     1      -0.116  10.381  21.031  0.00  0.00    +0.000 A 
ATOM      8  C   UNL     1       0.224   9.370  21.932  0.00  0.00    +0.000 A 
ATOM      9  C   UNL     1       1.024   8.298  21.523  0.00  0.00    +0.000 A 
ATOM     10  C   UNL     1       1.508   8.235  20.201  0.00  0.00    +0.000 A 
ATOM     11  C   UNL     1       2.354   7.190  19.784  0.00  0.00    +0.000 A 
ENDBRANCH   1   2
BRANCH   1  12
ATOM     12  C   UNL     1       4.813   6.711  16.875  0.00  0.00    +0.000 C 
BRANCH  12  13
ATOM     13  N   UNL     1       6.205   6.294  17.046  0.00  0.00    +0.000 NA
ATOM     14  H   UNL     1       6.274   5.600  17.824  0.00  0.00    +0.000 HD
ATOM     15  H   UNL     1       6.549   5.839  16.167  0.00  0.00    +0.000 HD
ENDBRANCH  12  13
ENDBRANCH   1  12
BRANCH   1  16
ATOM     16  C   UNL     1       3.282   4.773  17.599  0.00  0.00    +0.000 C 
BRANCH  16  17
ATOM     17  C   UNL     1       2.652   3.998  18.739  0.00  0.00    +0.000 A 
ATOM     18  C   UNL     1       3.451   3.561  19.813  0.00  0.00    +0.000 A 
ATOM     19  C   UNL     1       2.876   2.901  20.902  0.00  0.00    +0.000 A 
ATOM     20  C   UNL     1       1.500   2.670  20.932  0.00  0.00    +0.000 A 
ATOM     21  C   UNL     1       0.697   3.087  19.865  0.00  0.00    +0.000 A 
ATOM     22  C   UNL     1       1.266   3.748  18.773  0.00  0.00    +0.000 A 
ENDBRANCH  16  17
BRANCH  16  23
ATOM     23  O   UNL     1       4.225   3.942  16.967  0.00  0.00    +0.000 OA
ATOM     24  H   UNL     1       5.096   4.061  17.430  0.00  0.00    +0.000 HD
ENDBRANCH  16  23
ENDBRANCH   1  16
TORSDOF 6
ENDMDL
