MODEL 1
REMARK VINA RESULT:      -5.9      0.000      0.000
REMARK  Name = 
REMARK  8 active torsions:
REMARK  status: ('A' for Active; 'I' for Inactive)
REMARK    1  A    between atoms: C_1  and  O_2
REMARK    2  A    between atoms: O_2  and  C_3
REMARK    3  A    between atoms: C_3  and  C_4
REMARK    4  A    between atoms: C_4  and  O_5
REMARK    5  A    between atoms: O_5  and  C_6
REMARK    6  A    between atoms: N_16  and  C_17
REMARK    7  A    between atoms: C_23  and  O_24
REMARK    8  A    between atoms: O_24  and  C_25
REMARK                            x       y       z     vdW  Elec       q    Type
REMARK                         _______ _______ _______ _____ _____    ______ ____
ROOT
ATOM      1  C   UNL     1      -4.844  13.165  22.984  0.00  0.00    +0.000 A 
ATOM      2  C   UNL     1      -4.542  14.319  23.725  0.00  0.00    +0.000 A 
ATOM      3  C   UNL     1      -3.248  14.862  23.720  0.00  0.00    +0.000 A 
ATOM      4  C   UNL     1      -2.270  14.245  22.949  0.00  0.00    +0.000 A 
ATOM      5  C   UNL     1      -2.577  13.144  22.150  0.00  0.00    +0.000 A 
ATOM      6  C   UNL     1      -3.851  12.586  22.175  0.00  0.00    +0.000 A 
ATOM      7  C   UNL     1      -1.367  12.740  21.339  0.00  0.00    +0.000 C 
ATOM      8  N   UNL     1      -1.684  12.401  19.927  0.00  0.00    +0.000 NA
ATOM      9  C   UNL     1      -1.212  11.203  19.750  0.00  0.00    +0.000 C 
ATOM     10  N   UNL     1      -1.321  10.590  18.553  0.00  0.00    +0.000 N 
ATOM     11  N   UNL     1      -0.614  10.631  20.816  0.00  0.00    +0.000 N 
ATOM     12  C   UNL     1      -0.026   9.315  20.927  0.00  0.00    +0.000 C 
ATOM     13  C   UNL     1      -0.709  11.477  21.883  0.00  0.00    +0.000 C 
ATOM     14  O   UNL     1      -0.324  11.260  23.021  0.00  0.00    +0.000 OA
ATOM     15  C   UNL     1      -0.452  14.030  21.406  0.00  0.00    +0.000 C 
ATOM     16  C   UNL     1      -0.899  15.109  20.383  0.00  0.00    +0.000 C 
ATOM     17  C   UNL     1      -0.205  15.203  19.030  0.00  0.00    +0.000 C 
ATOM     18  C   UNL     1       1.222  14.682  18.869  0.00  0.00    +0.000 C 
ATOM     19  C   UNL     1       1.602  13.582  19.865  0.00  0.00    +0.000 C 
ATOM     20  C   UNL     1       1.075  13.797  21.287  0.00  0.00    +0.000 C 
ATOM     21  C   UNL     1      -0.812  14.593  22.830  0.00  0.00    +0.000 C 
ATOM     22  H   UNL     1      -1.609  11.235  17.835  0.00  0.00    +0.000 HD
ATOM     23  H   UNL     1      -0.515  10.038  18.282  0.00  0.00    +0.000 HD
ENDROOT
BRANCH  18  24
ATOM     24  O   UNL     1       2.198  15.741  18.922  0.00  0.00    +0.000 OA
ATOM     25  C   UNL     1       1.719  16.993  18.417  0.00  0.00    +0.000 C 
ENDBRANCH  18  24
BRANCH   1  26
ATOM     26  O   UNL     1      -6.053  12.519  22.965  0.00  0.00    +0.000 OA
BRANCH  26  27
ATOM     27  C   UNL     1      -6.905  12.749  21.840  0.00  0.00    +0.000 C 
BRANCH  27  28
ATOM     28  C   UNL     1      -7.856  11.560  21.682  0.00  0.00    +0.000 C 
BRANCH  28  30
ATOM     29  C   UNL     1      -6.860  10.835  19.668  0.00  0.00    +0.000 C 
ATOM     30  O   UNL     1      -7.187  10.491  21.010  0.00  0.00    +0.000 OA
ENDBRANCH  28  30
ENDBRANCH  27  28
ENDBRANCH  26  27
ENDBRANCH   1  26
TORSDOF 5
ENDMDL
MODEL 2
REMARK VINA RESULT:      -5.9      1.302      1.381
REMARK  Name = 
REMARK  8 active torsions:
REMARK  status: ('A' for Active; 'I' for Inactive)
REMARK    1  A    between atoms: C_1  and  O_2
REMARK    2  A    between atoms: O_2  and  C_3
REMARK    3  A    between atoms: C_3  and  C_4
REMARK    4  A    between atoms: C_4  and  O_5
REMARK    5  A    between atoms: O_5  and  C_6
REMARK    6  A    between atoms: N_16  and  C_17
REMARK    7  A    between atoms: C_23  and  O_24
REMARK    8  A    between atoms: O_24  and  C_25
REMARK                            x       y       z     vdW  Elec       q    Type
REMARK                         _______ _______ _______ _____ _____    ______ ____
ROOT
ATOM      1  C   UNL     1      -5.127  12.693  22.448  0.00  0.00    +0.000 A 
ATOM      2  C   UNL     1      -4.921  13.357  23.668  0.00  0.00    +0.000 A 
ATOM      3  C   UNL     1      -3.652  13.847  24.017  0.00  0.00    +0.000 A 
ATOM      4  C   UNL     1      -2.604  13.680  23.121  0.00  0.00    +0.000 A 
ATOM      5  C   UNL     1      -2.815  13.090  21.875  0.00  0.00    +0.000 A 
ATOM      6  C   UNL     1      -4.063  12.577  21.538  0.00  0.00    +0.000 A 
ATOM      7  C   UNL     1      -1.541  13.131  21.062  0.00  0.00    +0.000 C 
ATOM      8  N   UNL     1      -1.756  13.502  19.639  0.00  0.00    +0.000 NA
ATOM      9  C   UNL     1      -1.224  12.538  18.950  0.00  0.00    +0.000 C 
ATOM     10  N   UNL     1      -1.233  12.568  17.601  0.00  0.00    +0.000 N 
ATOM     11  N   UNL     1      -0.668  11.531  19.658  0.00  0.00    +0.000 N 
ATOM     12  C   UNL     1      -0.033  10.327  19.175  0.00  0.00    +0.000 C 
ATOM     13  C   UNL     1      -0.865  11.766  20.988  0.00  0.00    +0.000 C 
ATOM     14  O   UNL     1      -0.541  11.036  21.912  0.00  0.00    +0.000 OA
ATOM     15  C   UNL     1      -0.687  14.241  21.800  0.00  0.00    +0.000 C 
ATOM     16  C   UNL     1      -1.116  15.673  21.381  0.00  0.00    +0.000 C 
ATOM     17  C   UNL     1      -0.345  16.406  20.291  0.00  0.00    +0.000 C 
ATOM     18  C   UNL     1       1.110  16.036  20.008  0.00  0.00    +0.000 C 
ATOM     19  C   UNL     1       1.474  14.598  20.388  0.00  0.00    +0.000 C 
ATOM     20  C   UNL     1       0.853  14.105  21.698  0.00  0.00    +0.000 C 
ATOM     21  C   UNL     1      -1.158  14.055  23.290  0.00  0.00    +0.000 C 
ATOM     22  H   UNL     1      -1.503  13.475  17.256  0.00  0.00    +0.000 HD
ATOM     23  H   UNL     1      -0.389  12.218  17.161  0.00  0.00    +0.000 HD
ENDROOT
BRANCH  18  24
ATOM     24  O   UNL     1       2.035  16.949  20.629  0.00  0.00    +0.000 OA
ATOM     25  C   UNL     1       1.500  18.261  20.836  0.00  0.00    +0.000 C 
ENDBRANCH  18  24
BRANCH   1  26
ATOM     26  O   UNL     1      -6.304  12.124  22.035  0.00  0.00    +0.000 OA
BRANCH  26  27
ATOM     27  C   UNL     1      -6.771  12.453  20.724  0.00  0.00    +0.000 C 
BRANCH  27  28
ATOM     28  C   UNL     1      -7.396  11.208  20.090  0.00  0.00    +0.000 C 
BRANCH  28  30
ATOM     29  C   UNL     1      -7.435   8.860  20.341  0.00  0.00    +0.000 C 
ATOM     30  O   UNL     1      -7.331  10.114  21.007  0.00  0.00    +0.000 OA
ENDBRANCH  28  30
ENDBRANCH  27  28
ENDBRANCH  26  27
ENDBRANCH   1  26
TORSDOF 5
ENDMDL
MODEL 3
REMARK VINA RESULT:      -5.8      1.007      1.033
REMARK  Name = 
REMARK  8 active torsions:
REMARK  status: ('A' for Active; 'I' for Inactive)
REMARK    1  A    between atoms: C_1  and  O_2
REMARK    2  A    between atoms: O_2  and  C_3
REMARK    3  A    between atoms: C_3  and  C_4
REMARK    4  A    between atoms: C_4  and  O_5
REMARK    5  A    between atoms: O_5  and  C_6
REMARK    6  A    between atoms: N_16  and  C_17
REMARK    7  A    between atoms: C_23  and  O_24
REMARK    8  A    between atoms: O_24  and  C_25
REMARK                            x       y       z     vdW  Elec       q    Type
REMARK                         _______ _______ _______ _____ _____    ______ ____
ROOT
ATOM      1  C   UNL     1      -4.156  12.921  23.038  0.00  0.00    +0.000 A 
ATOM      2  C   UNL     1      -3.777  13.862  24.009  0.00  0.00    +0.000 A 
ATOM      3  C   UNL     1      -2.509  14.463  23.975  0.00  0.00    +0.000 A 
ATOM      4  C   UNL     1      -1.638  14.124  22.948  0.00  0.00    +0.000 A 
ATOM      5  C   UNL     1      -2.032  13.248  21.936  0.00  0.00    +0.000 A 
ATOM      6  C   UNL     1      -3.277  12.629  21.981  0.00  0.00    +0.000 A 
ATOM      7  C   UNL     1      -0.942  13.138  20.895  0.00  0.00    +0.000 C 
ATOM      8  N   UNL     1      -1.450  13.155  19.498  0.00  0.00    +0.000 NA
ATOM      9  C   UNL     1      -0.982  12.073  18.951  0.00  0.00    +0.000 C 
ATOM     10  N   UNL     1      -1.247  11.782  17.661  0.00  0.00    +0.000 N 
ATOM     11  N   UNL     1      -0.224  11.282  19.741  0.00  0.00    +0.000 N 
ATOM     12  C   UNL     1       0.402  10.019  19.424  0.00  0.00    +0.000 C 
ATOM     13  C   UNL     1      -0.185  11.818  20.995  0.00  0.00    +0.000 C 
ATOM     14  O   UNL     1       0.364  11.339  21.976  0.00  0.00    +0.000 OA
ATOM     15  C   UNL     1      -0.055  14.419  21.176  0.00  0.00    +0.000 C 
ATOM     16  C   UNL     1      -0.667  15.696  20.540  0.00  0.00    +0.000 C 
ATOM     17  C   UNL     1      -0.177  16.176  19.180  0.00  0.00    +0.000 C 
ATOM     18  C   UNL     1       1.224  15.798  18.701  0.00  0.00    +0.000 C 
ATOM     19  C   UNL     1       1.766  14.504  19.313  0.00  0.00    +0.000 C 
ATOM     20  C   UNL     1       1.444  14.314  20.799  0.00  0.00    +0.000 C 
ATOM     21  C   UNL     1      -0.221  14.575  22.732  0.00  0.00    +0.000 C 
ATOM     22  H   UNL     1      -1.649  12.572  17.182  0.00  0.00    +0.000 HD
ATOM     23  H   UNL     1      -0.476  11.367  17.150  0.00  0.00    +0.000 HD
ENDROOT
BRANCH  18  24
ATOM     24  O   UNL     1       2.173  16.863  18.900  0.00  0.00    +0.000 OA
ATOM     25  C   UNL     1       3.476  16.582  18.375  0.00  0.00    +0.000 C 
ENDBRANCH  18  24
BRANCH   1  26
ATOM     26  O   UNL     1      -5.341  12.232  23.010  0.00  0.00    +0.000 OA
BRANCH  26  27
ATOM     27  C   UNL     1      -6.468  12.883  22.418  0.00  0.00    +0.000 C 
BRANCH  27  28
ATOM     28  C   UNL     1      -6.853  12.146  21.133  0.00  0.00    +0.000 C 
BRANCH  28  30
ATOM     29  C   UNL     1      -7.363  10.007  20.271  0.00  0.00    +0.000 C 
ATOM     30  O   UNL     1      -7.243  10.806  21.443  0.00  0.00    +0.000 OA
ENDBRANCH  28  30
ENDBRANCH  27  28
ENDBRANCH  26  27
ENDBRANCH   1  26
TORSDOF 5
ENDMDL
MODEL 4
REMARK VINA RESULT:      -5.7      2.619      6.251
REMARK  Name = 
REMARK  8 active torsions:
REMARK  status: ('A' for Active; 'I' for Inactive)
REMARK    1  A    between atoms: C_1  and  O_2
REMARK    2  A    between atoms: O_2  and  C_3
REMARK    3  A    between atoms: C_3  and  C_4
REMARK    4  A    between atoms: C_4  and  O_5
REMARK    5  A    between atoms: O_5  and  C_6
REMARK    6  A    between atoms: N_16  and  C_17
REMARK    7  A    between atoms: C_23  and  O_24
REMARK    8  A    between atoms: O_24  and  C_25
REMARK                            x       y       z     vdW  Elec       q    Type
REMARK                         _______ _______ _______ _____ _____    ______ ____
ROOT
ATOM      1  C   UNL     1       0.594   9.515  20.916  0.00  0.00    +0.000 A 
ATOM      2  C   UNL     1       0.032   9.046  22.114  0.00  0.00    +0.000 A 
ATOM      3  C   UNL     1      -0.681   9.908  22.962  0.00  0.00    +0.000 A 
ATOM      4  C   UNL     1      -0.840  11.235  22.584  0.00  0.00    +0.000 A 
ATOM      5  C   UNL     1      -0.351  11.692  21.360  0.00  0.00    +0.000 A 
ATOM      6  C   UNL     1       0.381  10.849  20.531  0.00  0.00    +0.000 A 
ATOM      7  C   UNL     1      -0.752  13.135  21.151  0.00  0.00    +0.000 C 
ATOM      8  N   UNL     1      -1.215  13.430  19.770  0.00  0.00    +0.000 NA
ATOM      9  C   UNL     1      -0.466  14.409  19.360  0.00  0.00    +0.000 C 
ATOM     10  N   UNL     1      -0.634  14.937  18.130  0.00  0.00    +0.000 N 
ATOM     11  N   UNL     1       0.465  14.856  20.230  0.00  0.00    +0.000 N 
ATOM     12  C   UNL     1       1.447  15.901  20.049  0.00  0.00    +0.000 C 
ATOM     13  C   UNL     1       0.419  14.090  21.359  0.00  0.00    +0.000 C 
ATOM     14  O   UNL     1       1.154  14.179  22.330  0.00  0.00    +0.000 OA
ATOM     15  C   UNL     1      -1.936  13.325  22.184  0.00  0.00    +0.000 C 
ATOM     16  C   UNL     1      -3.278  12.771  21.632  0.00  0.00    +0.000 C 
ATOM     17  C   UNL     1      -4.270  13.716  20.966  0.00  0.00    +0.000 C 
ATOM     18  C   UNL     1      -4.255  15.203  21.313  0.00  0.00    +0.000 C 
ATOM     19  C   UNL     1      -2.898  15.717  21.802  0.00  0.00    +0.000 C 
ATOM     20  C   UNL     1      -2.148  14.758  22.732  0.00  0.00    +0.000 C 
ATOM     21  C   UNL     1      -1.498  12.354  23.341  0.00  0.00    +0.000 C 
ATOM     22  H   UNL     1      -1.492  14.620  17.709  0.00  0.00    +0.000 HD
ATOM     23  H   UNL     1      -0.523  15.944  18.080  0.00  0.00    +0.000 HD
ENDROOT
BRANCH  18  24
ATOM     24  O   UNL     1      -5.277  15.550  22.267  0.00  0.00    +0.000 OA
ATOM     25  C   UNL     1      -6.427  14.698  22.217  0.00  0.00    +0.000 C 
ENDBRANCH  18  24
BRANCH   1  26
ATOM     26  O   UNL     1       1.358   8.778  20.047  0.00  0.00    +0.000 OA
BRANCH  26  27
ATOM     27  C   UNL     1       1.559   9.308  18.735  0.00  0.00    +0.000 C 
BRANCH  27  28
ATOM     28  C   UNL     1       2.133   8.210  17.835  0.00  0.00    +0.000 C 
BRANCH  28  30
ATOM     29  C   UNL     1       2.559   5.919  18.217  0.00  0.00    +0.000 C 
ATOM     30  O   UNL     1       2.836   7.253  18.630  0.00  0.00    +0.000 OA
ENDBRANCH  28  30
ENDBRANCH  27  28
ENDBRANCH  26  27
ENDBRANCH   1  26
TORSDOF 5
ENDMDL
MODEL 5
REMARK VINA RESULT:      -5.7      9.029     12.309
REMARK  Name = 
REMARK  8 active torsions:
REMARK  status: ('A' for Active; 'I' for Inactive)
REMARK    1  A    between atoms: C_1  and  O_2
REMARK    2  A    between atoms: O_2  and  C_3
REMARK    3  A    between atoms: C_3  and  C_4
REMARK    4  A    between atoms: C_4  and  O_5
REMARK    5  A    between atoms: O_5  and  C_6
REMARK    6  A    between atoms: N_16  and  C_17
REMARK    7  A    between atoms: C_23  and  O_24
REMARK    8  A    between atoms: O_24  and  C_25
REMARK                            x       y       z     vdW  Elec       q    Type
REMARK                         _______ _______ _______ _____ _____    ______ ____
ROOT
ATOM      1  C   UNL     1       9.595  10.843  18.500  0.00  0.00    +0.000 A 
ATOM      2  C   UNL     1      10.749  11.185  17.777  0.00  0.00    +0.000 A 
ATOM      3  C   UNL     1      11.139  12.526  17.632  0.00  0.00    +0.000 A 
ATOM      4  C   UNL     1      10.371  13.512  18.238  0.00  0.00    +0.000 A 
ATOM      5  C   UNL     1       9.267  13.178  19.022  0.00  0.00    +0.000 A 
ATOM      6  C   UNL     1       8.860  11.853  19.143  0.00  0.00    +0.000 A 
ATOM      7  C   UNL     1       8.680  14.424  19.646  0.00  0.00    +0.000 C 
ATOM      8  N   UNL     1       8.296  14.251  21.071  0.00  0.00    +0.000 NA
ATOM      9  C   UNL     1       7.044  14.593  21.132  0.00  0.00    +0.000 C 
ATOM     10  N   UNL     1       6.378  14.564  22.304  0.00  0.00    +0.000 N 
ATOM     11  N   UNL     1       6.471  14.977  19.971  0.00  0.00    +0.000 N 
ATOM     12  C   UNL     1       5.106  15.382  19.725  0.00  0.00    +0.000 C 
ATOM     13  C   UNL     1       7.384  14.850  18.964  0.00  0.00    +0.000 C 
ATOM     14  O   UNL     1       7.192  15.058  17.776  0.00  0.00    +0.000 OA
ATOM     15  C   UNL     1       9.858  15.472  19.514  0.00  0.00    +0.000 C 
ATOM     16  C   UNL     1      10.919  15.294  20.634  0.00  0.00    +0.000 C 
ATOM     17  C   UNL     1      10.853  16.160  21.885  0.00  0.00    +0.000 C 
ATOM     18  C   UNL     1      10.164  17.522  21.831  0.00  0.00    +0.000 C 
ATOM     19  C   UNL     1       9.089  17.636  20.746  0.00  0.00    +0.000 C 
ATOM     20  C   UNL     1       9.446  16.962  19.418  0.00  0.00    +0.000 C 
ATOM     21  C   UNL     1      10.542  15.005  18.177  0.00  0.00    +0.000 C 
ATOM     22  H   UNL     1       7.008  14.450  23.082  0.00  0.00    +0.000 HD
ATOM     23  H   UNL     1       5.722  15.325  22.441  0.00  0.00    +0.000 HD
ENDROOT
BRANCH  18  24
ATOM     24  O   UNL     1      11.105  18.604  21.694  0.00  0.00    +0.000 OA
ATOM     25  C   UNL     1      12.107  18.631  22.718  0.00  0.00    +0.000 C 
ENDBRANCH  18  24
BRANCH   1  26
ATOM     26  O   UNL     1       9.092   9.577  18.652  0.00  0.00    +0.000 OA
BRANCH  26  27
ATOM     27  C   UNL     1       8.057   9.167  17.755  0.00  0.00    +0.000 C 
BRANCH  27  28
ATOM     28  C   UNL     1       7.816   7.665  17.922  0.00  0.00    +0.000 C 
BRANCH  28  30
ATOM     29  C   UNL     1       7.025   5.796  16.714  0.00  0.00    +0.000 C 
ATOM     30  O   UNL     1       7.696   7.049  16.638  0.00  0.00    +0.000 OA
ENDBRANCH  28  30
ENDBRANCH  27  28
ENDBRANCH  26  27
ENDBRANCH   1  26
TORSDOF 5
ENDMDL
MODEL 6
REMARK VINA RESULT:      -5.7      0.947      1.010
REMARK  Name = 
REMARK  8 active torsions:
REMARK  status: ('A' for Active; 'I' for Inactive)
REMARK    1  A    between atoms: C_1  and  O_2
REMARK    2  A    between atoms: O_2  and  C_3
REMARK    3  A    between atoms: C_3  and  C_4
REMARK    4  A    between atoms: C_4  and  O_5
REMARK    5  A    between atoms: O_5  and  C_6
REMARK    6  A    between atoms: N_16  and  C_17
REMARK    7  A    between atoms: C_23  and  O_24
REMARK    8  A    between atoms: O_24  and  C_25
REMARK                            x       y       z     vdW  Elec       q    Type
REMARK                         _______ _______ _______ _____ _____    ______ ____
ROOT
ATOM      1  C   UNL     1      -4.916  12.844  21.974  0.00  0.00    +0.000 A 
ATOM      2  C   UNL     1      -4.889  14.019  22.743  0.00  0.00    +0.000 A 
ATOM      3  C   UNL     1      -3.692  14.727  22.937  0.00  0.00    +0.000 A 
ATOM      4  C   UNL     1      -2.533  14.254  22.334  0.00  0.00    +0.000 A 
ATOM      5  C   UNL     1      -2.564  13.131  21.507  0.00  0.00    +0.000 A 
ATOM      6  C   UNL     1      -3.742  12.411  21.336  0.00  0.00    +0.000 A 
ATOM      7  C   UNL     1      -1.199  12.900  20.900  0.00  0.00    +0.000 C 
ATOM      8  N   UNL     1      -1.243  12.539  19.459  0.00  0.00    +0.000 NA
ATOM      9  C   UNL     1      -0.596  11.416  19.368  0.00  0.00    +0.000 C 
ATOM     10  N   UNL     1      -0.434  10.808  18.175  0.00  0.00    +0.000 N 
ATOM     11  N   UNL     1      -0.102  10.914  20.521  0.00  0.00    +0.000 N 
ATOM     12  C   UNL     1       0.629   9.685  20.734  0.00  0.00    +0.000 C 
ATOM     13  C   UNL     1      -0.474  11.727  21.552  0.00  0.00    +0.000 C 
ATOM     14  O   UNL     1      -0.247  11.548  22.738  0.00  0.00    +0.000 OA
ATOM     15  C   UNL     1      -0.483  14.297  21.099  0.00  0.00    +0.000 C 
ATOM     16  C   UNL     1      -0.902  15.320  20.008  0.00  0.00    +0.000 C 
ATOM     17  C   UNL     1      -0.023  15.522  18.781  0.00  0.00    +0.000 C 
ATOM     18  C   UNL     1       1.468  15.194  18.851  0.00  0.00    +0.000 C 
ATOM     19  C   UNL     1       1.828  14.142  19.903  0.00  0.00    +0.000 C 
ATOM     20  C   UNL     1       1.061  14.268  21.223  0.00  0.00    +0.000 C 
ATOM     21  C   UNL     1      -1.133  14.791  22.443  0.00  0.00    +0.000 C 
ATOM     22  H   UNL     1      -0.688  11.418  17.415  0.00  0.00    +0.000 HD
ATOM     23  H   UNL     1       0.470  10.369  18.039  0.00  0.00    +0.000 HD
ENDROOT
BRANCH  18  24
ATOM     24  O   UNL     1       2.275  16.371  19.047  0.00  0.00    +0.000 OA
ATOM     25  C   UNL     1       3.264  16.570  18.030  0.00  0.00    +0.000 C 
ENDBRANCH  18  24
BRANCH   1  26
ATOM     26  O   UNL     1      -6.012  12.046  21.771  0.00  0.00    +0.000 OA
BRANCH  26  27
ATOM     27  C   UNL     1      -6.609  12.064  20.471  0.00  0.00    +0.000 C 
BRANCH  27  28
ATOM     28  C   UNL     1      -7.217  10.690  20.182  0.00  0.00    +0.000 C 
BRANCH  28  30
ATOM     29  C   UNL     1      -5.818  11.046  18.313  0.00  0.00    +0.000 C 
ATOM     30  O   UNL     1      -6.904  10.295  18.844  0.00  0.00    +0.000 OA
ENDBRANCH  28  30
ENDBRANCH  27  28
ENDBRANCH  26  27
ENDBRANCH   1  26
TORSDOF 5
ENDMDL
MODEL 7
REMARK VINA RESULT:      -5.6      3.102      6.381
REMARK  Name = 
REMARK  8 active torsions:
REMARK  status: ('A' for Active; 'I' for Inactive)
REMARK    1  A    between atoms: C_1  and  O_2
REMARK    2  A    between atoms: O_2  and  C_3
REMARK    3  A    between atoms: C_3  and  C_4
REMARK    4  A    between atoms: C_4  and  O_5
REMARK    5  A    between atoms: O_5  and  C_6
REMARK    6  A    between atoms: N_16  and  C_17
REMARK    7  A    between atoms: C_23  and  O_24
REMARK    8  A    between atoms: O_24  and  C_25
REMARK                            x       y       z     vdW  Elec       q    Type
REMARK                         _______ _______ _______ _____ _____    ______ ____
ROOT
ATOM      1  C   UNL     1       1.446   8.188  20.059  0.00  0.00    +0.000 A 
ATOM      2  C   UNL     1       2.160   8.288  18.854  0.00  0.00    +0.000 A 
ATOM      3  C   UNL     1       2.146   9.474  18.103  0.00  0.00    +0.000 A 
ATOM      4  C   UNL     1       1.428  10.560  18.586  0.00  0.00    +0.000 A 
ATOM      5  C   UNL     1       0.778  10.496  19.819  0.00  0.00    +0.000 A 
ATOM      6  C   UNL     1       0.765   9.314  20.551  0.00  0.00    +0.000 A 
ATOM      7  C   UNL     1       0.169  11.839  20.151  0.00  0.00    +0.000 C 
ATOM      8  N   UNL     1       0.358  12.244  21.569  0.00  0.00    +0.000 NA
ATOM      9  C   UNL     1      -0.837  12.483  22.018  0.00  0.00    +0.000 C 
ATOM     10  N   UNL     1      -1.026  12.892  23.290  0.00  0.00    +0.000 N 
ATOM     11  N   UNL     1      -1.852  12.306  21.145  0.00  0.00    +0.000 N 
ATOM     12  C   UNL     1      -3.272  12.467  21.362  0.00  0.00    +0.000 C 
ATOM     13  C   UNL     1      -1.345  11.844  19.966  0.00  0.00    +0.000 C 
ATOM     14  O   UNL     1      -1.982  11.525  18.974  0.00  0.00    +0.000 OA
ATOM     15  C   UNL     1       0.944  12.827  19.186  0.00  0.00    +0.000 C 
ATOM     16  C   UNL     1       2.338  13.210  19.751  0.00  0.00    +0.000 C 
ATOM     17  C   UNL     1       2.510  14.510  20.527  0.00  0.00    +0.000 C 
ATOM     18  C   UNL     1       1.544  15.669  20.292  0.00  0.00    +0.000 C 
ATOM     19  C   UNL     1       0.164  15.240  19.785  0.00  0.00    +0.000 C 
ATOM     20  C   UNL     1       0.184  14.106  18.756  0.00  0.00    +0.000 C 
ATOM     21  C   UNL     1       1.209  11.901  17.943  0.00  0.00    +0.000 C 
ATOM     22  H   UNL     1      -0.157  13.159  23.722  0.00  0.00    +0.000 HD
ATOM     23  H   UNL     1      -1.753  13.588  23.411  0.00  0.00    +0.000 HD
ENDROOT
BRANCH  18  24
ATOM     24  O   UNL     1       2.095  16.666  19.410  0.00  0.00    +0.000 OA
ATOM     25  C   UNL     1       3.521  16.781  19.486  0.00  0.00    +0.000 C 
ENDBRANCH  18  24
BRANCH   1  26
ATOM     26  O   UNL     1       1.341   7.064  20.837  0.00  0.00    +0.000 OA
BRANCH  26  27
ATOM     27  C   UNL     1       2.093   5.915  20.439  0.00  0.00    +0.000 C 
BRANCH  27  28
ATOM     28  C   UNL     1       1.207   4.673  20.558  0.00  0.00    +0.000 C 
BRANCH  28  30
ATOM     29  C   UNL     1       2.055   4.555  18.357  0.00  0.00    +0.000 C 
ATOM     30  O   UNL     1       1.133   4.010  19.294  0.00  0.00    +0.000 OA
ENDBRANCH  28  30
ENDBRANCH  27  28
ENDBRANCH  26  27
ENDBRANCH   1  26
TORSDOF 5
ENDMDL
MODEL 8
REMARK VINA RESULT:      -5.5      2.694      6.623
REMARK  Name = 
REMARK  8 active torsions:
REMARK  status: ('A' for Active; 'I' for Inactive)
REMARK    1  A    between atoms: C_1  and  O_2
REMARK    2  A    between atoms: O_2  and  C_3
REMARK    3  A    between atoms: C_3  and  C_4
REMARK    4  A    between atoms: C_4  and  O_5
REMARK    5  A    between atoms: O_5  and  C_6
REMARK    6  A    between atoms: N_16  and  C_17
REMARK    7  A    between atoms: C_23  and  O_24
REMARK    8  A    between atoms: O_24  and  C_25
REMARK                            x       y       z     vdW  Elec       q    Type
REMARK                         _______ _______ _______ _____ _____    ______ ____
ROOT
ATOM      1  C   UNL     1       0.950  10.507  19.659  0.00  0.00    +0.000 A 
ATOM      2  C   UNL     1       0.586   9.572  20.642  0.00  0.00    +0.000 A 
ATOM      3  C   UNL     1      -0.140   9.964  21.777  0.00  0.00    +0.000 A 
ATOM      4  C   UNL     1      -0.512  11.297  21.902  0.00  0.00    +0.000 A 
ATOM      5  C   UNL     1      -0.221  12.218  20.896  0.00  0.00    +0.000 A 
ATOM      6  C   UNL     1       0.523  11.839  19.784  0.00  0.00    +0.000 A 
ATOM      7  C   UNL     1      -0.829  13.560  21.235  0.00  0.00    +0.000 C 
ATOM      8  N   UNL     1      -1.472  14.231  20.074  0.00  0.00    +0.000 NA
ATOM      9  C   UNL     1      -0.906  15.399  19.999  0.00  0.00    +0.000 C 
ATOM     10  N   UNL     1      -1.273  16.282  19.047  0.00  0.00    +0.000 N 
ATOM     11  N   UNL     1       0.045  15.665  20.920  0.00  0.00    +0.000 N 
ATOM     12  C   UNL     1       0.855  16.852  21.068  0.00  0.00    +0.000 C 
ATOM     13  C   UNL     1       0.221  14.562  21.704  0.00  0.00    +0.000 C 
ATOM     14  O   UNL     1       1.038  14.430  22.602  0.00  0.00    +0.000 OA
ATOM     15  C   UNL     1      -1.911  13.192  22.330  0.00  0.00    +0.000 C 
ATOM     16  C   UNL     1      -3.219  12.652  21.690  0.00  0.00    +0.000 C 
ATOM     17  C   UNL     1      -4.393  13.594  21.456  0.00  0.00    +0.000 C 
ATOM     18  C   UNL     1      -4.537  14.855  22.307  0.00  0.00    +0.000 C 
ATOM     19  C   UNL     1      -3.215  15.382  22.873  0.00  0.00    +0.000 C 
ATOM     20  C   UNL     1      -2.251  14.297  23.360  0.00  0.00    +0.000 C 
ATOM     21  C   UNL     1      -1.227  11.967  23.042  0.00  0.00    +0.000 C 
ATOM     22  H   UNL     1      -2.122  15.994  18.588  0.00  0.00    +0.000 HD
ATOM     23  H   UNL     1      -1.302  17.249  19.351  0.00  0.00    +0.000 HD
ENDROOT
BRANCH  18  24
ATOM     24  O   UNL     1      -5.488  14.685  23.376  0.00  0.00    +0.000 OA
ATOM     25  C   UNL     1      -6.423  13.623  23.153  0.00  0.00    +0.000 C 
ENDBRANCH  18  24
BRANCH   1  26
ATOM     26  O   UNL     1       1.707  10.245  18.546  0.00  0.00    +0.000 OA
BRANCH  26  27
ATOM     27  C   UNL     1       1.426   9.042  17.826  0.00  0.00    +0.000 C 
BRANCH  27  28
ATOM     28  C   UNL     1       2.670   8.151  17.836  0.00  0.00    +0.000 C 
BRANCH  28  30
ATOM     29  C   UNL     1       2.589   5.865  18.419  0.00  0.00    +0.000 C 
ATOM     30  O   UNL     1       2.578   7.203  18.901  0.00  0.00    +0.000 OA
ENDBRANCH  28  30
ENDBRANCH  27  28
ENDBRANCH  26  27
ENDBRANCH   1  26
TORSDOF 5
ENDMDL
MODEL 9
REMARK VINA RESULT:      -5.5      1.160      1.480
REMARK  Name = 
REMARK  8 active torsions:
REMARK  status: ('A' for Active; 'I' for Inactive)
REMARK    1  A    between atoms: C_1  and  O_2
REMARK    2  A    between atoms: O_2  and  C_3
REMARK    3  A    between atoms: C_3  and  C_4
REMARK    4  A    between atoms: C_4  and  O_5
REMARK    5  A    between atoms: O_5  and  C_6
REMARK    6  A    between atoms: N_16  and  C_17
REMARK    7  A    between atoms: C_23  and  O_24
REMARK    8  A    between atoms: O_24  and  C_25
REMARK                            x       y       z     vdW  Elec       q    Type
REMARK                         _______ _______ _______ _____ _____    ______ ____
ROOT
ATOM      1  C   UNL     1      -4.765  13.106  21.406  0.00  0.00    +0.000 A 
ATOM      2  C   UNL     1      -4.704  14.312  22.124  0.00  0.00    +0.000 A 
ATOM      3  C   UNL     1      -3.470  14.906  22.433  0.00  0.00    +0.000 A 
ATOM      4  C   UNL     1      -2.305  14.288  21.996  0.00  0.00    +0.000 A 
ATOM      5  C   UNL     1      -2.358  13.132  21.218  0.00  0.00    +0.000 A 
ATOM      6  C   UNL     1      -3.577  12.524  20.935  0.00  0.00    +0.000 A 
ATOM      7  C   UNL     1      -0.964  12.733  20.791  0.00  0.00    +0.000 C 
ATOM      8  N   UNL     1      -0.877  12.302  19.371  0.00  0.00    +0.000 NA
ATOM      9  C   UNL     1      -0.345  11.117  19.406  0.00  0.00    +0.000 C 
ATOM     10  N   UNL     1      -0.110  10.433  18.267  0.00  0.00    +0.000 N 
ATOM     11  N   UNL     1      -0.045  10.630  20.630  0.00  0.00    +0.000 N 
ATOM     12  C   UNL     1       0.522   9.348  20.980  0.00  0.00    +0.000 C 
ATOM     13  C   UNL     1      -0.447  11.530  21.574  0.00  0.00    +0.000 C 
ATOM     14  O   UNL     1      -0.380  11.393  22.785  0.00  0.00    +0.000 OA
ATOM     15  C   UNL     1      -0.132  14.061  21.018  0.00  0.00    +0.000 C 
ATOM     16  C   UNL     1      -0.310  15.061  19.844  0.00  0.00    +0.000 C 
ATOM     17  C   UNL     1       0.722  15.108  18.725  0.00  0.00    +0.000 C 
ATOM     18  C   UNL     1       2.152  14.637  18.989  0.00  0.00    +0.000 C 
ATOM     19  C   UNL     1       2.273  13.612  20.120  0.00  0.00    +0.000 C 
ATOM     20  C   UNL     1       1.375  13.884  21.330  0.00  0.00    +0.000 C 
ATOM     21  C   UNL     1      -0.879  14.688  22.252  0.00  0.00    +0.000 C 
ATOM     22  H   UNL     1      -0.208  11.024  17.458  0.00  0.00    +0.000 HD
ATOM     23  H   UNL     1       0.753   9.900  18.260  0.00  0.00    +0.000 HD
ENDROOT
BRANCH  18  24
ATOM     24  O   UNL     1       3.050  15.737  19.233  0.00  0.00    +0.000 OA
ATOM     25  C   UNL     1       2.976  16.773  18.248  0.00  0.00    +0.000 C 
ENDBRANCH  18  24
BRANCH   1  26
ATOM     26  O   UNL     1      -5.908  12.411  21.104  0.00  0.00    +0.000 OA
BRANCH  26  27
ATOM     27  C   UNL     1      -7.138  12.897  21.649  0.00  0.00    +0.000 C 
BRANCH  27  28
ATOM     28  C   UNL     1      -7.853  11.751  22.368  0.00  0.00    +0.000 C 
BRANCH  28  30
ATOM     29  C   UNL     1      -7.472  13.115  24.257  0.00  0.00    +0.000 C 
ATOM     30  O   UNL     1      -7.537  11.783  23.761  0.00  0.00    +0.000 OA
ENDBRANCH  28  30
ENDBRANCH  27  28
ENDBRANCH  26  27
ENDBRANCH   1  26
TORSDOF 5
ENDMDL
