MODEL 1
REMARK VINA RESULT:      -7.6      0.000      0.000
REMARK  Name = 
REMARK  10 active torsions:
REMARK  status: ('A' for Active; 'I' for Inactive)
REMARK    1  A    between atoms: C_1  and  C_2
REMARK    2  A    between atoms: C_2  and  N_3
REMARK    3  A    between atoms: N_3  and  C_4
REMARK    4  A    between atoms: N_3  and  S_6
REMARK    5  A    between atoms: C_4  and  C_5
REMARK    6  A    between atoms: S_6  and  C_9
REMARK    7  A    between atoms: C_11  and  C_12
REMARK    8  A    between atoms: N_14  and  C_15
REMARK    9  A    between atoms: C_20  and  C_21
REMARK   10  A    between atoms: C_21  and  O_23
REMARK                            x       y       z     vdW  Elec       q    Type
REMARK                         _______ _______ _______ _____ _____    ______ ____
ROOT
ATOM      1  C   UNL     1       3.772   5.386  18.259  0.00  0.00    +0.000 A 
ATOM      2  C   UNL     1       2.890   5.992  19.160  0.00  0.00    +0.000 A 
ATOM      3  C   UNL     1       2.507   7.340  19.004  0.00  0.00    +0.000 A 
ATOM      4  C   UNL     1       3.038   8.075  17.937  0.00  0.00    +0.000 A 
ATOM      5  C   UNL     1       3.922   7.458  17.040  0.00  0.00    +0.000 A 
ATOM      6  C   UNL     1       4.287   6.121  17.203  0.00  0.00    +0.000 A 
ATOM      7  F   UNL     1       5.134   5.592  16.313  0.00  0.00    +0.000 F 
ENDROOT
BRANCH   3   8
ATOM      8  C   UNL     1       1.598   7.915  20.043  0.00  0.00    +0.000 C 
ATOM      9  O   UNL     1       1.294   7.168  20.972  0.00  0.00    +0.000 OA
ATOM     10  N   UNL     1       1.137   9.215  19.895  0.00  0.00    +0.000 N 
ATOM     11  H   UNL     1       1.162   9.639  18.969  0.00  0.00    +0.000 HD
BRANCH  10  12
ATOM     12  C   UNL     1       0.363   9.926  20.867  0.00  0.00    +0.000 A 
ATOM     13  C   UNL     1       0.268   9.472  22.192  0.00  0.00    +0.000 A 
ATOM     14  C   UNL     1      -0.537  10.112  23.133  0.00  0.00    +0.000 A 
ATOM     15  C   UNL     1      -1.266  11.237  22.776  0.00  0.00    +0.000 A 
ATOM     16  C   UNL     1      -1.159  11.741  21.482  0.00  0.00    +0.000 A 
ATOM     17  C   UNL     1      -0.319  11.117  20.535  0.00  0.00    +0.000 A 
BRANCH  17  18
ATOM     18  C   UNL     1      -0.193  11.706  19.178  0.00  0.00    +0.000 C 
ATOM     19  O   UNL     1       0.125  12.869  18.987  0.00  0.00    +0.000 OA
BRANCH  18  20
ATOM     20  O   UNL     1      -0.536  10.870  18.173  0.00  0.00    +0.000 OA
ATOM     21  H   UNL     1       0.055  10.876  17.397  0.00  0.00    +0.000 HD
ENDBRANCH  18  20
ENDBRANCH  17  18
ENDBRANCH  10  12
ENDBRANCH   3   8
BRANCH   1  22
ATOM     22  S   UNL     1       4.265   3.713  18.539  0.00  0.00    +0.000 S 
ATOM     23  O   UNL     1       5.403   3.758  19.434  0.00  0.00    +0.000 OA
ATOM     24  O   UNL     1       4.346   3.011  17.276  0.00  0.00    +0.000 OA
BRANCH  22  25
ATOM     25  N   UNL     1       2.935   3.035  19.403  0.00  0.00    +0.000 NA
BRANCH  25  27
ATOM     26  C   UNL     1       0.630   2.304  18.715  0.00  0.00    +0.000 C 
ATOM     27  C   UNL     1       2.128   2.056  18.614  0.00  0.00    +0.000 C 
ENDBRANCH  25  27
BRANCH  25  28
ATOM     28  C   UNL     1       3.286   2.596  20.791  0.00  0.00    +0.000 C 
ATOM     29  C   UNL     1       2.281   3.032  21.847  0.00  0.00    +0.000 C 
ENDBRANCH  25  28
ENDBRANCH  22  25
ENDBRANCH   1  22
TORSDOF 8
ENDMDL
MODEL 2
REMARK VINA RESULT:      -7.6      3.333      8.298
REMARK  Name = 
REMARK  10 active torsions:
REMARK  status: ('A' for Active; 'I' for Inactive)
REMARK    1  A    between atoms: C_1  and  C_2
REMARK    2  A    between atoms: C_2  and  N_3
REMARK    3  A    between atoms: N_3  and  C_4
REMARK    4  A    between atoms: N_3  and  S_6
REMARK    5  A    between atoms: C_4  and  C_5
REMARK    6  A    between atoms: S_6  and  C_9
REMARK    7  A    between atoms: C_11  and  C_12
REMARK    8  A    between atoms: N_14  and  C_15
REMARK    9  A    between atoms: C_20  and  C_21
REMARK   10  A    between atoms: C_21  and  O_23
REMARK                            x       y       z     vdW  Elec       q    Type
REMARK                         _______ _______ _______ _____ _____    ______ ____
ROOT
ATOM      1  C   UNL     1       1.344   8.951  19.739  0.00  0.00    +0.000 A 
ATOM      2  C   UNL     1       2.168   8.106  18.987  0.00  0.00    +0.000 A 
ATOM      3  C   UNL     1       2.425   6.785  19.405  0.00  0.00    +0.000 A 
ATOM      4  C   UNL     1       1.853   6.330  20.598  0.00  0.00    +0.000 A 
ATOM      5  C   UNL     1       1.030   7.184  21.346  0.00  0.00    +0.000 A 
ATOM      6  C   UNL     1       0.779   8.489  20.916  0.00  0.00    +0.000 A 
ATOM      7  F   UNL     1      -0.016   9.253  21.675  0.00  0.00    +0.000 F 
ENDROOT
BRANCH   3   8
ATOM      8  C   UNL     1       3.355   5.973  18.561  0.00  0.00    +0.000 C 
ATOM      9  O   UNL     1       3.076   4.782  18.438  0.00  0.00    +0.000 OA
ATOM     10  N   UNL     1       4.468   6.583  18.001  0.00  0.00    +0.000 N 
ATOM     11  H   UNL     1       4.801   7.457  18.405  0.00  0.00    +0.000 HD
BRANCH  10  12
ATOM     12  C   UNL     1       5.371   5.957  17.082  0.00  0.00    +0.000 A 
ATOM     13  C   UNL     1       5.053   5.843  15.719  0.00  0.00    +0.000 A 
ATOM     14  C   UNL     1       5.888   5.176  14.824  0.00  0.00    +0.000 A 
ATOM     15  C   UNL     1       7.074   4.609  15.266  0.00  0.00    +0.000 A 
ATOM     16  C   UNL     1       7.441   4.744  16.604  0.00  0.00    +0.000 A 
ATOM     17  C   UNL     1       6.617   5.449  17.507  0.00  0.00    +0.000 A 
BRANCH  17  18
ATOM     18  C   UNL     1       7.059   5.613  18.915  0.00  0.00    +0.000 C 
ATOM     19  O   UNL     1       6.479   5.096  19.856  0.00  0.00    +0.000 OA
BRANCH  18  20
ATOM     20  O   UNL     1       8.110   6.448  19.077  0.00  0.00    +0.000 OA
ATOM     21  H   UNL     1       8.781   6.425  18.370  0.00  0.00    +0.000 HD
ENDBRANCH  18  20
ENDBRANCH  17  18
ENDBRANCH  10  12
ENDBRANCH   3   8
BRANCH   1  22
ATOM     22  S   UNL     1       1.107  10.617  19.201  0.00  0.00    +0.000 S 
ATOM     23  O   UNL     1       1.791  10.746  17.931  0.00  0.00    +0.000 OA
ATOM     24  O   UNL     1       1.393  11.526  20.290  0.00  0.00    +0.000 OA
BRANCH  22  25
ATOM     25  N   UNL     1      -0.590  10.712  18.903  0.00  0.00    +0.000 NA
BRANCH  25  27
ATOM     26  C   UNL     1      -0.724  13.113  18.170  0.00  0.00    +0.000 C 
ATOM     27  C   UNL     1      -1.183  12.058  19.166  0.00  0.00    +0.000 C 
ENDBRANCH  25  27
BRANCH  25  28
ATOM     28  C   UNL     1      -1.007  10.076  17.613  0.00  0.00    +0.000 C 
ATOM     29  C   UNL     1      -2.510   9.883  17.480  0.00  0.00    +0.000 C 
ENDBRANCH  25  28
ENDBRANCH  22  25
ENDBRANCH   1  22
TORSDOF 8
ENDMDL
MODEL 3
REMARK VINA RESULT:      -7.6      2.652      4.035
REMARK  Name = 
REMARK  10 active torsions:
REMARK  status: ('A' for Active; 'I' for Inactive)
REMARK    1  A    between atoms: C_1  and  C_2
REMARK    2  A    between atoms: C_2  and  N_3
REMARK    3  A    between atoms: N_3  and  C_4
REMARK    4  A    between atoms: N_3  and  S_6
REMARK    5  A    between atoms: C_4  and  C_5
REMARK    6  A    between atoms: S_6  and  C_9
REMARK    7  A    between atoms: C_11  and  C_12
REMARK    8  A    between atoms: N_14  and  C_15
REMARK    9  A    between atoms: C_20  and  C_21
REMARK   10  A    between atoms: C_21  and  O_23
REMARK                            x       y       z     vdW  Elec       q    Type
REMARK                         _______ _______ _______ _____ _____    ______ ____
ROOT
ATOM      1  C   UNL     1       4.734   5.059  17.233  0.00  0.00    +0.000 A 
ATOM      2  C   UNL     1       3.947   5.822  18.104  0.00  0.00    +0.000 A 
ATOM      3  C   UNL     1       2.893   5.234  18.831  0.00  0.00    +0.000 A 
ATOM      4  C   UNL     1       2.630   3.870  18.658  0.00  0.00    +0.000 A 
ATOM      5  C   UNL     1       3.422   3.114  17.782  0.00  0.00    +0.000 A 
ATOM      6  C   UNL     1       4.468   3.709  17.073  0.00  0.00    +0.000 A 
ATOM      7  F   UNL     1       5.187   2.933  16.253  0.00  0.00    +0.000 F 
ENDROOT
BRANCH   3   8
ATOM      8  C   UNL     1       2.078   6.137  19.701  0.00  0.00    +0.000 C 
ATOM      9  O   UNL     1       1.421   5.592  20.586  0.00  0.00    +0.000 OA
ATOM     10  N   UNL     1       2.084   7.502  19.453  0.00  0.00    +0.000 N 
ATOM     11  H   UNL     1       2.375   7.830  18.532  0.00  0.00    +0.000 HD
BRANCH  10  12
ATOM     12  C   UNL     1       1.449   8.488  20.274  0.00  0.00    +0.000 A 
ATOM     13  C   UNL     1       1.452   8.376  21.674  0.00  0.00    +0.000 A 
ATOM     14  C   UNL     1       0.779   9.288  22.486  0.00  0.00    +0.000 A 
ATOM     15  C   UNL     1       0.089  10.349  21.918  0.00  0.00    +0.000 A 
ATOM     16  C   UNL     1       0.103  10.516  20.535  0.00  0.00    +0.000 A 
ATOM     17  C   UNL     1       0.812   9.615  19.711  0.00  0.00    +0.000 A 
BRANCH  17  18
ATOM     18  C   UNL     1       0.846   9.846  18.245  0.00  0.00    +0.000 C 
ATOM     19  O   UNL     1       1.848   9.673  17.569  0.00  0.00    +0.000 OA
BRANCH  18  20
ATOM     20  O   UNL     1      -0.303  10.341  17.731  0.00  0.00    +0.000 OA
ATOM     21  H   UNL     1      -0.484  10.109  16.801  0.00  0.00    +0.000 HD
ENDBRANCH  18  20
ENDBRANCH  17  18
ENDBRANCH  10  12
ENDBRANCH   3   8
BRANCH   1  22
ATOM     22  S   UNL     1       6.001   5.861  16.301  0.00  0.00    +0.000 S 
ATOM     23  O   UNL     1       5.357   6.909  15.536  0.00  0.00    +0.000 OA
ATOM     24  O   UNL     1       6.827   4.870  15.645  0.00  0.00    +0.000 OA
BRANCH  22  25
ATOM     25  N   UNL     1       6.983   6.610  17.506  0.00  0.00    +0.000 NA
BRANCH  25  27
ATOM     26  C   UNL     1       7.350   5.574  19.767  0.00  0.00    +0.000 C 
ATOM     27  C   UNL     1       7.796   5.653  18.315  0.00  0.00    +0.000 C 
ENDBRANCH  25  27
BRANCH  25  28
ATOM     28  C   UNL     1       7.725   7.812  17.010  0.00  0.00    +0.000 C 
ATOM     29  C   UNL     1       8.149   8.772  18.112  0.00  0.00    +0.000 C 
ENDBRANCH  25  28
ENDBRANCH  22  25
ENDBRANCH   1  22
TORSDOF 8
ENDMDL
MODEL 4
REMARK VINA RESULT:      -7.5      2.462      4.169
REMARK  Name = 
REMARK  10 active torsions:
REMARK  status: ('A' for Active; 'I' for Inactive)
REMARK    1  A    between atoms: C_1  and  C_2
REMARK    2  A    between atoms: C_2  and  N_3
REMARK    3  A    between atoms: N_3  and  C_4
REMARK    4  A    between atoms: N_3  and  S_6
REMARK    5  A    between atoms: C_4  and  C_5
REMARK    6  A    between atoms: S_6  and  C_9
REMARK    7  A    between atoms: C_11  and  C_12
REMARK    8  A    between atoms: N_14  and  C_15
REMARK    9  A    between atoms: C_20  and  C_21
REMARK   10  A    between atoms: C_21  and  O_23
REMARK                            x       y       z     vdW  Elec       q    Type
REMARK                         _______ _______ _______ _____ _____    ______ ____
ROOT
ATOM      1  C   UNL     1       3.850   5.260  19.025  0.00  0.00    +0.000 A 
ATOM      2  C   UNL     1       3.340   6.514  18.666  0.00  0.00    +0.000 A 
ATOM      3  C   UNL     1       2.272   7.093  19.380  0.00  0.00    +0.000 A 
ATOM      4  C   UNL     1       1.712   6.387  20.451  0.00  0.00    +0.000 A 
ATOM      5  C   UNL     1       2.228   5.131  20.802  0.00  0.00    +0.000 A 
ATOM      6  C   UNL     1       3.292   4.572  20.090  0.00  0.00    +0.000 A 
ATOM      7  F   UNL     1       3.738   3.371  20.475  0.00  0.00    +0.000 F 
ENDROOT
BRANCH   3   8
ATOM      8  C   UNL     1       1.764   8.413  18.894  0.00  0.00    +0.000 C 
ATOM      9  O   UNL     1       2.345   8.895  17.923  0.00  0.00    +0.000 OA
ATOM     10  N   UNL     1       0.711   9.022  19.562  0.00  0.00    +0.000 N 
ATOM     11  H   UNL     1       0.510   8.735  20.520  0.00  0.00    +0.000 HD
BRANCH  10  12
ATOM     12  C   UNL     1       0.053  10.219  19.137  0.00  0.00    +0.000 A 
ATOM     13  C   UNL     1      -0.855  10.206  18.067  0.00  0.00    +0.000 A 
ATOM     14  C   UNL     1      -1.452  11.374  17.594  0.00  0.00    +0.000 A 
ATOM     15  C   UNL     1      -1.164  12.593  18.189  0.00  0.00    +0.000 A 
ATOM     16  C   UNL     1      -0.302  12.636  19.283  0.00  0.00    +0.000 A 
ATOM     17  C   UNL     1       0.277  11.452  19.787  0.00  0.00    +0.000 A 
BRANCH  17  18
ATOM     18  C   UNL     1       1.156  11.526  20.982  0.00  0.00    +0.000 C 
ATOM     19  O   UNL     1       2.043  12.356  21.102  0.00  0.00    +0.000 OA
BRANCH  18  20
ATOM     20  O   UNL     1       0.945  10.549  21.892  0.00  0.00    +0.000 OA
ATOM     21  H   UNL     1       0.174  10.673  22.476  0.00  0.00    +0.000 HD
ENDBRANCH  18  20
ENDBRANCH  17  18
ENDBRANCH  10  12
ENDBRANCH   3   8
BRANCH   1  22
ATOM     22  S   UNL     1       5.147   4.555  18.056  0.00  0.00    +0.000 S 
ATOM     23  O   UNL     1       4.529   3.591  17.169  0.00  0.00    +0.000 OA
ATOM     24  O   UNL     1       6.244   4.169  18.917  0.00  0.00    +0.000 OA
BRANCH  22  25
ATOM     25  N   UNL     1       5.705   5.877  17.098  0.00  0.00    +0.000 NA
BRANCH  25  27
ATOM     26  C   UNL     1       7.355   7.723  17.539  0.00  0.00    +0.000 C 
ATOM     27  C   UNL     1       7.139   6.232  17.321  0.00  0.00    +0.000 C 
ENDBRANCH  25  27
BRANCH  25  28
ATOM     28  C   UNL     1       5.289   5.792  15.662  0.00  0.00    +0.000 C 
ATOM     29  C   UNL     1       6.324   5.138  14.759  0.00  0.00    +0.000 C 
ENDBRANCH  25  28
ENDBRANCH  22  25
ENDBRANCH   1  22
TORSDOF 8
ENDMDL
MODEL 5
REMARK VINA RESULT:      -7.5      2.692      4.072
REMARK  Name = 
REMARK  10 active torsions:
REMARK  status: ('A' for Active; 'I' for Inactive)
REMARK    1  A    between atoms: C_1  and  C_2
REMARK    2  A    between atoms: C_2  and  N_3
REMARK    3  A    between atoms: N_3  and  C_4
REMARK    4  A    between atoms: N_3  and  S_6
REMARK    5  A    between atoms: C_4  and  C_5
REMARK    6  A    between atoms: S_6  and  C_9
REMARK    7  A    between atoms: C_11  and  C_12
REMARK    8  A    between atoms: N_14  and  C_15
REMARK    9  A    between atoms: C_20  and  C_21
REMARK   10  A    between atoms: C_21  and  O_23
REMARK                            x       y       z     vdW  Elec       q    Type
REMARK                         _______ _______ _______ _____ _____    ______ ____
ROOT
ATOM      1  C   UNL     1       4.746   4.945  17.005  0.00  0.00    +0.000 A 
ATOM      2  C   UNL     1       3.974   5.730  17.869  0.00  0.00    +0.000 A 
ATOM      3  C   UNL     1       3.019   5.144  18.724  0.00  0.00    +0.000 A 
ATOM      4  C   UNL     1       2.840   3.756  18.686  0.00  0.00    +0.000 A 
ATOM      5  C   UNL     1       3.616   2.978  17.815  0.00  0.00    +0.000 A 
ATOM      6  C   UNL     1       4.564   3.572  16.979  0.00  0.00    +0.000 A 
ATOM      7  F   UNL     1       5.272   2.773  16.173  0.00  0.00    +0.000 F 
ENDROOT
BRANCH   3   8
ATOM      8  C   UNL     1       2.210   6.068  19.577  0.00  0.00    +0.000 C 
ATOM      9  O   UNL     1       1.584   5.547  20.499  0.00  0.00    +0.000 OA
ATOM     10  N   UNL     1       2.186   7.422  19.276  0.00  0.00    +0.000 N 
ATOM     11  H   UNL     1       2.449   7.717  18.336  0.00  0.00    +0.000 HD
BRANCH  10  12
ATOM     12  C   UNL     1       1.554   8.429  20.073  0.00  0.00    +0.000 A 
ATOM     13  C   UNL     1       1.208   8.182  21.411  0.00  0.00    +0.000 A 
ATOM     14  C   UNL     1       0.529   9.125  22.181  0.00  0.00    +0.000 A 
ATOM     15  C   UNL     1       0.184  10.352  21.634  0.00  0.00    +0.000 A 
ATOM     16  C   UNL     1       0.553  10.648  20.323  0.00  0.00    +0.000 A 
ATOM     17  C   UNL     1       1.271   9.709  19.551  0.00  0.00    +0.000 A 
BRANCH  17  18
ATOM     18  C   UNL     1       1.688  10.072  18.173  0.00  0.00    +0.000 C 
ATOM     19  O   UNL     1       1.805   9.249  17.278  0.00  0.00    +0.000 OA
BRANCH  18  20
ATOM     20  O   UNL     1       2.003  11.376  18.009  0.00  0.00    +0.000 OA
ATOM     21  H   UNL     1       2.793  11.555  17.466  0.00  0.00    +0.000 HD
ENDBRANCH  18  20
ENDBRANCH  17  18
ENDBRANCH  10  12
ENDBRANCH   3   8
BRANCH   1  22
ATOM     22  S   UNL     1       5.883   5.740  15.912  0.00  0.00    +0.000 S 
ATOM     23  O   UNL     1       5.200   6.895  15.367  0.00  0.00    +0.000 OA
ATOM     24  O   UNL     1       6.485   4.758  15.036  0.00  0.00    +0.000 OA
BRANCH  22  25
ATOM     25  N   UNL     1       7.130   6.305  16.961  0.00  0.00    +0.000 NA
BRANCH  25  27
ATOM     26  C   UNL     1       8.115   8.524  17.616  0.00  0.00    +0.000 C 
ATOM     27  C   UNL     1       6.869   7.652  17.553  0.00  0.00    +0.000 C 
ENDBRANCH  25  27
BRANCH  25  28
ATOM     28  C   UNL     1       7.610   5.269  17.930  0.00  0.00    +0.000 C 
ATOM     29  C   UNL     1       7.510   5.696  19.387  0.00  0.00    +0.000 C 
ENDBRANCH  25  28
ENDBRANCH  22  25
ENDBRANCH   1  22
TORSDOF 8
ENDMDL
MODEL 6
REMARK VINA RESULT:      -7.5      2.550      4.195
REMARK  Name = 
REMARK  10 active torsions:
REMARK  status: ('A' for Active; 'I' for Inactive)
REMARK    1  A    between atoms: C_1  and  C_2
REMARK    2  A    between atoms: C_2  and  N_3
REMARK    3  A    between atoms: N_3  and  C_4
REMARK    4  A    between atoms: N_3  and  S_6
REMARK    5  A    between atoms: C_4  and  C_5
REMARK    6  A    between atoms: S_6  and  C_9
REMARK    7  A    between atoms: C_11  and  C_12
REMARK    8  A    between atoms: N_14  and  C_15
REMARK    9  A    between atoms: C_20  and  C_21
REMARK   10  A    between atoms: C_21  and  O_23
REMARK                            x       y       z     vdW  Elec       q    Type
REMARK                         _______ _______ _______ _____ _____    ______ ____
ROOT
ATOM      1  C   UNL     1       4.211   6.013  17.151  0.00  0.00    +0.000 A 
ATOM      2  C   UNL     1       3.523   7.206  17.402  0.00  0.00    +0.000 A 
ATOM      3  C   UNL     1       2.586   7.295  18.451  0.00  0.00    +0.000 A 
ATOM      4  C   UNL     1       2.338   6.162  19.234  0.00  0.00    +0.000 A 
ATOM      5  C   UNL     1       3.031   4.971  18.974  0.00  0.00    +0.000 A 
ATOM      6  C   UNL     1       3.962   4.899  17.936  0.00  0.00    +0.000 A 
ATOM      7  F   UNL     1       4.588   3.734  17.739  0.00  0.00    +0.000 F 
ENDROOT
BRANCH   3   8
ATOM      8  C   UNL     1       1.867   8.596  18.614  0.00  0.00    +0.000 C 
ATOM      9  O   UNL     1       1.886   9.353  17.644  0.00  0.00    +0.000 OA
ATOM     10  N   UNL     1       1.255   8.885  19.825  0.00  0.00    +0.000 N 
ATOM     11  H   UNL     1       1.554   8.377  20.656  0.00  0.00    +0.000 HD
BRANCH  10  12
ATOM     12  C   UNL     1       0.437  10.033  20.077  0.00  0.00    +0.000 A 
ATOM     13  C   UNL     1      -0.097  10.789  19.022  0.00  0.00    +0.000 A 
ATOM     14  C   UNL     1      -0.836  11.949  19.249  0.00  0.00    +0.000 A 
ATOM     15  C   UNL     1      -1.073  12.381  20.545  0.00  0.00    +0.000 A 
ATOM     16  C   UNL     1      -0.598  11.629  21.617  0.00  0.00    +0.000 A 
ATOM     17  C   UNL     1       0.122  10.436  21.393  0.00  0.00    +0.000 A 
BRANCH  17  18
ATOM     18  C   UNL     1       0.576   9.634  22.557  0.00  0.00    +0.000 C 
ATOM     19  O   UNL     1      -0.150   9.364  23.501  0.00  0.00    +0.000 OA
BRANCH  18  20
ATOM     20  O   UNL     1       1.884   9.293  22.525  0.00  0.00    +0.000 OA
ATOM     21  H   UNL     1       2.441   9.811  21.914  0.00  0.00    +0.000 HD
ENDBRANCH  18  20
ENDBRANCH  17  18
ENDBRANCH  10  12
ENDBRANCH   3   8
BRANCH   1  22
ATOM     22  S   UNL     1       5.327   5.941  15.784  0.00  0.00    +0.000 S 
ATOM     23  O   UNL     1       5.118   7.147  15.010  0.00  0.00    +0.000 OA
ATOM     24  O   UNL     1       5.249   4.639  15.158  0.00  0.00    +0.000 OA
BRANCH  22  25
ATOM     25  N   UNL     1       6.883   6.047  16.522  0.00  0.00    +0.000 NA
BRANCH  25  27
ATOM     26  C   UNL     1       7.830   8.181  17.455  0.00  0.00    +0.000 C 
ATOM     27  C   UNL     1       6.942   6.970  17.696  0.00  0.00    +0.000 C 
ENDBRANCH  25  27
BRANCH  25  28
ATOM     28  C   UNL     1       7.539   4.717  16.727  0.00  0.00    +0.000 C 
ATOM     29  C   UNL     1       7.980   4.463  18.161  0.00  0.00    +0.000 C 
ENDBRANCH  25  28
ENDBRANCH  22  25
ENDBRANCH   1  22
TORSDOF 8
ENDMDL
MODEL 7
REMARK VINA RESULT:      -7.4      3.513      8.518
REMARK  Name = 
REMARK  10 active torsions:
REMARK  status: ('A' for Active; 'I' for Inactive)
REMARK    1  A    between atoms: C_1  and  C_2
REMARK    2  A    between atoms: C_2  and  N_3
REMARK    3  A    between atoms: N_3  and  C_4
REMARK    4  A    between atoms: N_3  and  S_6
REMARK    5  A    between atoms: C_4  and  C_5
REMARK    6  A    between atoms: S_6  and  C_9
REMARK    7  A    between atoms: C_11  and  C_12
REMARK    8  A    between atoms: N_14  and  C_15
REMARK    9  A    between atoms: C_20  and  C_21
REMARK   10  A    between atoms: C_21  and  O_23
REMARK                            x       y       z     vdW  Elec       q    Type
REMARK                         _______ _______ _______ _____ _____    ______ ____
ROOT
ATOM      1  C   UNL     1       0.006  10.700  20.089  0.00  0.00    +0.000 A 
ATOM      2  C   UNL     1       0.744   9.972  19.149  0.00  0.00    +0.000 A 
ATOM      3  C   UNL     1       1.412   8.785  19.514  0.00  0.00    +0.000 A 
ATOM      4  C   UNL     1       1.341   8.350  20.842  0.00  0.00    +0.000 A 
ATOM      5  C   UNL     1       0.600   9.088  21.777  0.00  0.00    +0.000 A 
ATOM      6  C   UNL     1      -0.062  10.257  21.400  0.00  0.00    +0.000 A 
ATOM      7  F   UNL     1      -0.752  10.915  22.340  0.00  0.00    +0.000 F 
ENDROOT
BRANCH   3   8
ATOM      8  C   UNL     1       2.214   8.101  18.453  0.00  0.00    +0.000 C 
ATOM      9  O   UNL     1       2.311   8.692  17.379  0.00  0.00    +0.000 OA
ATOM     10  N   UNL     1       2.767   6.857  18.719  0.00  0.00    +0.000 N 
ATOM     11  H   UNL     1       2.379   6.304  19.482  0.00  0.00    +0.000 HD
BRANCH  10  12
ATOM     12  C   UNL     1       3.650   6.148  17.843  0.00  0.00    +0.000 A 
ATOM     13  C   UNL     1       4.800   6.761  17.321  0.00  0.00    +0.000 A 
ATOM     14  C   UNL     1       5.632   6.109  16.412  0.00  0.00    +0.000 A 
ATOM     15  C   UNL     1       5.342   4.816  16.005  0.00  0.00    +0.000 A 
ATOM     16  C   UNL     1       4.234   4.161  16.539  0.00  0.00    +0.000 A 
ATOM     17  C   UNL     1       3.408   4.803  17.486  0.00  0.00    +0.000 A 
BRANCH  17  18
ATOM     18  C   UNL     1       2.261   4.063  18.069  0.00  0.00    +0.000 C 
ATOM     19  O   UNL     1       1.270   3.759  17.423  0.00  0.00    +0.000 OA
BRANCH  18  20
ATOM     20  O   UNL     1       2.368   3.821  19.395  0.00  0.00    +0.000 OA
ATOM     21  H   UNL     1       1.984   4.499  19.981  0.00  0.00    +0.000 HD
ENDBRANCH  18  20
ENDBRANCH  17  18
ENDBRANCH  10  12
ENDBRANCH   3   8
BRANCH   1  22
ATOM     22  S   UNL     1      -0.758  12.213  19.591  0.00  0.00    +0.000 S 
ATOM     23  O   UNL     1      -0.289  12.496  18.251  0.00  0.00    +0.000 OA
ATOM     24  O   UNL     1      -0.624  13.197  20.643  0.00  0.00    +0.000 OA
BRANCH  22  25
ATOM     25  N   UNL     1      -2.433  11.810  19.494  0.00  0.00    +0.000 NA
BRANCH  25  27
ATOM     26  C   UNL     1      -4.758  12.714  19.808  0.00  0.00    +0.000 C 
ATOM     27  C   UNL     1      -3.322  12.690  20.311  0.00  0.00    +0.000 C 
ENDBRANCH  25  27
BRANCH  25  28
ATOM     28  C   UNL     1      -2.906  11.554  18.096  0.00  0.00    +0.000 C 
ATOM     29  C   UNL     1      -2.885  10.085  17.700  0.00  0.00    +0.000 C 
ENDBRANCH  25  28
ENDBRANCH  22  25
ENDBRANCH   1  22
TORSDOF 8
ENDMDL
MODEL 8
REMARK VINA RESULT:      -7.4      2.682      4.237
REMARK  Name = 
REMARK  10 active torsions:
REMARK  status: ('A' for Active; 'I' for Inactive)
REMARK    1  A    between atoms: C_1  and  C_2
REMARK    2  A    between atoms: C_2  and  N_3
REMARK    3  A    between atoms: N_3  and  C_4
REMARK    4  A    between atoms: N_3  and  S_6
REMARK    5  A    between atoms: C_4  and  C_5
REMARK    6  A    between atoms: S_6  and  C_9
REMARK    7  A    between atoms: C_11  and  C_12
REMARK    8  A    between atoms: N_14  and  C_15
REMARK    9  A    between atoms: C_20  and  C_21
REMARK   10  A    between atoms: C_21  and  O_23
REMARK                            x       y       z     vdW  Elec       q    Type
REMARK                         _______ _______ _______ _____ _____    ______ ____
ROOT
ATOM      1  C   UNL     1       4.208   6.214  18.045  0.00  0.00    +0.000 A 
ATOM      2  C   UNL     1       3.448   7.380  17.905  0.00  0.00    +0.000 A 
ATOM      3  C   UNL     1       2.366   7.649  18.767  0.00  0.00    +0.000 A 
ATOM      4  C   UNL     1       2.049   6.719  19.764  0.00  0.00    +0.000 A 
ATOM      5  C   UNL     1       2.815   5.552  19.896  0.00  0.00    +0.000 A 
ATOM      6  C   UNL     1       3.889   5.303  19.039  0.00  0.00    +0.000 A 
ATOM      7  F   UNL     1       4.580   4.171  19.218  0.00  0.00    +0.000 F 
ENDROOT
BRANCH   3   8
ATOM      8  C   UNL     1       1.583   8.897  18.510  0.00  0.00    +0.000 C 
ATOM      9  O   UNL     1       1.905   9.545  17.516  0.00  0.00    +0.000 OA
ATOM     10  N   UNL     1       0.580   9.262  19.396  0.00  0.00    +0.000 N 
ATOM     11  H   UNL     1       0.595   8.871  20.337  0.00  0.00    +0.000 HD
BRANCH  10  12
ATOM     12  C   UNL     1      -0.320  10.360  19.209  0.00  0.00    +0.000 A 
ATOM     13  C   UNL     1      -1.328  10.312  18.233  0.00  0.00    +0.000 A 
ATOM     14  C   UNL     1      -2.168  11.398  17.990  0.00  0.00    +0.000 A 
ATOM     15  C   UNL     1      -2.029  12.565  18.727  0.00  0.00    +0.000 A 
ATOM     16  C   UNL     1      -1.069  12.630  19.735  0.00  0.00    +0.000 A 
ATOM     17  C   UNL     1      -0.239  11.521  20.008  0.00  0.00    +0.000 A 
BRANCH  17  18
ATOM     18  C   UNL     1       0.743  11.606  21.118  0.00  0.00    +0.000 C 
ATOM     19  O   UNL     1       0.900  10.713  21.936  0.00  0.00    +0.000 OA
BRANCH  18  20
ATOM     20  O   UNL     1       1.395  12.788  21.197  0.00  0.00    +0.000 OA
ATOM     21  H   UNL     1       2.341  12.766  20.960  0.00  0.00    +0.000 HD
ENDBRANCH  18  20
ENDBRANCH  17  18
ENDBRANCH  10  12
ENDBRANCH   3   8
BRANCH   1  22
ATOM     22  S   UNL     1       5.513   5.899  16.897  0.00  0.00    +0.000 S 
ATOM     23  O   UNL     1       5.301   6.784  15.772  0.00  0.00    +0.000 OA
ATOM     24  O   UNL     1       5.654   4.472  16.699  0.00  0.00    +0.000 OA
BRANCH  22  25
ATOM     25  N   UNL     1       6.927   6.429  17.732  0.00  0.00    +0.000 NA
BRANCH  25  27
ATOM     26  C   UNL     1       7.981   5.448  19.793  0.00  0.00    +0.000 C 
ATOM     27  C   UNL     1       7.758   5.321  18.293  0.00  0.00    +0.000 C 
ENDBRANCH  25  27
BRANCH  25  28
ATOM     28  C   UNL     1       7.692   7.487  16.998  0.00  0.00    +0.000 C 
ATOM     29  C   UNL     1       8.058   8.688  17.857  0.00  0.00    +0.000 C 
ENDBRANCH  25  28
ENDBRANCH  22  25
ENDBRANCH   1  22
TORSDOF 8
ENDMDL
MODEL 9
REMARK VINA RESULT:      -7.4      2.314      4.194
REMARK  Name = 
REMARK  10 active torsions:
REMARK  status: ('A' for Active; 'I' for Inactive)
REMARK    1  A    between atoms: C_1  and  C_2
REMARK    2  A    between atoms: C_2  and  N_3
REMARK    3  A    between atoms: N_3  and  C_4
REMARK    4  A    between atoms: N_3  and  S_6
REMARK    5  A    between atoms: C_4  and  C_5
REMARK    6  A    between atoms: S_6  and  C_9
REMARK    7  A    between atoms: C_11  and  C_12
REMARK    8  A    between atoms: N_14  and  C_15
REMARK    9  A    between atoms: C_20  and  C_21
REMARK   10  A    between atoms: C_21  and  O_23
REMARK                            x       y       z     vdW  Elec       q    Type
REMARK                         _______ _______ _______ _____ _____    ______ ____
ROOT
ATOM      1  C   UNL     1       3.923   4.995  19.065  0.00  0.00    +0.000 A 
ATOM      2  C   UNL     1       3.429   6.286  18.848  0.00  0.00    +0.000 A 
ATOM      3  C   UNL     1       2.336   6.778  19.589  0.00  0.00    +0.000 A 
ATOM      4  C   UNL     1       1.736   5.946  20.542  0.00  0.00    +0.000 A 
ATOM      5  C   UNL     1       2.237   4.653  20.751  0.00  0.00    +0.000 A 
ATOM      6  C   UNL     1       3.325   4.182  20.014  0.00  0.00    +0.000 A 
ATOM      7  F   UNL     1       3.755   2.939  20.261  0.00  0.00    +0.000 F 
ENDROOT
BRANCH   3   8
ATOM      8  C   UNL     1       1.849   8.152  19.255  0.00  0.00    +0.000 C 
ATOM      9  O   UNL     1       1.886   8.467  18.067  0.00  0.00    +0.000 OA
ATOM     10  N   UNL     1       1.416   8.985  20.277  0.00  0.00    +0.000 N 
ATOM     11  H   UNL     1       1.716   8.783  21.230  0.00  0.00    +0.000 HD
BRANCH  10  12
ATOM     12  C   UNL     1       0.817  10.271  20.088  0.00  0.00    +0.000 A 
ATOM     13  C   UNL     1       1.044  11.012  18.918  0.00  0.00    +0.000 A 
ATOM     14  C   UNL     1       0.526  12.295  18.748  0.00  0.00    +0.000 A 
ATOM     15  C   UNL     1      -0.245  12.873  19.745  0.00  0.00    +0.000 A 
ATOM     16  C   UNL     1      -0.528  12.148  20.901  0.00  0.00    +0.000 A 
ATOM     17  C   UNL     1      -0.035  10.835  21.063  0.00  0.00    +0.000 A 
BRANCH  17  18
ATOM     18  C   UNL     1      -0.391  10.072  22.286  0.00  0.00    +0.000 C 
ATOM     19  O   UNL     1      -0.628   8.875  22.275  0.00  0.00    +0.000 OA
BRANCH  18  20
ATOM     20  O   UNL     1      -0.510  10.828  23.401  0.00  0.00    +0.000 OA
ATOM     21  H   UNL     1      -1.142  11.569  23.344  0.00  0.00    +0.000 HD
ENDBRANCH  18  20
ENDBRANCH  17  18
ENDBRANCH  10  12
ENDBRANCH   3   8
BRANCH   1  22
ATOM     22  S   UNL     1       5.254   4.408  18.063  0.00  0.00    +0.000 S 
ATOM     23  O   UNL     1       4.691   3.441  17.144  0.00  0.00    +0.000 OA
ATOM     24  O   UNL     1       6.380   4.061  18.903  0.00  0.00    +0.000 OA
BRANCH  22  25
ATOM     25  N   UNL     1       5.721   5.798  17.152  0.00  0.00    +0.000 NA
BRANCH  25  27
ATOM     26  C   UNL     1       7.383   7.661  17.448  0.00  0.00    +0.000 C 
ATOM     27  C   UNL     1       7.163   6.164  17.290  0.00  0.00    +0.000 C 
ENDBRANCH  25  27
BRANCH  25  28
ATOM     28  C   UNL     1       5.199   5.794  15.748  0.00  0.00    +0.000 C 
ATOM     29  C   UNL     1       6.176   5.224  14.731  0.00  0.00    +0.000 C 
ENDBRANCH  25  28
ENDBRANCH  22  25
ENDBRANCH   1  22
TORSDOF 8
ENDMDL
