MODEL 1
REMARK VINA RESULT:      -8.0      0.000      0.000
REMARK  Name = 
REMARK  13 active torsions:
REMARK  status: ('A' for Active; 'I' for Inactive)
REMARK    1  A    between atoms: C_1  and  N_2
REMARK    2  A    between atoms: N_2  and  C_3
REMARK    3  A    between atoms: C_4  and  C_6
REMARK    4  A    between atoms: C_6  and  N_7
REMARK    5  A    between atoms: C_10  and  C_11
REMARK    6  A    between atoms: N_13  and  C_14
REMARK    7  A    between atoms: C_14  and  C_15
REMARK    8  A    between atoms: C_14  and  C_16
REMARK    9  A    between atoms: C_14  and  C_17
REMARK   10  A    between atoms: C_17  and  O_18
REMARK   11  A    between atoms: C_19  and  O_20
REMARK   12  A    between atoms: C_24  and  C_25
REMARK   13  A    between atoms: C_25  and  C_26
REMARK                            x       y       z     vdW  Elec       q    Type
REMARK                         _______ _______ _______ _____ _____    ______ ____
ROOT
ATOM      1  N   UNL     1       2.524   6.471  19.830  0.00  0.00    +0.000 N 
ATOM      2  C   UNL     1       1.828   7.577  20.299  0.00  0.00    +0.000 A 
ATOM      3  O   UNL     1       1.322   7.605  21.426  0.00  0.00    +0.000 OA
ATOM      4  C   UNL     1       1.630   8.728  19.371  0.00  0.00    +0.000 A 
ATOM      5  C   UNL     1       2.264   8.750  18.189  0.00  0.00    +0.000 A 
ATOM      6  C   UNL     1       3.143   7.642  17.789  0.00  0.00    +0.000 A 
ATOM      7  N   UNL     1       3.777   7.767  16.600  0.00  0.00    +0.000 NA
ATOM      8  C   UNL     1       4.597   6.771  16.216  0.00  0.00    +0.000 A 
ATOM      9  C   UNL     1       4.839   5.637  16.976  0.00  0.00    +0.000 A 
ATOM     10  C   UNL     1       4.139   5.513  18.188  0.00  0.00    +0.000 A 
ATOM     11  C   UNL     1       3.267   6.520  18.612  0.00  0.00    +0.000 A 
ENDROOT
BRANCH   4  12
ATOM     12  C   UNL     1       0.724   9.877  19.696  0.00  0.00    +0.000 C 
ATOM     13  O   UNL     1       0.979  10.609  20.645  0.00  0.00    +0.000 OA
ATOM     14  N   UNL     1      -0.357  10.076  18.870  0.00  0.00    +0.000 N 
ATOM     15  H   UNL     1      -0.504   9.413  18.109  0.00  0.00    +0.000 HD
BRANCH  14  16
ATOM     16  C   UNL     1      -1.332  11.171  19.051  0.00  0.00    +0.000 C 
ATOM     17  C   UNL     1      -2.618  10.838  18.262  0.00  0.00    +0.000 C 
ATOM     18  C   UNL     1      -1.676  11.344  20.545  0.00  0.00    +0.000 C 
BRANCH  16  19
ATOM     19  C   UNL     1      -0.744  12.507  18.521  0.00  0.00    +0.000 C 
BRANCH  19  20
ATOM     20  O   UNL     1      -1.147  12.793  17.181  0.00  0.00    +0.000 OA
ATOM     21  H   UNL     1      -2.101  12.612  17.123  0.00  0.00    +0.000 HD
ENDBRANCH  19  20
ENDBRANCH  16  19
ENDBRANCH  14  16
ENDBRANCH   4  12
BRANCH   5  22
ATOM     22  O   UNL     1       2.172   9.778  17.255  0.00  0.00    +0.000 OA
ATOM     23  H   UNL     1       1.489   9.542  16.589  0.00  0.00    +0.000 HD
ENDBRANCH   5  22
BRANCH   1  24
ATOM     24  C   UNL     1       2.499   5.272  20.667  0.00  0.00    +0.000 C 
BRANCH  24  28
ATOM     25  C   UNL     1       1.428   1.873  19.280  0.00  0.00    +0.000 C 
ATOM     26  N   UNL     1       2.247   2.941  19.825  0.00  0.00    +0.000 N 
ATOM     27  C   UNL     1       3.641   2.667  20.129  0.00  0.00    +0.000 C 
ATOM     28  C   UNL     1       1.621   4.159  20.070  0.00  0.00    +0.000 C 
ATOM     29  O   UNL     1       0.428   4.332  19.848  0.00  0.00    +0.000 OA
ENDBRANCH  24  28
ENDBRANCH   1  24
BRANCH   9  30
ATOM     30  C   UNL     1       5.832   4.588  16.566  0.00  0.00    +0.000 C 
BRANCH  30  31
ATOM     31  C   UNL     1       6.168   4.539  15.093  0.00  0.00    +0.000 A 
ATOM     32  C   UNL     1       7.326   5.176  14.613  0.00  0.00    +0.000 A 
ATOM     33  C   UNL     1       7.750   4.964  13.300  0.00  0.00    +0.000 A 
ATOM     34  C   UNL     1       7.009   4.137  12.464  0.00  0.00    +0.000 A 
ATOM     35  F   UNL     1       7.454   3.883  11.227  0.00  0.00    +0.000 F 
ATOM     36  C   UNL     1       5.827   3.549  12.900  0.00  0.00    +0.000 A 
ATOM     37  C   UNL     1       5.399   3.761  14.212  0.00  0.00    +0.000 A 
ENDBRANCH  30  31
ENDBRANCH   9  30
TORSDOF 9
ENDMDL
MODEL 2
REMARK VINA RESULT:      -7.9      3.995      7.170
REMARK  Name = 
REMARK  13 active torsions:
REMARK  status: ('A' for Active; 'I' for Inactive)
REMARK    1  A    between atoms: C_1  and  N_2
REMARK    2  A    between atoms: N_2  and  C_3
REMARK    3  A    between atoms: C_4  and  C_6
REMARK    4  A    between atoms: C_6  and  N_7
REMARK    5  A    between atoms: C_10  and  C_11
REMARK    6  A    between atoms: N_13  and  C_14
REMARK    7  A    between atoms: C_14  and  C_15
REMARK    8  A    between atoms: C_14  and  C_16
REMARK    9  A    between atoms: C_14  and  C_17
REMARK   10  A    between atoms: C_17  and  O_18
REMARK   11  A    between atoms: C_19  and  O_20
REMARK   12  A    between atoms: C_24  and  C_25
REMARK   13  A    between atoms: C_25  and  C_26
REMARK                            x       y       z     vdW  Elec       q    Type
REMARK                         _______ _______ _______ _____ _____    ______ ____
ROOT
ATOM      1  N   UNL     1      -0.099  11.733  19.634  0.00  0.00    +0.000 N 
ATOM      2  C   UNL     1      -1.044  12.294  20.482  0.00  0.00    +0.000 A 
ATOM      3  O   UNL     1      -1.661  13.323  20.189  0.00  0.00    +0.000 OA
ATOM      4  C   UNL     1      -1.251  11.663  21.818  0.00  0.00    +0.000 A 
ATOM      5  C   UNL     1      -0.666  10.490  22.101  0.00  0.00    +0.000 A 
ATOM      6  C   UNL     1       0.194   9.823  21.112  0.00  0.00    +0.000 A 
ATOM      7  N   UNL     1       0.708   8.623  21.465  0.00  0.00    +0.000 NA
ATOM      8  C   UNL     1       1.489   7.985  20.572  0.00  0.00    +0.000 A 
ATOM      9  C   UNL     1       1.780   8.483  19.311  0.00  0.00    +0.000 A 
ATOM     10  C   UNL     1       1.266   9.749  18.985  0.00  0.00    +0.000 A 
ATOM     11  C   UNL     1       0.464  10.447  19.892  0.00  0.00    +0.000 A 
ENDROOT
BRANCH   4  12
ATOM     12  C   UNL     1      -2.086  12.300  22.887  0.00  0.00    +0.000 C 
ATOM     13  O   UNL     1      -1.566  12.667  23.935  0.00  0.00    +0.000 OA
ATOM     14  N   UNL     1      -3.423  12.478  22.616  0.00  0.00    +0.000 N 
ATOM     15  H   UNL     1      -3.778  12.133  21.724  0.00  0.00    +0.000 HD
BRANCH  14  16
ATOM     16  C   UNL     1      -4.372  13.101  23.561  0.00  0.00    +0.000 C 
ATOM     17  C   UNL     1      -5.753  13.227  22.880  0.00  0.00    +0.000 C 
ATOM     18  C   UNL     1      -4.504  12.243  24.836  0.00  0.00    +0.000 C 
BRANCH  16  19
ATOM     19  C   UNL     1      -3.875  14.515  23.967  0.00  0.00    +0.000 C 
BRANCH  19  20
ATOM     20  O   UNL     1      -3.500  14.594  25.343  0.00  0.00    +0.000 OA
ATOM     21  H   UNL     1      -2.672  14.095  25.443  0.00  0.00    +0.000 HD
ENDBRANCH  19  20
ENDBRANCH  16  19
ENDBRANCH  14  16
ENDBRANCH   4  12
BRANCH   5  22
ATOM     22  O   UNL     1      -0.804   9.800  23.302  0.00  0.00    +0.000 OA
ATOM     23  H   UNL     1      -1.662   9.321  23.297  0.00  0.00    +0.000 HD
ENDBRANCH   5  22
BRANCH   1  24
ATOM     24  C   UNL     1       0.255  12.500  18.440  0.00  0.00    +0.000 C 
BRANCH  24  28
ATOM     25  C   UNL     1       2.501  15.557  18.922  0.00  0.00    +0.000 C 
ATOM     26  N   UNL     1       1.325  14.734  18.709  0.00  0.00    +0.000 N 
ATOM     27  C   UNL     1       0.026  15.379  18.625  0.00  0.00    +0.000 C 
ATOM     28  C   UNL     1       1.515  13.357  18.646  0.00  0.00    +0.000 C 
ATOM     29  O   UNL     1       2.624  12.849  18.774  0.00  0.00    +0.000 OA
ENDBRANCH  24  28
ENDBRANCH   1  24
BRANCH   9  30
ATOM     30  C   UNL     1       2.575   7.706  18.301  0.00  0.00    +0.000 C 
BRANCH  30  31
ATOM     31  C   UNL     1       2.693   6.221  18.557  0.00  0.00    +0.000 A 
ATOM     32  C   UNL     1       1.795   5.328  17.946  0.00  0.00    +0.000 A 
ATOM     33  C   UNL     1       2.021   3.952  18.011  0.00  0.00    +0.000 A 
ATOM     34  C   UNL     1       3.126   3.469  18.702  0.00  0.00    +0.000 A 
ATOM     35  F   UNL     1       3.376   2.154  18.707  0.00  0.00    +0.000 F 
ATOM     36  C   UNL     1       3.990   4.332  19.366  0.00  0.00    +0.000 A 
ATOM     37  C   UNL     1       3.766   5.709  19.305  0.00  0.00    +0.000 A 
ENDBRANCH  30  31
ENDBRANCH   9  30
TORSDOF 9
ENDMDL
MODEL 3
REMARK VINA RESULT:      -7.9      0.786      1.129
REMARK  Name = 
REMARK  13 active torsions:
REMARK  status: ('A' for Active; 'I' for Inactive)
REMARK    1  A    between atoms: C_1  and  N_2
REMARK    2  A    between atoms: N_2  and  C_3
REMARK    3  A    between atoms: C_4  and  C_6
REMARK    4  A    between atoms: C_6  and  N_7
REMARK    5  A    between atoms: C_10  and  C_11
REMARK    6  A    between atoms: N_13  and  C_14
REMARK    7  A    between atoms: C_14  and  C_15
REMARK    8  A    between atoms: C_14  and  C_16
REMARK    9  A    between atoms: C_14  and  C_17
REMARK   10  A    between atoms: C_17  and  O_18
REMARK   11  A    between atoms: C_19  and  O_20
REMARK   12  A    between atoms: C_24  and  C_25
REMARK   13  A    between atoms: C_25  and  C_26
REMARK                            x       y       z     vdW  Elec       q    Type
REMARK                         _______ _______ _______ _____ _____    ______ ____
ROOT
ATOM      1  N   UNL     1       2.573   6.495  19.869  0.00  0.00    +0.000 N 
ATOM      2  C   UNL     1       1.808   7.559  20.328  0.00  0.00    +0.000 A 
ATOM      3  O   UNL     1       1.295   7.562  21.451  0.00  0.00    +0.000 OA
ATOM      4  C   UNL     1       1.547   8.691  19.392  0.00  0.00    +0.000 A 
ATOM      5  C   UNL     1       2.185   8.746  18.214  0.00  0.00    +0.000 A 
ATOM      6  C   UNL     1       3.132   7.690  17.825  0.00  0.00    +0.000 A 
ATOM      7  N   UNL     1       3.764   7.848  16.639  0.00  0.00    +0.000 NA
ATOM      8  C   UNL     1       4.646   6.901  16.265  0.00  0.00    +0.000 A 
ATOM      9  C   UNL     1       4.951   5.788  17.033  0.00  0.00    +0.000 A 
ATOM     10  C   UNL     1       4.252   5.628  18.241  0.00  0.00    +0.000 A 
ATOM     11  C   UNL     1       3.319   6.583  18.655  0.00  0.00    +0.000 A 
ENDROOT
BRANCH   4  12
ATOM     12  C   UNL     1       0.571   9.784  19.706  0.00  0.00    +0.000 C 
ATOM     13  O   UNL     1      -0.578   9.507  20.030  0.00  0.00    +0.000 OA
ATOM     14  N   UNL     1       1.038  11.078  19.648  0.00  0.00    +0.000 N 
ATOM     15  H   UNL     1       2.005  11.222  19.358  0.00  0.00    +0.000 HD
BRANCH  14  16
ATOM     16  C   UNL     1       0.204  12.261  19.942  0.00  0.00    +0.000 C 
ATOM     17  C   UNL     1      -0.271  12.191  21.410  0.00  0.00    +0.000 C 
ATOM     18  C   UNL     1       1.011  13.557  19.724  0.00  0.00    +0.000 C 
BRANCH  16  19
ATOM     19  C   UNL     1      -1.037  12.289  19.008  0.00  0.00    +0.000 C 
BRANCH  19  20
ATOM     20  O   UNL     1      -0.706  12.635  17.663  0.00  0.00    +0.000 OA
ATOM     21  H   UNL     1      -1.520  12.556  17.138  0.00  0.00    +0.000 HD
ENDBRANCH  19  20
ENDBRANCH  16  19
ENDBRANCH  14  16
ENDBRANCH   4  12
BRANCH   5  22
ATOM     22  O   UNL     1       2.037   9.761  17.274  0.00  0.00    +0.000 OA
ATOM     23  H   UNL     1       1.112  10.093  17.306  0.00  0.00    +0.000 HD
ENDBRANCH   5  22
BRANCH   1  24
ATOM     24  C   UNL     1       2.616   5.300  20.712  0.00  0.00    +0.000 C 
BRANCH  24  28
ATOM     25  C   UNL     1       1.516   1.898  19.358  0.00  0.00    +0.000 C 
ATOM     26  N   UNL     1       2.351   2.980  19.847  0.00  0.00    +0.000 N 
ATOM     27  C   UNL     1       3.775   2.743  20.011  0.00  0.00    +0.000 C 
ATOM     28  C   UNL     1       1.717   4.173  20.177  0.00  0.00    +0.000 C 
ATOM     29  O   UNL     1       0.503   4.313  20.073  0.00  0.00    +0.000 OA
ENDBRANCH  24  28
ENDBRANCH   1  24
BRANCH   9  30
ATOM     30  C   UNL     1       6.009   4.799  16.634  0.00  0.00    +0.000 C 
BRANCH  30  31
ATOM     31  C   UNL     1       6.258   4.663  15.149  0.00  0.00    +0.000 A 
ATOM     32  C   UNL     1       7.377   5.280  14.565  0.00  0.00    +0.000 A 
ATOM     33  C   UNL     1       7.727   4.992  13.244  0.00  0.00    +0.000 A 
ATOM     34  C   UNL     1       6.948   4.111  12.504  0.00  0.00    +0.000 A 
ATOM     35  F   UNL     1       7.322   3.786  11.260  0.00  0.00    +0.000 F 
ATOM     36  C   UNL     1       5.801   3.541  13.044  0.00  0.00    +0.000 A 
ATOM     37  C   UNL     1       5.447   3.827  14.363  0.00  0.00    +0.000 A 
ENDBRANCH  30  31
ENDBRANCH   9  30
TORSDOF 9
ENDMDL
MODEL 4
REMARK VINA RESULT:      -7.8      3.970      7.083
REMARK  Name = 
REMARK  13 active torsions:
REMARK  status: ('A' for Active; 'I' for Inactive)
REMARK    1  A    between atoms: C_1  and  N_2
REMARK    2  A    between atoms: N_2  and  C_3
REMARK    3  A    between atoms: C_4  and  C_6
REMARK    4  A    between atoms: C_6  and  N_7
REMARK    5  A    between atoms: C_10  and  C_11
REMARK    6  A    between atoms: N_13  and  C_14
REMARK    7  A    between atoms: C_14  and  C_15
REMARK    8  A    between atoms: C_14  and  C_16
REMARK    9  A    between atoms: C_14  and  C_17
REMARK   10  A    between atoms: C_17  and  O_18
REMARK   11  A    between atoms: C_19  and  O_20
REMARK   12  A    between atoms: C_24  and  C_25
REMARK   13  A    between atoms: C_25  and  C_26
REMARK                            x       y       z     vdW  Elec       q    Type
REMARK                         _______ _______ _______ _____ _____    ______ ____
ROOT
ATOM      1  N   UNL     1      -0.080  11.660  19.594  0.00  0.00    +0.000 N 
ATOM      2  C   UNL     1      -1.036  12.218  20.431  0.00  0.00    +0.000 A 
ATOM      3  O   UNL     1      -1.662  13.237  20.125  0.00  0.00    +0.000 OA
ATOM      4  C   UNL     1      -1.243  11.597  21.772  0.00  0.00    +0.000 A 
ATOM      5  C   UNL     1      -0.647  10.434  22.070  0.00  0.00    +0.000 A 
ATOM      6  C   UNL     1       0.226   9.767  21.092  0.00  0.00    +0.000 A 
ATOM      7  N   UNL     1       0.751   8.575  21.459  0.00  0.00    +0.000 NA
ATOM      8  C   UNL     1       1.544   7.938  20.576  0.00  0.00    +0.000 A 
ATOM      9  C   UNL     1       1.837   8.428  19.313  0.00  0.00    +0.000 A 
ATOM     10  C   UNL     1       1.311   9.684  18.971  0.00  0.00    +0.000 A 
ATOM     11  C   UNL     1       0.496  10.382  19.867  0.00  0.00    +0.000 A 
ENDROOT
BRANCH   4  12
ATOM     12  C   UNL     1      -2.092  12.235  22.830  0.00  0.00    +0.000 C 
ATOM     13  O   UNL     1      -1.593  12.567  23.899  0.00  0.00    +0.000 OA
ATOM     14  N   UNL     1      -3.416  12.453  22.526  0.00  0.00    +0.000 N 
ATOM     15  H   UNL     1      -3.754  12.135  21.617  0.00  0.00    +0.000 HD
BRANCH  14  16
ATOM     16  C   UNL     1      -4.375  13.082  23.457  0.00  0.00    +0.000 C 
ATOM     17  C   UNL     1      -4.366  12.305  24.792  0.00  0.00    +0.000 C 
ATOM     18  C   UNL     1      -3.987  14.553  23.715  0.00  0.00    +0.000 C 
BRANCH  16  19
ATOM     19  C   UNL     1      -5.807  13.047  22.858  0.00  0.00    +0.000 C 
BRANCH  19  20
ATOM     20  O   UNL     1      -5.939  12.094  21.802  0.00  0.00    +0.000 OA
ATOM     21  H   UNL     1      -5.511  12.476  21.016  0.00  0.00    +0.000 HD
ENDBRANCH  19  20
ENDBRANCH  16  19
ENDBRANCH  14  16
ENDBRANCH   4  12
BRANCH   5  22
ATOM     22  O   UNL     1      -0.785   9.753  23.276  0.00  0.00    +0.000 OA
ATOM     23  H   UNL     1      -0.073  10.045  23.889  0.00  0.00    +0.000 HD
ENDBRANCH   5  22
BRANCH   1  24
ATOM     24  C   UNL     1       0.273  12.420  18.395  0.00  0.00    +0.000 C 
BRANCH  24  28
ATOM     25  C   UNL     1       2.494  15.492  18.893  0.00  0.00    +0.000 C 
ATOM     26  N   UNL     1       1.323  14.660  18.682  0.00  0.00    +0.000 N 
ATOM     27  C   UNL     1       0.017  15.293  18.624  0.00  0.00    +0.000 C 
ATOM     28  C   UNL     1       1.527  13.286  18.598  0.00  0.00    +0.000 C 
ATOM     29  O   UNL     1       2.642  12.788  18.705  0.00  0.00    +0.000 OA
ENDBRANCH  24  28
ENDBRANCH   1  24
BRANCH   9  30
ATOM     30  C   UNL     1       2.646   7.650  18.315  0.00  0.00    +0.000 C 
BRANCH  30  31
ATOM     31  C   UNL     1       2.722   6.158  18.547  0.00  0.00    +0.000 A 
ATOM     32  C   UNL     1       1.797   5.302  17.924  0.00  0.00    +0.000 A 
ATOM     33  C   UNL     1       1.983   3.919  17.967  0.00  0.00    +0.000 A 
ATOM     34  C   UNL     1       3.075   3.394  18.647  0.00  0.00    +0.000 A 
ATOM     35  F   UNL     1       3.287   2.072  18.631  0.00  0.00    +0.000 F 
ATOM     36  C   UNL     1       3.965   4.220  19.323  0.00  0.00    +0.000 A 
ATOM     37  C   UNL     1       3.781   5.603  19.284  0.00  0.00    +0.000 A 
ENDBRANCH  30  31
ENDBRANCH   9  30
TORSDOF 9
ENDMDL
MODEL 5
REMARK VINA RESULT:      -7.8      0.982      1.542
REMARK  Name = 
REMARK  13 active torsions:
REMARK  status: ('A' for Active; 'I' for Inactive)
REMARK    1  A    between atoms: C_1  and  N_2
REMARK    2  A    between atoms: N_2  and  C_3
REMARK    3  A    between atoms: C_4  and  C_6
REMARK    4  A    between atoms: C_6  and  N_7
REMARK    5  A    between atoms: C_10  and  C_11
REMARK    6  A    between atoms: N_13  and  C_14
REMARK    7  A    between atoms: C_14  and  C_15
REMARK    8  A    between atoms: C_14  and  C_16
REMARK    9  A    between atoms: C_14  and  C_17
REMARK   10  A    between atoms: C_17  and  O_18
REMARK   11  A    between atoms: C_19  and  O_20
REMARK   12  A    between atoms: C_24  and  C_25
REMARK   13  A    between atoms: C_25  and  C_26
REMARK                            x       y       z     vdW  Elec       q    Type
REMARK                         _______ _______ _______ _____ _____    ______ ____
ROOT
ATOM      1  N   UNL     1       2.614   6.396  19.825  0.00  0.00    +0.000 N 
ATOM      2  C   UNL     1       1.853   7.489  20.216  0.00  0.00    +0.000 A 
ATOM      3  O   UNL     1       1.286   7.536  21.312  0.00  0.00    +0.000 OA
ATOM      4  C   UNL     1       1.664   8.599  19.237  0.00  0.00    +0.000 A 
ATOM      5  C   UNL     1       2.359   8.606  18.091  0.00  0.00    +0.000 A 
ATOM      6  C   UNL     1       3.299   7.519  17.778  0.00  0.00    +0.000 A 
ATOM      7  N   UNL     1       3.991   7.628  16.621  0.00  0.00    +0.000 NA
ATOM      8  C   UNL     1       4.868   6.652  16.317  0.00  0.00    +0.000 A 
ATOM      9  C   UNL     1       5.109   5.555  17.129  0.00  0.00    +0.000 A 
ATOM     10  C   UNL     1       4.350   5.445  18.306  0.00  0.00    +0.000 A 
ATOM     11  C   UNL     1       3.420   6.432  18.647  0.00  0.00    +0.000 A 
ENDROOT
BRANCH   4  12
ATOM     12  C   UNL     1       0.700   9.722  19.472  0.00  0.00    +0.000 C 
ATOM     13  O   UNL     1      -0.051  10.085  18.574  0.00  0.00    +0.000 OA
ATOM     14  N   UNL     1       0.682  10.281  20.730  0.00  0.00    +0.000 N 
ATOM     15  H   UNL     1       1.349   9.928  21.417  0.00  0.00    +0.000 HD
BRANCH  14  16
ATOM     16  C   UNL     1      -0.219  11.384  21.120  0.00  0.00    +0.000 C 
ATOM     17  C   UNL     1      -0.693  11.158  22.573  0.00  0.00    +0.000 C 
ATOM     18  C   UNL     1       0.515  12.738  21.024  0.00  0.00    +0.000 C 
BRANCH  16  19
ATOM     19  C   UNL     1      -1.456  11.425  20.182  0.00  0.00    +0.000 C 
BRANCH  19  20
ATOM     20  O   UNL     1      -1.549  12.646  19.447  0.00  0.00    +0.000 OA
ATOM     21  H   UNL     1      -1.454  12.421  18.505  0.00  0.00    +0.000 HD
ENDBRANCH  19  20
ENDBRANCH  16  19
ENDBRANCH  14  16
ENDBRANCH   4  12
BRANCH   5  22
ATOM     22  O   UNL     1       2.281   9.597  17.116  0.00  0.00    +0.000 OA
ATOM     23  H   UNL     1       1.694   9.285  16.392  0.00  0.00    +0.000 HD
ENDBRANCH   5  22
BRANCH   1  24
ATOM     24  C   UNL     1       2.588   5.225  20.702  0.00  0.00    +0.000 C 
BRANCH  24  28
ATOM     25  C   UNL     1       1.461   1.826  19.363  0.00  0.00    +0.000 C 
ATOM     26  N   UNL     1       2.304   2.899  19.858  0.00  0.00    +0.000 N 
ATOM     27  C   UNL     1       3.719   2.641  20.057  0.00  0.00    +0.000 C 
ATOM     28  C   UNL     1       1.682   4.107  20.160  0.00  0.00    +0.000 C 
ATOM     29  O   UNL     1       0.474   4.266  20.027  0.00  0.00    +0.000 OA
ENDBRANCH  24  28
ENDBRANCH   1  24
BRANCH   9  30
ATOM     30  C   UNL     1       6.162   4.531  16.811  0.00  0.00    +0.000 C 
BRANCH  30  31
ATOM     31  C   UNL     1       6.554   4.421  15.355  0.00  0.00    +0.000 A 
ATOM     32  C   UNL     1       5.777   3.650  14.473  0.00  0.00    +0.000 A 
ATOM     33  C   UNL     1       6.010   3.709  13.098  0.00  0.00    +0.000 A 
ATOM     34  C   UNL     1       7.030   4.515  12.609  0.00  0.00    +0.000 A 
ATOM     35  F   UNL     1       7.209   4.620  11.286  0.00  0.00    +0.000 F 
ATOM     36  C   UNL     1       7.851   5.236  13.469  0.00  0.00    +0.000 A 
ATOM     37  C   UNL     1       7.621   5.178  14.844  0.00  0.00    +0.000 A 
ENDBRANCH  30  31
ENDBRANCH   9  30
TORSDOF 9
ENDMDL
MODEL 6
REMARK VINA RESULT:      -7.7      1.050      1.404
REMARK  Name = 
REMARK  13 active torsions:
REMARK  status: ('A' for Active; 'I' for Inactive)
REMARK    1  A    between atoms: C_1  and  N_2
REMARK    2  A    between atoms: N_2  and  C_3
REMARK    3  A    between atoms: C_4  and  C_6
REMARK    4  A    between atoms: C_6  and  N_7
REMARK    5  A    between atoms: C_10  and  C_11
REMARK    6  A    between atoms: N_13  and  C_14
REMARK    7  A    between atoms: C_14  and  C_15
REMARK    8  A    between atoms: C_14  and  C_16
REMARK    9  A    between atoms: C_14  and  C_17
REMARK   10  A    between atoms: C_17  and  O_18
REMARK   11  A    between atoms: C_19  and  O_20
REMARK   12  A    between atoms: C_24  and  C_25
REMARK   13  A    between atoms: C_25  and  C_26
REMARK                            x       y       z     vdW  Elec       q    Type
REMARK                         _______ _______ _______ _____ _____    ______ ____
ROOT
ATOM      1  N   UNL     1       2.541   6.485  19.826  0.00  0.00    +0.000 N 
ATOM      2  C   UNL     1       1.801   7.566  20.284  0.00  0.00    +0.000 A 
ATOM      3  O   UNL     1       1.286   7.581  21.406  0.00  0.00    +0.000 OA
ATOM      4  C   UNL     1       1.568   8.705  19.349  0.00  0.00    +0.000 A 
ATOM      5  C   UNL     1       2.210   8.746  18.172  0.00  0.00    +0.000 A 
ATOM      6  C   UNL     1       3.133   7.668  17.784  0.00  0.00    +0.000 A 
ATOM      7  N   UNL     1       3.771   7.812  16.600  0.00  0.00    +0.000 NA
ATOM      8  C   UNL     1       4.631   6.845  16.226  0.00  0.00    +0.000 A 
ATOM      9  C   UNL     1       4.908   5.724  16.994  0.00  0.00    +0.000 A 
ATOM     10  C   UNL     1       4.203   5.580  18.201  0.00  0.00    +0.000 A 
ATOM     11  C   UNL     1       3.292   6.556  18.614  0.00  0.00    +0.000 A 
ENDROOT
BRANCH   4  12
ATOM     12  C   UNL     1       0.618   9.821  19.662  0.00  0.00    +0.000 C 
ATOM     13  O   UNL     1      -0.524   9.570  20.029  0.00  0.00    +0.000 OA
ATOM     14  N   UNL     1       1.101  11.105  19.552  0.00  0.00    +0.000 N 
ATOM     15  H   UNL     1       2.060  11.227  19.229  0.00  0.00    +0.000 HD
BRANCH  14  16
ATOM     16  C   UNL     1       0.293  12.308  19.839  0.00  0.00    +0.000 C 
ATOM     17  C   UNL     1       1.155  13.566  19.594  0.00  0.00    +0.000 C 
ATOM     18  C   UNL     1      -0.951  12.351  18.926  0.00  0.00    +0.000 C 
BRANCH  16  19
ATOM     19  C   UNL     1      -0.181  12.297  21.318  0.00  0.00    +0.000 C 
BRANCH  19  20
ATOM     20  O   UNL     1      -1.559  11.950  21.453  0.00  0.00    +0.000 OA
ATOM     21  H   UNL     1      -1.967  12.050  20.575  0.00  0.00    +0.000 HD
ENDBRANCH  19  20
ENDBRANCH  16  19
ENDBRANCH  14  16
ENDBRANCH   4  12
BRANCH   5  22
ATOM     22  O   UNL     1       2.088   9.765  17.233  0.00  0.00    +0.000 OA
ATOM     23  H   UNL     1       1.367   9.535  16.605  0.00  0.00    +0.000 HD
ENDBRANCH   5  22
BRANCH   1  24
ATOM     24  C   UNL     1       2.554   5.289  20.668  0.00  0.00    +0.000 C 
BRANCH  24  28
ATOM     25  C   UNL     1       1.449   1.883  19.328  0.00  0.00    +0.000 C 
ATOM     26  N   UNL     1       2.283   2.957  19.837  0.00  0.00    +0.000 N 
ATOM     27  C   UNL     1       3.691   2.694  20.078  0.00  0.00    +0.000 C 
ATOM     28  C   UNL     1       1.659   4.170  20.110  0.00  0.00    +0.000 C 
ATOM     29  O   UNL     1       0.455   4.334  19.942  0.00  0.00    +0.000 OA
ENDBRANCH  24  28
ENDBRANCH   1  24
BRANCH   9  30
ATOM     30  C   UNL     1       5.943   4.711  16.597  0.00  0.00    +0.000 C 
BRANCH  30  31
ATOM     31  C   UNL     1       6.242   4.620  15.118  0.00  0.00    +0.000 A 
ATOM     32  C   UNL     1       7.397   5.228  14.595  0.00  0.00    +0.000 A 
ATOM     33  C   UNL     1       7.786   4.977  13.278  0.00  0.00    +0.000 A 
ATOM     34  C   UNL     1       7.014   4.141  12.481  0.00  0.00    +0.000 A 
ATOM     35  F   UNL     1       7.424   3.850  11.240  0.00  0.00    +0.000 F 
ATOM     36  C   UNL     1       5.834   3.582  12.959  0.00  0.00    +0.000 A 
ATOM     37  C   UNL     1       5.441   3.832  14.275  0.00  0.00    +0.000 A 
ENDBRANCH  30  31
ENDBRANCH   9  30
TORSDOF 9
ENDMDL
MODEL 7
REMARK VINA RESULT:      -7.7      0.450      1.169
REMARK  Name = 
REMARK  13 active torsions:
REMARK  status: ('A' for Active; 'I' for Inactive)
REMARK    1  A    between atoms: C_1  and  N_2
REMARK    2  A    between atoms: N_2  and  C_3
REMARK    3  A    between atoms: C_4  and  C_6
REMARK    4  A    between atoms: C_6  and  N_7
REMARK    5  A    between atoms: C_10  and  C_11
REMARK    6  A    between atoms: N_13  and  C_14
REMARK    7  A    between atoms: C_14  and  C_15
REMARK    8  A    between atoms: C_14  and  C_16
REMARK    9  A    between atoms: C_14  and  C_17
REMARK   10  A    between atoms: C_17  and  O_18
REMARK   11  A    between atoms: C_19  and  O_20
REMARK   12  A    between atoms: C_24  and  C_25
REMARK   13  A    between atoms: C_25  and  C_26
REMARK                            x       y       z     vdW  Elec       q    Type
REMARK                         _______ _______ _______ _____ _____    ______ ____
ROOT
ATOM      1  N   UNL     1       2.655   6.400  19.781  0.00  0.00    +0.000 N 
ATOM      2  C   UNL     1       1.914   7.503  20.184  0.00  0.00    +0.000 A 
ATOM      3  O   UNL     1       1.356   7.552  21.284  0.00  0.00    +0.000 OA
ATOM      4  C   UNL     1       1.736   8.622  19.213  0.00  0.00    +0.000 A 
ATOM      5  C   UNL     1       2.423   8.624  18.062  0.00  0.00    +0.000 A 
ATOM      6  C   UNL     1       3.344   7.525  17.736  0.00  0.00    +0.000 A 
ATOM      7  N   UNL     1       4.030   7.630  16.575  0.00  0.00    +0.000 NA
ATOM      8  C   UNL     1       4.890   6.642  16.259  0.00  0.00    +0.000 A 
ATOM      9  C   UNL     1       5.119   5.537  17.064  0.00  0.00    +0.000 A 
ATOM     10  C   UNL     1       4.366   5.432  18.245  0.00  0.00    +0.000 A 
ATOM     11  C   UNL     1       3.454   6.431  18.598  0.00  0.00    +0.000 A 
ENDROOT
BRANCH   4  12
ATOM     12  C   UNL     1       0.791   9.758  19.461  0.00  0.00    +0.000 C 
ATOM     13  O   UNL     1       0.871  10.408  20.497  0.00  0.00    +0.000 OA
ATOM     14  N   UNL     1      -0.121  10.044  18.471  0.00  0.00    +0.000 N 
ATOM     15  H   UNL     1      -0.129   9.446  17.644  0.00  0.00    +0.000 HD
BRANCH  14  16
ATOM     16  C   UNL     1      -1.108  11.139  18.561  0.00  0.00    +0.000 C 
ATOM     17  C   UNL     1      -1.733  11.141  19.973  0.00  0.00    +0.000 C 
ATOM     18  C   UNL     1      -0.428  12.499  18.298  0.00  0.00    +0.000 C 
BRANCH  16  19
ATOM     19  C   UNL     1      -2.232  10.937  17.508  0.00  0.00    +0.000 C 
BRANCH  19  20
ATOM     20  O   UNL     1      -2.078  11.784  16.369  0.00  0.00    +0.000 OA
ATOM     21  H   UNL     1      -1.130  11.805  16.153  0.00  0.00    +0.000 HD
ENDBRANCH  19  20
ENDBRANCH  16  19
ENDBRANCH  14  16
ENDBRANCH   4  12
BRANCH   5  22
ATOM     22  O   UNL     1       2.354   9.622  17.094  0.00  0.00    +0.000 OA
ATOM     23  H   UNL     1       2.005   9.233  16.261  0.00  0.00    +0.000 HD
ENDBRANCH   5  22
BRANCH   1  24
ATOM     24  C   UNL     1       2.617   5.225  20.651  0.00  0.00    +0.000 C 
BRANCH  24  28
ATOM     25  C   UNL     1       1.280   1.904  19.311  0.00  0.00    +0.000 C 
ATOM     26  N   UNL     1       2.192   2.934  19.772  0.00  0.00    +0.000 N 
ATOM     27  C   UNL     1       3.609   2.623  19.865  0.00  0.00    +0.000 C 
ATOM     28  C   UNL     1       1.637   4.154  20.146  0.00  0.00    +0.000 C 
ATOM     29  O   UNL     1       0.429   4.357  20.102  0.00  0.00    +0.000 OA
ENDBRANCH  24  28
ENDBRANCH   1  24
BRANCH   9  30
ATOM     30  C   UNL     1       6.154   4.500  16.732  0.00  0.00    +0.000 C 
BRANCH  30  31
ATOM     31  C   UNL     1       6.542   4.399  15.275  0.00  0.00    +0.000 A 
ATOM     32  C   UNL     1       5.776   3.614  14.396  0.00  0.00    +0.000 A 
ATOM     33  C   UNL     1       6.002   3.678  13.020  0.00  0.00    +0.000 A 
ATOM     34  C   UNL     1       7.004   4.505  12.527  0.00  0.00    +0.000 A 
ATOM     35  F   UNL     1       7.175   4.615  11.203  0.00  0.00    +0.000 F 
ATOM     36  C   UNL     1       7.814   5.240  13.384  0.00  0.00    +0.000 A 
ATOM     37  C   UNL     1       7.592   5.177  14.761  0.00  0.00    +0.000 A 
ENDBRANCH  30  31
ENDBRANCH   9  30
TORSDOF 9
ENDMDL
MODEL 8
REMARK VINA RESULT:      -7.7      1.044      1.902
REMARK  Name = 
REMARK  13 active torsions:
REMARK  status: ('A' for Active; 'I' for Inactive)
REMARK    1  A    between atoms: C_1  and  N_2
REMARK    2  A    between atoms: N_2  and  C_3
REMARK    3  A    between atoms: C_4  and  C_6
REMARK    4  A    between atoms: C_6  and  N_7
REMARK    5  A    between atoms: C_10  and  C_11
REMARK    6  A    between atoms: N_13  and  C_14
REMARK    7  A    between atoms: C_14  and  C_15
REMARK    8  A    between atoms: C_14  and  C_16
REMARK    9  A    between atoms: C_14  and  C_17
REMARK   10  A    between atoms: C_17  and  O_18
REMARK   11  A    between atoms: C_19  and  O_20
REMARK   12  A    between atoms: C_24  and  C_25
REMARK   13  A    between atoms: C_25  and  C_26
REMARK                            x       y       z     vdW  Elec       q    Type
REMARK                         _______ _______ _______ _____ _____    ______ ____
ROOT
ATOM      1  N   UNL     1       2.599   6.374  19.822  0.00  0.00    +0.000 N 
ATOM      2  C   UNL     1       1.842   7.467  20.219  0.00  0.00    +0.000 A 
ATOM      3  O   UNL     1       1.279   7.511  21.317  0.00  0.00    +0.000 OA
ATOM      4  C   UNL     1       1.651   8.581  19.245  0.00  0.00    +0.000 A 
ATOM      5  C   UNL     1       2.343   8.590  18.097  0.00  0.00    +0.000 A 
ATOM      6  C   UNL     1       3.280   7.503  17.777  0.00  0.00    +0.000 A 
ATOM      7  N   UNL     1       3.969   7.615  16.618  0.00  0.00    +0.000 NA
ATOM      8  C   UNL     1       4.843   6.638  16.308  0.00  0.00    +0.000 A 
ATOM      9  C   UNL     1       5.085   5.538  17.116  0.00  0.00    +0.000 A 
ATOM     10  C   UNL     1       4.328   5.426  18.294  0.00  0.00    +0.000 A 
ATOM     11  C   UNL     1       3.402   6.413  18.642  0.00  0.00    +0.000 A 
ENDROOT
BRANCH   4  12
ATOM     12  C   UNL     1       0.690   9.705  19.487  0.00  0.00    +0.000 C 
ATOM     13  O   UNL     1      -0.035  10.099  18.581  0.00  0.00    +0.000 OA
ATOM     14  N   UNL     1       0.644  10.228  20.760  0.00  0.00    +0.000 N 
ATOM     15  H   UNL     1       1.290   9.850  21.453  0.00  0.00    +0.000 HD
BRANCH  14  16
ATOM     16  C   UNL     1      -0.258  11.328  21.158  0.00  0.00    +0.000 C 
ATOM     17  C   UNL     1       0.455  12.677  20.920  0.00  0.00    +0.000 C 
ATOM     18  C   UNL     1      -1.560  11.282  20.332  0.00  0.00    +0.000 C 
BRANCH  16  19
ATOM     19  C   UNL     1      -0.623  11.204  22.663  0.00  0.00    +0.000 C 
BRANCH  19  20
ATOM     20  O   UNL     1      -1.003   9.878  23.030  0.00  0.00    +0.000 OA
ATOM     21  H   UNL     1      -1.969   9.820  22.936  0.00  0.00    +0.000 HD
ENDBRANCH  19  20
ENDBRANCH  16  19
ENDBRANCH  14  16
ENDBRANCH   4  12
BRANCH   5  22
ATOM     22  O   UNL     1       2.264   9.585  17.126  0.00  0.00    +0.000 OA
ATOM     23  H   UNL     1       1.363   9.979  17.147  0.00  0.00    +0.000 HD
ENDBRANCH   5  22
BRANCH   1  24
ATOM     24  C   UNL     1       2.574   5.200  20.695  0.00  0.00    +0.000 C 
BRANCH  24  28
ATOM     25  C   UNL     1       1.509   1.792  19.329  0.00  0.00    +0.000 C 
ATOM     26  N   UNL     1       2.331   2.874  19.840  0.00  0.00    +0.000 N 
ATOM     27  C   UNL     1       3.746   2.632  20.061  0.00  0.00    +0.000 C 
ATOM     28  C   UNL     1       1.690   4.073  20.135  0.00  0.00    +0.000 C 
ATOM     29  O   UNL     1       0.482   4.218  19.984  0.00  0.00    +0.000 OA
ENDBRANCH  24  28
ENDBRANCH   1  24
BRANCH   9  30
ATOM     30  C   UNL     1       6.134   4.514  16.790  0.00  0.00    +0.000 C 
BRANCH  30  31
ATOM     31  C   UNL     1       6.512   4.399  15.331  0.00  0.00    +0.000 A 
ATOM     32  C   UNL     1       5.722   3.633  14.457  0.00  0.00    +0.000 A 
ATOM     33  C   UNL     1       5.943   3.689  13.080  0.00  0.00    +0.000 A 
ATOM     34  C   UNL     1       6.964   4.487  12.581  0.00  0.00    +0.000 A 
ATOM     35  F   UNL     1       7.132   4.590  11.256  0.00  0.00    +0.000 F 
ATOM     36  C   UNL     1       7.798   5.202  13.432  0.00  0.00    +0.000 A 
ATOM     37  C   UNL     1       7.581   5.148  14.810  0.00  0.00    +0.000 A 
ENDBRANCH  30  31
ENDBRANCH   9  30
TORSDOF 9
ENDMDL
MODEL 9
REMARK VINA RESULT:      -7.7      4.273      7.195
REMARK  Name = 
REMARK  13 active torsions:
REMARK  status: ('A' for Active; 'I' for Inactive)
REMARK    1  A    between atoms: C_1  and  N_2
REMARK    2  A    between atoms: N_2  and  C_3
REMARK    3  A    between atoms: C_4  and  C_6
REMARK    4  A    between atoms: C_6  and  N_7
REMARK    5  A    between atoms: C_10  and  C_11
REMARK    6  A    between atoms: N_13  and  C_14
REMARK    7  A    between atoms: C_14  and  C_15
REMARK    8  A    between atoms: C_14  and  C_16
REMARK    9  A    between atoms: C_14  and  C_17
REMARK   10  A    between atoms: C_17  and  O_18
REMARK   11  A    between atoms: C_19  and  O_20
REMARK   12  A    between atoms: C_24  and  C_25
REMARK   13  A    between atoms: C_25  and  C_26
REMARK                            x       y       z     vdW  Elec       q    Type
REMARK                         _______ _______ _______ _____ _____    ______ ____
ROOT
ATOM      1  N   UNL     1      -0.489  11.322  19.722  0.00  0.00    +0.000 N 
ATOM      2  C   UNL     1      -1.457  11.953  20.492  0.00  0.00    +0.000 A 
ATOM      3  O   UNL     1      -2.197  12.827  20.028  0.00  0.00    +0.000 OA
ATOM      4  C   UNL     1      -1.539  11.606  21.940  0.00  0.00    +0.000 A 
ATOM      5  C   UNL     1      -0.816  10.587  22.426  0.00  0.00    +0.000 A 
ATOM      6  C   UNL     1       0.074   9.813  21.547  0.00  0.00    +0.000 A 
ATOM      7  N   UNL     1       0.733   8.775  22.110  0.00  0.00    +0.000 NA
ATOM      8  C   UNL     1       1.545   8.043  21.324  0.00  0.00    +0.000 A 
ATOM      9  C   UNL     1       1.728   8.285  19.971  0.00  0.00    +0.000 A 
ATOM     10  C   UNL     1       1.063   9.393  19.420  0.00  0.00    +0.000 A 
ATOM     11  C   UNL     1       0.224  10.184  20.209  0.00  0.00    +0.000 A 
ENDROOT
BRANCH   4  12
ATOM     12  C   UNL     1      -2.398  12.370  22.902  0.00  0.00    +0.000 C 
ATOM     13  O   UNL     1      -1.882  13.022  23.802  0.00  0.00    +0.000 OA
ATOM     14  N   UNL     1      -3.759  12.327  22.699  0.00  0.00    +0.000 N 
ATOM     15  H   UNL     1      -4.108  11.751  21.933  0.00  0.00    +0.000 HD
BRANCH  14  16
ATOM     16  C   UNL     1      -4.734  13.037  23.551  0.00  0.00    +0.000 C 
ATOM     17  C   UNL     1      -4.749  12.384  24.951  0.00  0.00    +0.000 C 
ATOM     18  C   UNL     1      -4.352  14.525  23.682  0.00  0.00    +0.000 C 
BRANCH  16  19
ATOM     19  C   UNL     1      -6.156  12.944  22.933  0.00  0.00    +0.000 C 
BRANCH  19  20
ATOM     20  O   UNL     1      -6.256  11.929  21.933  0.00  0.00    +0.000 OA
ATOM     21  H   UNL     1      -6.680  12.332  21.157  0.00  0.00    +0.000 HD
ENDBRANCH  19  20
ENDBRANCH  16  19
ENDBRANCH  14  16
ENDBRANCH   4  12
BRANCH   5  22
ATOM     22  O   UNL     1      -0.829  10.160  23.751  0.00  0.00    +0.000 OA
ATOM     23  H   UNL     1      -0.644   9.194  23.776  0.00  0.00    +0.000 HD
ENDBRANCH   5  22
BRANCH   1  24
ATOM     24  C   UNL     1      -0.271  11.846  18.375  0.00  0.00    +0.000 C 
BRANCH  24  28
ATOM     25  C   UNL     1       2.564  14.405  18.187  0.00  0.00    +0.000 C 
ATOM     26  N   UNL     1       1.850  13.142  18.201  0.00  0.00    +0.000 N 
ATOM     27  C   UNL     1       2.595  11.915  17.975  0.00  0.00    +0.000 C 
ATOM     28  C   UNL     1       0.471  13.193  18.384  0.00  0.00    +0.000 C 
ATOM     29  O   UNL     1      -0.126  14.255  18.518  0.00  0.00    +0.000 OA
ENDBRANCH  24  28
ENDBRANCH   1  24
BRANCH   9  30
ATOM     30  C   UNL     1       2.566   7.394  19.099  0.00  0.00    +0.000 C 
BRANCH  30  31
ATOM     31  C   UNL     1       2.176   5.933  19.084  0.00  0.00    +0.000 A 
ATOM     32  C   UNL     1       1.741   5.309  20.265  0.00  0.00    +0.000 A 
ATOM     33  C   UNL     1       1.188   4.028  20.218  0.00  0.00    +0.000 A 
ATOM     34  C   UNL     1       1.092   3.366  19.001  0.00  0.00    +0.000 A 
ATOM     35  F   UNL     1       0.501   2.165  18.949  0.00  0.00    +0.000 F 
ATOM     36  C   UNL     1       1.575   3.940  17.831  0.00  0.00    +0.000 A 
ATOM     37  C   UNL     1       2.130   5.220  17.874  0.00  0.00    +0.000 A 
ENDBRANCH  30  31
ENDBRANCH   9  30
TORSDOF 9
ENDMDL
