MODEL 1
REMARK VINA RESULT:      -7.7      0.000      0.000
REMARK  Name = 
REMARK  8 active torsions:
REMARK  status: ('A' for Active; 'I' for Inactive)
REMARK    1  A    between atoms: C_1  and  C_2
REMARK    2  A    between atoms: C_2  and  C_4
REMARK    3  A    between atoms: C_6  and  N_7
REMARK    4  A    between atoms: C_13  and  C_14
REMARK    5  A    between atoms: C_17  and  O_18
REMARK    6  A    between atoms: C_23  and  C_24
REMARK    7  A    between atoms: C_24  and  C_25
REMARK    8  A    between atoms: C_24  and  C_26
REMARK                            x       y       z     vdW  Elec       q    Type
REMARK                         _______ _______ _______ _____ _____    ______ ____
ROOT
ATOM      1  N   UNL     1       0.881   8.716  21.781  0.00  0.00    +0.000 NA
ATOM      2  C   UNL     1       1.315   8.311  20.637  0.00  0.00    +0.000 C 
ATOM      3  N   UNL     1       1.465   9.034  19.493  0.00  0.00    +0.000 N 
ATOM      4  C   UNL     1       2.013   8.424  18.409  0.00  0.00    +0.000 C 
ATOM      5  O   UNL     1       2.246   8.970  17.342  0.00  0.00    +0.000 OA
ATOM      6  C   UNL     1       2.293   7.000  18.731  0.00  0.00    +0.000 C 
ATOM      7  C   UNL     1       2.842   6.186  17.821  0.00  0.00    +0.000 C 
ATOM      8  S   UNL     1       1.820   6.658  20.356  0.00  0.00    +0.000 S 
ATOM      9  H   UNL     1       1.213  10.015  19.476  0.00  0.00    +0.000 HD
ENDROOT
BRANCH   7  10
ATOM     10  C   UNL     1       3.144   4.766  17.999  0.00  0.00    +0.000 A 
ATOM     11  C   UNL     1       4.272   4.377  18.733  0.00  0.00    +0.000 A 
ATOM     12  C   UNL     1       4.546   3.021  18.939  0.00  0.00    +0.000 A 
ATOM     13  C   UNL     1       3.689   2.063  18.408  0.00  0.00    +0.000 A 
ATOM     14  C   UNL     1       2.564   2.437  17.682  0.00  0.00    +0.000 A 
ATOM     15  C   UNL     1       2.291   3.791  17.473  0.00  0.00    +0.000 A 
BRANCH  13  16
ATOM     16  O   UNL     1       3.918   0.730  18.583  0.00  0.00    +0.000 OA
ATOM     17  H   UNL     1       3.979   0.308  17.710  0.00  0.00    +0.000 HD
ENDBRANCH  13  16
ENDBRANCH   7  10
BRANCH   1  20
ATOM     18  C   UNL     1      -0.651  12.078  22.519  0.00  0.00    +0.000 A 
ATOM     19  S   UNL     1      -0.773  10.424  22.957  0.00  0.00    +0.000 S 
ATOM     20  C   UNL     1       0.509  10.018  21.886  0.00  0.00    +0.000 A 
ATOM     21  N   UNL     1       1.011  11.054  21.245  0.00  0.00    +0.000 NA
ATOM     22  C   UNL     1       0.354  12.233  21.574  0.00  0.00    +0.000 A 
BRANCH  18  24
ATOM     23  C   UNL     1      -2.987  13.060  22.838  0.00  0.00    +0.000 C 
ATOM     24  C   UNL     1      -1.501  13.093  23.126  0.00  0.00    +0.000 C 
ATOM     25  O   UNL     1      -1.053  13.985  23.848  0.00  0.00    +0.000 OA
ENDBRANCH  18  24
BRANCH  22  26
ATOM     26  C   UNL     1       0.795  13.506  20.883  0.00  0.00    +0.000 C 
ATOM     27  C   UNL     1       2.231  13.387  20.372  0.00  0.00    +0.000 C 
ATOM     28  C   UNL     1      -0.127  13.894  19.719  0.00  0.00    +0.000 C 
ENDBRANCH  22  26
ENDBRANCH   1  20
TORSDOF 5
ENDMDL
MODEL 2
REMARK VINA RESULT:      -7.4      0.696      1.231
REMARK  Name = 
REMARK  8 active torsions:
REMARK  status: ('A' for Active; 'I' for Inactive)
REMARK    1  A    between atoms: C_1  and  C_2
REMARK    2  A    between atoms: C_2  and  C_4
REMARK    3  A    between atoms: C_6  and  N_7
REMARK    4  A    between atoms: C_13  and  C_14
REMARK    5  A    between atoms: C_17  and  O_18
REMARK    6  A    between atoms: C_23  and  C_24
REMARK    7  A    between atoms: C_24  and  C_25
REMARK    8  A    between atoms: C_24  and  C_26
REMARK                            x       y       z     vdW  Elec       q    Type
REMARK                         _______ _______ _______ _____ _____    ______ ____
ROOT
ATOM      1  N   UNL     1       0.778   9.128  21.873  0.00  0.00    +0.000 NA
ATOM      2  C   UNL     1       1.192   8.702  20.729  0.00  0.00    +0.000 C 
ATOM      3  N   UNL     1       1.294   9.396  19.563  0.00  0.00    +0.000 N 
ATOM      4  C   UNL     1       1.828   8.771  18.482  0.00  0.00    +0.000 C 
ATOM      5  O   UNL     1       2.019   9.293  17.395  0.00  0.00    +0.000 OA
ATOM      6  C   UNL     1       2.153   7.363  18.834  0.00  0.00    +0.000 C 
ATOM      7  C   UNL     1       2.699   6.539  17.932  0.00  0.00    +0.000 C 
ATOM      8  S   UNL     1       1.731   7.055  20.480  0.00  0.00    +0.000 S 
ATOM      9  H   UNL     1       1.016  10.370  19.527  0.00  0.00    +0.000 HD
ENDROOT
BRANCH   7  10
ATOM     10  C   UNL     1       3.041   5.132  18.140  0.00  0.00    +0.000 A 
ATOM     11  C   UNL     1       2.194   4.127  17.655  0.00  0.00    +0.000 A 
ATOM     12  C   UNL     1       2.533   2.780  17.816  0.00  0.00    +0.000 A 
ATOM     13  C   UNL     1       3.719   2.447  18.462  0.00  0.00    +0.000 A 
ATOM     14  C   UNL     1       4.571   3.435  18.942  0.00  0.00    +0.000 A 
ATOM     15  C   UNL     1       4.231   4.781  18.784  0.00  0.00    +0.000 A 
BRANCH  13  16
ATOM     16  O   UNL     1       4.089   1.147  18.642  0.00  0.00    +0.000 OA
ATOM     17  H   UNL     1       4.797   1.115  19.307  0.00  0.00    +0.000 HD
ENDBRANCH  13  16
ENDBRANCH   7  10
BRANCH   1  20
ATOM     18  C   UNL     1      -0.882  12.455  22.476  0.00  0.00    +0.000 A 
ATOM     19  S   UNL     1      -1.029  10.793  22.872  0.00  0.00    +0.000 S 
ATOM     20  C   UNL     1       0.376  10.423  21.953  0.00  0.00    +0.000 A 
ATOM     21  N   UNL     1       0.934  11.476  21.392  0.00  0.00    +0.000 NA
ATOM     22  C   UNL     1       0.225  12.640  21.658  0.00  0.00    +0.000 A 
BRANCH  18  24
ATOM     23  C   UNL     1      -1.317  14.442  24.022  0.00  0.00    +0.000 C 
ATOM     24  C   UNL     1      -1.814  13.448  22.994  0.00  0.00    +0.000 C 
ATOM     25  O   UNL     1      -2.993  13.496  22.640  0.00  0.00    +0.000 OA
ENDBRANCH  18  24
BRANCH  22  26
ATOM     26  C   UNL     1       0.723  13.930  21.044  0.00  0.00    +0.000 C 
ATOM     27  C   UNL     1       2.217  13.849  20.727  0.00  0.00    +0.000 C 
ATOM     28  C   UNL     1      -0.045  14.311  19.770  0.00  0.00    +0.000 C 
ENDBRANCH  22  26
ENDBRANCH   1  20
TORSDOF 5
ENDMDL
MODEL 3
REMARK VINA RESULT:      -7.1      1.957      9.201
REMARK  Name = 
REMARK  8 active torsions:
REMARK  status: ('A' for Active; 'I' for Inactive)
REMARK    1  A    between atoms: C_1  and  C_2
REMARK    2  A    between atoms: C_2  and  C_4
REMARK    3  A    between atoms: C_6  and  N_7
REMARK    4  A    between atoms: C_13  and  C_14
REMARK    5  A    between atoms: C_17  and  O_18
REMARK    6  A    between atoms: C_23  and  C_24
REMARK    7  A    between atoms: C_24  and  C_25
REMARK    8  A    between atoms: C_24  and  C_26
REMARK                            x       y       z     vdW  Elec       q    Type
REMARK                         _______ _______ _______ _____ _____    ______ ____
ROOT
ATOM      1  N   UNL     1       1.648   6.745  20.869  0.00  0.00    +0.000 NA
ATOM      2  C   UNL     1       1.458   7.861  20.252  0.00  0.00    +0.000 C 
ATOM      3  N   UNL     1       1.986   8.261  19.063  0.00  0.00    +0.000 N 
ATOM      4  C   UNL     1       1.594   9.458  18.552  0.00  0.00    +0.000 C 
ATOM      5  O   UNL     1       1.953   9.910  17.476  0.00  0.00    +0.000 OA
ATOM      6  C   UNL     1       0.656  10.118  19.498  0.00  0.00    +0.000 C 
ATOM      7  C   UNL     1       0.124  11.313  19.214  0.00  0.00    +0.000 C 
ATOM      8  S   UNL     1       0.417   9.119  20.885  0.00  0.00    +0.000 S 
ATOM      9  H   UNL     1       2.619   7.653  18.559  0.00  0.00    +0.000 HD
ENDROOT
BRANCH   7  10
ATOM     10  C   UNL     1      -0.787  12.080  20.064  0.00  0.00    +0.000 A 
ATOM     11  C   UNL     1      -2.155  12.118  19.768  0.00  0.00    +0.000 A 
ATOM     12  C   UNL     1      -3.037  12.818  20.597  0.00  0.00    +0.000 A 
ATOM     13  C   UNL     1      -2.543  13.475  21.719  0.00  0.00    +0.000 A 
ATOM     14  C   UNL     1      -1.188  13.440  22.027  0.00  0.00    +0.000 A 
ATOM     15  C   UNL     1      -0.306  12.743  21.197  0.00  0.00    +0.000 A 
BRANCH  13  16
ATOM     16  O   UNL     1      -3.366  14.170  22.554  0.00  0.00    +0.000 OA
ATOM     17  H   UNL     1      -2.961  14.199  23.437  0.00  0.00    +0.000 HD
ENDBRANCH  13  16
ENDBRANCH   7  10
BRANCH   1  20
ATOM     18  C   UNL     1       3.640   3.769  19.702  0.00  0.00    +0.000 A 
ATOM     19  S   UNL     1       2.353   4.191  20.754  0.00  0.00    +0.000 S 
ATOM     20  C   UNL     1       2.481   5.842  20.292  0.00  0.00    +0.000 A 
ATOM     21  N   UNL     1       3.420   6.070  19.396  0.00  0.00    +0.000 NA
ATOM     22  C   UNL     1       4.106   4.909  19.060  0.00  0.00    +0.000 A 
BRANCH  18  24
ATOM     23  C   UNL     1       3.501   1.555  18.435  0.00  0.00    +0.000 C 
ATOM     24  C   UNL     1       4.085   2.390  19.555  0.00  0.00    +0.000 C 
ATOM     25  O   UNL     1       4.903   1.874  20.318  0.00  0.00    +0.000 OA
ENDBRANCH  18  24
BRANCH  22  26
ATOM     26  C   UNL     1       5.245   5.021  18.069  0.00  0.00    +0.000 C 
ATOM     27  C   UNL     1       4.975   6.120  17.041  0.00  0.00    +0.000 C 
ATOM     28  C   UNL     1       6.595   5.284  18.750  0.00  0.00    +0.000 C 
ENDBRANCH  22  26
ENDBRANCH   1  20
TORSDOF 5
ENDMDL
MODEL 4
REMARK VINA RESULT:      -7.1      2.921      3.469
REMARK  Name = 
REMARK  8 active torsions:
REMARK  status: ('A' for Active; 'I' for Inactive)
REMARK    1  A    between atoms: C_1  and  C_2
REMARK    2  A    between atoms: C_2  and  C_4
REMARK    3  A    between atoms: C_6  and  N_7
REMARK    4  A    between atoms: C_13  and  C_14
REMARK    5  A    between atoms: C_17  and  O_18
REMARK    6  A    between atoms: C_23  and  C_24
REMARK    7  A    between atoms: C_24  and  C_25
REMARK    8  A    between atoms: C_24  and  C_26
REMARK                            x       y       z     vdW  Elec       q    Type
REMARK                         _______ _______ _______ _____ _____    ______ ____
ROOT
ATOM      1  N   UNL     1       0.938  10.328  18.268  0.00  0.00    +0.000 NA
ATOM      2  C   UNL     1       1.484   9.229  18.661  0.00  0.00    +0.000 C 
ATOM      3  N   UNL     1       1.189   8.494  19.767  0.00  0.00    +0.000 N 
ATOM      4  C   UNL     1       1.842   7.318  19.957  0.00  0.00    +0.000 C 
ATOM      5  O   UNL     1       1.637   6.544  20.879  0.00  0.00    +0.000 OA
ATOM      6  C   UNL     1       2.831   7.119  18.865  0.00  0.00    +0.000 C 
ATOM      7  C   UNL     1       3.600   6.024  18.826  0.00  0.00    +0.000 C 
ATOM      8  S   UNL     1       2.776   8.452  17.769  0.00  0.00    +0.000 S 
ATOM      9  H   UNL     1       0.464   8.804  20.403  0.00  0.00    +0.000 HD
ENDROOT
BRANCH   7  10
ATOM     10  C   UNL     1       4.624   5.719  17.828  0.00  0.00    +0.000 A 
ATOM     11  C   UNL     1       5.888   6.318  17.916  0.00  0.00    +0.000 A 
ATOM     12  C   UNL     1       6.884   6.002  16.987  0.00  0.00    +0.000 A 
ATOM     13  C   UNL     1       6.610   5.088  15.975  0.00  0.00    +0.000 A 
ATOM     14  C   UNL     1       5.362   4.483  15.880  0.00  0.00    +0.000 A 
ATOM     15  C   UNL     1       4.365   4.800  16.806  0.00  0.00    +0.000 A 
BRANCH  13  16
ATOM     16  O   UNL     1       7.550   4.752  15.048  0.00  0.00    +0.000 OA
ATOM     17  H   UNL     1       8.431   4.890  15.434  0.00  0.00    +0.000 HD
ENDBRANCH  13  16
ENDBRANCH   7  10
BRANCH   1  20
ATOM     18  C   UNL     1      -2.111  11.939  19.784  0.00  0.00    +0.000 A 
ATOM     19  S   UNL     1      -1.433  11.517  18.266  0.00  0.00    +0.000 S 
ATOM     20  C   UNL     1      -0.051  10.848  19.040  0.00  0.00    +0.000 A 
ATOM     21  N   UNL     1      -0.093  10.922  20.355  0.00  0.00    +0.000 NA
ATOM     22  C   UNL     1      -1.245  11.556  20.800  0.00  0.00    +0.000 A 
BRANCH  18  24
ATOM     23  C   UNL     1      -4.560  12.022  19.063  0.00  0.00    +0.000 C 
ATOM     24  C   UNL     1      -3.417  12.576  19.886  0.00  0.00    +0.000 C 
ATOM     25  O   UNL     1      -3.619  13.559  20.601  0.00  0.00    +0.000 OA
ENDBRANCH  18  24
BRANCH  22  26
ATOM     26  C   UNL     1      -1.416  11.752  22.291  0.00  0.00    +0.000 C 
ATOM     27  C   UNL     1      -0.832  10.574  23.072  0.00  0.00    +0.000 C 
ATOM     28  C   UNL     1      -0.779  13.056  22.791  0.00  0.00    +0.000 C 
ENDBRANCH  22  26
ENDBRANCH   1  20
TORSDOF 5
ENDMDL
MODEL 5
REMARK VINA RESULT:      -7.0      1.824      9.313
REMARK  Name = 
REMARK  8 active torsions:
REMARK  status: ('A' for Active; 'I' for Inactive)
REMARK    1  A    between atoms: C_1  and  C_2
REMARK    2  A    between atoms: C_2  and  C_4
REMARK    3  A    between atoms: C_6  and  N_7
REMARK    4  A    between atoms: C_13  and  C_14
REMARK    5  A    between atoms: C_17  and  O_18
REMARK    6  A    between atoms: C_23  and  C_24
REMARK    7  A    between atoms: C_24  and  C_25
REMARK    8  A    between atoms: C_24  and  C_26
REMARK                            x       y       z     vdW  Elec       q    Type
REMARK                         _______ _______ _______ _____ _____    ______ ____
ROOT
ATOM      1  N   UNL     1       1.792   6.631  20.764  0.00  0.00    +0.000 NA
ATOM      2  C   UNL     1       1.619   7.788  20.224  0.00  0.00    +0.000 C 
ATOM      3  N   UNL     1       1.986   8.196  18.979  0.00  0.00    +0.000 N 
ATOM      4  C   UNL     1       1.640   9.448  18.580  0.00  0.00    +0.000 C 
ATOM      5  O   UNL     1       1.865   9.918  17.475  0.00  0.00    +0.000 OA
ATOM      6  C   UNL     1       0.940  10.146  19.690  0.00  0.00    +0.000 C 
ATOM      7  C   UNL     1       0.494  11.399  19.539  0.00  0.00    +0.000 C 
ATOM      8  S   UNL     1       0.828   9.107  21.064  0.00  0.00    +0.000 S 
ATOM      9  H   UNL     1       2.464   7.556  18.356  0.00  0.00    +0.000 HD
ENDROOT
BRANCH   7  10
ATOM     10  C   UNL     1      -0.184  12.206  20.554  0.00  0.00    +0.000 A 
ATOM     11  C   UNL     1      -1.525  11.950  20.870  0.00  0.00    +0.000 A 
ATOM     12  C   UNL     1      -2.169  12.691  21.865  0.00  0.00    +0.000 A 
ATOM     13  C   UNL     1      -1.466  13.685  22.539  0.00  0.00    +0.000 A 
ATOM     14  C   UNL     1      -0.134  13.944  22.238  0.00  0.00    +0.000 A 
ATOM     15  C   UNL     1       0.509  13.206  21.242  0.00  0.00    +0.000 A 
BRANCH  13  16
ATOM     16  O   UNL     1      -2.054  14.433  23.516  0.00  0.00    +0.000 OA
ATOM     17  H   UNL     1      -1.507  14.383  24.317  0.00  0.00    +0.000 HD
ENDBRANCH  13  16
ENDBRANCH   7  10
BRANCH   1  20
ATOM     18  C   UNL     1       2.947   3.621  18.815  0.00  0.00    +0.000 A 
ATOM     19  S   UNL     1       1.581   4.231  19.654  0.00  0.00    +0.000 S 
ATOM     20  C   UNL     1       2.424   5.682  20.025  0.00  0.00    +0.000 A 
ATOM     21  N   UNL     1       3.650   5.721  19.544  0.00  0.00    +0.000 NA
ATOM     22  C   UNL     1       3.977   4.552  18.869  0.00  0.00    +0.000 A 
BRANCH  18  24
ATOM     23  C   UNL     1       3.799   1.215  18.700  0.00  0.00    +0.000 C 
ATOM     24  C   UNL     1       2.921   2.322  18.156  0.00  0.00    +0.000 C 
ATOM     25  O   UNL     1       2.227   2.099  17.163  0.00  0.00    +0.000 OA
ENDBRANCH  18  24
BRANCH  22  26
ATOM     26  C   UNL     1       5.371   4.432  18.294  0.00  0.00    +0.000 C 
ATOM     27  C   UNL     1       5.385   4.781  16.805  0.00  0.00    +0.000 C 
ATOM     28  C   UNL     1       6.391   5.311  19.030  0.00  0.00    +0.000 C 
ENDBRANCH  22  26
ENDBRANCH   1  20
TORSDOF 5
ENDMDL
MODEL 6
REMARK VINA RESULT:      -7.0      0.640      1.218
REMARK  Name = 
REMARK  8 active torsions:
REMARK  status: ('A' for Active; 'I' for Inactive)
REMARK    1  A    between atoms: C_1  and  C_2
REMARK    2  A    between atoms: C_2  and  C_4
REMARK    3  A    between atoms: C_6  and  N_7
REMARK    4  A    between atoms: C_13  and  C_14
REMARK    5  A    between atoms: C_17  and  O_18
REMARK    6  A    between atoms: C_23  and  C_24
REMARK    7  A    between atoms: C_24  and  C_25
REMARK    8  A    between atoms: C_24  and  C_26
REMARK                            x       y       z     vdW  Elec       q    Type
REMARK                         _______ _______ _______ _____ _____    ______ ____
ROOT
ATOM      1  N   UNL     1       0.277   8.605  21.526  0.00  0.00    +0.000 NA
ATOM      2  C   UNL     1       0.952   8.238  20.491  0.00  0.00    +0.000 C 
ATOM      3  N   UNL     1       1.344   8.998  19.433  0.00  0.00    +0.000 N 
ATOM      4  C   UNL     1       2.118   8.425  18.475  0.00  0.00    +0.000 C 
ATOM      5  O   UNL     1       2.575   9.006  17.503  0.00  0.00    +0.000 OA
ATOM      6  C   UNL     1       2.329   6.990  18.802  0.00  0.00    +0.000 C 
ATOM      7  C   UNL     1       3.069   6.207  18.008  0.00  0.00    +0.000 C 
ATOM      8  S   UNL     1       1.515   6.594  20.272  0.00  0.00    +0.000 S 
ATOM      9  H   UNL     1       1.096   9.980  19.394  0.00  0.00    +0.000 HD
ENDROOT
BRANCH   7  10
ATOM     10  C   UNL     1       3.333   4.781  18.199  0.00  0.00    +0.000 A 
ATOM     11  C   UNL     1       2.609   3.831  17.467  0.00  0.00    +0.000 A 
ATOM     12  C   UNL     1       2.882   2.468  17.616  0.00  0.00    +0.000 A 
ATOM     13  C   UNL     1       3.878   2.063  18.499  0.00  0.00    +0.000 A 
ATOM     14  C   UNL     1       4.606   2.997  19.228  0.00  0.00    +0.000 A 
ATOM     15  C   UNL     1       4.333   4.359  19.081  0.00  0.00    +0.000 A 
BRANCH  13  16
ATOM     16  O   UNL     1       4.177   0.745  18.678  0.00  0.00    +0.000 OA
ATOM     17  H   UNL     1       4.345   0.590  19.622  0.00  0.00    +0.000 HD
ENDBRANCH  13  16
ENDBRANCH   7  10
BRANCH   1  20
ATOM     18  C   UNL     1      -0.999  12.045  22.379  0.00  0.00    +0.000 A 
ATOM     19  S   UNL     1      -0.725  10.505  23.082  0.00  0.00    +0.000 S 
ATOM     20  C   UNL     1      -0.117   9.903  21.591  0.00  0.00    +0.000 A 
ATOM     21  N   UNL     1      -0.104  10.798  20.624  0.00  0.00    +0.000 NA
ATOM     22  C   UNL     1      -0.620  12.018  21.043  0.00  0.00    +0.000 A 
BRANCH  18  24
ATOM     23  C   UNL     1      -3.019  13.404  23.150  0.00  0.00    +0.000 C 
ATOM     24  C   UNL     1      -1.526  13.157  23.158  0.00  0.00    +0.000 C 
ATOM     25  O   UNL     1      -0.800  13.913  23.807  0.00  0.00    +0.000 OA
ENDBRANCH  18  24
BRANCH  22  26
ATOM     26  C   UNL     1      -0.708  13.137  20.027  0.00  0.00    +0.000 C 
ATOM     27  C   UNL     1       0.487  14.084  20.145  0.00  0.00    +0.000 C 
ATOM     28  C   UNL     1      -0.803  12.618  18.586  0.00  0.00    +0.000 C 
ENDBRANCH  22  26
ENDBRANCH   1  20
TORSDOF 5
ENDMDL
MODEL 7
REMARK VINA RESULT:      -7.0      2.544      9.646
REMARK  Name = 
REMARK  8 active torsions:
REMARK  status: ('A' for Active; 'I' for Inactive)
REMARK    1  A    between atoms: C_1  and  C_2
REMARK    2  A    between atoms: C_2  and  C_4
REMARK    3  A    between atoms: C_6  and  N_7
REMARK    4  A    between atoms: C_13  and  C_14
REMARK    5  A    between atoms: C_17  and  O_18
REMARK    6  A    between atoms: C_23  and  C_24
REMARK    7  A    between atoms: C_24  and  C_25
REMARK    8  A    between atoms: C_24  and  C_26
REMARK                            x       y       z     vdW  Elec       q    Type
REMARK                         _______ _______ _______ _____ _____    ______ ____
ROOT
ATOM      1  N   UNL     1       2.691   8.267  17.446  0.00  0.00    +0.000 NA
ATOM      2  C   UNL     1       2.077   8.604  18.528  0.00  0.00    +0.000 C 
ATOM      3  N   UNL     1       1.977   7.901  19.689  0.00  0.00    +0.000 N 
ATOM      4  C   UNL     1       1.339   8.476  20.741  0.00  0.00    +0.000 C 
ATOM      5  O   UNL     1       1.223   7.975  21.849  0.00  0.00    +0.000 OA
ATOM      6  C   UNL     1       0.818   9.808  20.336  0.00  0.00    +0.000 C 
ATOM      7  C   UNL     1       0.152  10.578  21.206  0.00  0.00    +0.000 C 
ATOM      8  S   UNL     1       1.221  10.123  18.688  0.00  0.00    +0.000 S 
ATOM      9  H   UNL     1       2.413   6.989  19.769  0.00  0.00    +0.000 HD
ENDROOT
BRANCH   7  10
ATOM     10  C   UNL     1      -0.432  11.890  20.932  0.00  0.00    +0.000 A 
ATOM     11  C   UNL     1       0.350  13.045  21.062  0.00  0.00    +0.000 A 
ATOM     12  C   UNL     1      -0.190  14.300  20.765  0.00  0.00    +0.000 A 
ATOM     13  C   UNL     1      -1.511  14.391  20.338  0.00  0.00    +0.000 A 
ATOM     14  C   UNL     1      -2.296  13.252  20.200  0.00  0.00    +0.000 A 
ATOM     15  C   UNL     1      -1.757  11.998  20.499  0.00  0.00    +0.000 A 
BRANCH  13  16
ATOM     16  O   UNL     1      -2.080  15.594  20.039  0.00  0.00    +0.000 OA
ATOM     17  H   UNL     1      -2.395  15.568  19.121  0.00  0.00    +0.000 HD
ENDBRANCH  13  16
ENDBRANCH   7  10
BRANCH   1  20
ATOM     18  C   UNL     1       4.958   5.281  17.074  0.00  0.00    +0.000 A 
ATOM     19  S   UNL     1       4.912   6.973  16.792  0.00  0.00    +0.000 S 
ATOM     20  C   UNL     1       3.317   7.062  17.428  0.00  0.00    +0.000 A 
ATOM     21  N   UNL     1       2.845   5.903  17.840  0.00  0.00    +0.000 NA
ATOM     22  C   UNL     1       3.752   4.872  17.631  0.00  0.00    +0.000 A 
BRANCH  18  24
ATOM     23  C   UNL     1       7.368   4.651  17.638  0.00  0.00    +0.000 C 
ATOM     24  C   UNL     1       6.140   4.488  16.768  0.00  0.00    +0.000 C 
ATOM     25  O   UNL     1       6.183   3.706  15.817  0.00  0.00    +0.000 OA
ENDBRANCH  18  24
BRANCH  22  26
ATOM     26  C   UNL     1       3.334   3.470  18.017  0.00  0.00    +0.000 C 
ATOM     27  C   UNL     1       3.952   3.059  19.354  0.00  0.00    +0.000 C 
ATOM     28  C   UNL     1       1.809   3.310  18.093  0.00  0.00    +0.000 C 
ENDBRANCH  22  26
ENDBRANCH   1  20
TORSDOF 5
ENDMDL
MODEL 8
REMARK VINA RESULT:      -6.9      2.493      9.688
REMARK  Name = 
REMARK  8 active torsions:
REMARK  status: ('A' for Active; 'I' for Inactive)
REMARK    1  A    between atoms: C_1  and  C_2
REMARK    2  A    between atoms: C_2  and  C_4
REMARK    3  A    between atoms: C_6  and  N_7
REMARK    4  A    between atoms: C_13  and  C_14
REMARK    5  A    between atoms: C_17  and  O_18
REMARK    6  A    between atoms: C_23  and  C_24
REMARK    7  A    between atoms: C_24  and  C_25
REMARK    8  A    between atoms: C_24  and  C_26
REMARK                            x       y       z     vdW  Elec       q    Type
REMARK                         _______ _______ _______ _____ _____    ______ ____
ROOT
ATOM      1  N   UNL     1       2.325   8.343  17.760  0.00  0.00    +0.000 NA
ATOM      2  C   UNL     1       1.776   8.800  18.833  0.00  0.00    +0.000 C 
ATOM      3  N   UNL     1       1.730   8.221  20.063  0.00  0.00    +0.000 N 
ATOM      4  C   UNL     1       1.159   8.913  21.084  0.00  0.00    +0.000 C 
ATOM      5  O   UNL     1       1.097   8.529  22.241  0.00  0.00    +0.000 OA
ATOM      6  C   UNL     1       0.637  10.208  20.573  0.00  0.00    +0.000 C 
ATOM      7  C   UNL     1       0.032  11.075  21.394  0.00  0.00    +0.000 C 
ATOM      8  S   UNL     1       0.953  10.346  18.882  0.00  0.00    +0.000 S 
ATOM      9  H   UNL     1       2.156   7.314  20.213  0.00  0.00    +0.000 HD
ENDROOT
BRANCH   7  10
ATOM     10  C   UNL     1      -0.547  12.365  21.018  0.00  0.00    +0.000 A 
ATOM     11  C   UNL     1      -1.927  12.477  20.803  0.00  0.00    +0.000 A 
ATOM     12  C   UNL     1      -2.492  13.714  20.481  0.00  0.00    +0.000 A 
ATOM     13  C   UNL     1      -1.672  14.833  20.375  0.00  0.00    +0.000 A 
ATOM     14  C   UNL     1      -0.302  14.736  20.591  0.00  0.00    +0.000 A 
ATOM     15  C   UNL     1       0.264  13.499  20.911  0.00  0.00    +0.000 A 
BRANCH  13  16
ATOM     16  O   UNL     1      -2.180  16.059  20.061  0.00  0.00    +0.000 OA
ATOM     17  H   UNL     1      -2.459  16.498  20.881  0.00  0.00    +0.000 HD
ENDBRANCH  13  16
ENDBRANCH   7  10
BRANCH   1  20
ATOM     18  C   UNL     1       4.544   5.303  17.621  0.00  0.00    +0.000 A 
ATOM     19  S   UNL     1       4.530   6.971  17.223  0.00  0.00    +0.000 S 
ATOM     20  C   UNL     1       2.930   7.130  17.833  0.00  0.00    +0.000 A 
ATOM     21  N   UNL     1       2.435   6.009  18.317  0.00  0.00    +0.000 NA
ATOM     22  C   UNL     1       3.327   4.953  18.189  0.00  0.00    +0.000 A 
BRANCH  18  24
ATOM     23  C   UNL     1       5.908   3.865  16.010  0.00  0.00    +0.000 C 
ATOM     24  C   UNL     1       5.716   4.472  17.383  0.00  0.00    +0.000 C 
ATOM     25  O   UNL     1       6.545   4.230  18.263  0.00  0.00    +0.000 OA
ENDBRANCH  18  24
BRANCH  22  26
ATOM     26  C   UNL     1       2.880   3.587  18.666  0.00  0.00    +0.000 C 
ATOM     27  C   UNL     1       1.762   3.703  19.703  0.00  0.00    +0.000 C 
ATOM     28  C   UNL     1       2.413   2.685  17.515  0.00  0.00    +0.000 C 
ENDBRANCH  22  26
ENDBRANCH   1  20
TORSDOF 5
ENDMDL
MODEL 9
REMARK VINA RESULT:      -6.9      1.679      9.279
REMARK  Name = 
REMARK  8 active torsions:
REMARK  status: ('A' for Active; 'I' for Inactive)
REMARK    1  A    between atoms: C_1  and  C_2
REMARK    2  A    between atoms: C_2  and  C_4
REMARK    3  A    between atoms: C_6  and  N_7
REMARK    4  A    between atoms: C_13  and  C_14
REMARK    5  A    between atoms: C_17  and  O_18
REMARK    6  A    between atoms: C_23  and  C_24
REMARK    7  A    between atoms: C_24  and  C_25
REMARK    8  A    between atoms: C_24  and  C_26
REMARK                            x       y       z     vdW  Elec       q    Type
REMARK                         _______ _______ _______ _____ _____    ______ ____
ROOT
ATOM      1  N   UNL     1       1.799   6.812  20.886  0.00  0.00    +0.000 NA
ATOM      2  C   UNL     1       1.518   7.987  20.437  0.00  0.00    +0.000 C 
ATOM      3  N   UNL     1       1.670   8.459  19.170  0.00  0.00    +0.000 N 
ATOM      4  C   UNL     1       1.239   9.717  18.892  0.00  0.00    +0.000 C 
ATOM      5  O   UNL     1       1.273  10.241  17.789  0.00  0.00    +0.000 OA
ATOM      6  C   UNL     1       0.712  10.346  20.132  0.00  0.00    +0.000 C 
ATOM      7  C   UNL     1       0.221  11.591  20.114  0.00  0.00    +0.000 C 
ATOM      8  S   UNL     1       0.844   9.244  21.454  0.00  0.00    +0.000 S 
ATOM      9  H   UNL     1       2.056   7.861  18.449  0.00  0.00    +0.000 HD
ENDROOT
BRANCH   7  10
ATOM     10  C   UNL     1      -0.302  12.332  21.261  0.00  0.00    +0.000 A 
ATOM     11  C   UNL     1       0.228  13.589  21.583  0.00  0.00    +0.000 A 
ATOM     12  C   UNL     1      -0.292  14.320  22.655  0.00  0.00    +0.000 A 
ATOM     13  C   UNL     1      -1.340  13.789  23.399  0.00  0.00    +0.000 A 
ATOM     14  C   UNL     1      -1.878  12.546  23.087  0.00  0.00    +0.000 A 
ATOM     15  C   UNL     1      -1.357  11.813  22.018  0.00  0.00    +0.000 A 
BRANCH  13  16
ATOM     16  O   UNL     1      -1.877  14.466  24.454  0.00  0.00    +0.000 OA
ATOM     17  H   UNL     1      -2.292  13.827  25.055  0.00  0.00    +0.000 HD
ENDBRANCH  13  16
ENDBRANCH   7  10
BRANCH   1  20
ATOM     18  C   UNL     1       2.776   3.874  18.741  0.00  0.00    +0.000 A 
ATOM     19  S   UNL     1       1.637   4.342  19.934  0.00  0.00    +0.000 S 
ATOM     20  C   UNL     1       2.325   5.915  20.012  0.00  0.00    +0.000 A 
ATOM     21  N   UNL     1       3.338   6.091  19.189  0.00  0.00    +0.000 NA
ATOM     22  C   UNL     1       3.626   4.938  18.470  0.00  0.00    +0.000 A 
BRANCH  18  24
ATOM     23  C   UNL     1       3.662   1.478  18.714  0.00  0.00    +0.000 C 
ATOM     24  C   UNL     1       2.754   2.546  18.143  0.00  0.00    +0.000 C 
ATOM     25  O   UNL     1       2.038   2.266  17.180  0.00  0.00    +0.000 OA
ENDBRANCH  18  24
BRANCH  22  26
ATOM     26  C   UNL     1       4.796   4.975  17.510  0.00  0.00    +0.000 C 
ATOM     27  C   UNL     1       4.859   6.311  16.769  0.00  0.00    +0.000 C 
ATOM     28  C   UNL     1       6.139   4.718  18.208  0.00  0.00    +0.000 C 
ENDBRANCH  22  26
ENDBRANCH   1  20
TORSDOF 5
ENDMDL
