MODEL 1
REMARK VINA RESULT:      -7.8      0.000      0.000
REMARK  Name = 
REMARK  10 active torsions:
REMARK  status: ('A' for Active; 'I' for Inactive)
REMARK    1  A    between atoms: C_1  and  C_2
REMARK    2  A    between atoms: C_2  and  C_3
REMARK    3  A    between atoms: C_2  and  C_4
REMARK    4  A    between atoms: C_8  and  C_9
REMARK    5  A    between atoms: C_9  and  N_10
REMARK    6  A    between atoms: N_10  and  C_11
REMARK    7  A    between atoms: C_11  and  C_12
REMARK    8  A    between atoms: C_11  and  C_13
REMARK    9  A    between atoms: C_16  and  S_17
REMARK   10  A    between atoms: S_17  and  C_18
REMARK                            x       y       z     vdW  Elec       q    Type
REMARK                         _______ _______ _______ _____ _____    ______ ____
ROOT
ATOM      1  C   UNL     1       6.660   4.672  17.573  0.00  0.00    +0.000 C 
ATOM      2  C   UNL     1       7.529   5.574  18.463  0.00  0.00    +0.000 C 
ENDROOT
BRANCH   1   3
ATOM      3  C   UNL     1       5.309   4.417  18.233  0.00  0.00    +0.000 A 
ATOM      4  C   UNL     1       4.544   5.479  18.748  0.00  0.00    +0.000 A 
ATOM      5  C   UNL     1       3.312   5.247  19.364  0.00  0.00    +0.000 A 
ATOM      6  C   UNL     1       2.833   3.940  19.465  0.00  0.00    +0.000 A 
ATOM      7  C   UNL     1       3.571   2.881  18.961  0.00  0.00    +0.000 A 
ATOM      8  F   UNL     1       3.116   1.624  19.035  0.00  0.00    +0.000 F 
ATOM      9  C   UNL     1       4.801   3.111  18.348  0.00  0.00    +0.000 A 
BRANCH   6  10
ATOM     10  S   UNL     1       1.280   3.624  20.236  0.00  0.00    +0.000 S 
ATOM     11  C   UNL     1       1.682   2.676  21.680  0.00  0.00    +0.000 C 
ATOM     12  O   UNL     1       0.726   4.897  20.644  0.00  0.00    +0.000 OA
ATOM     13  O   UNL     1       0.527   2.747  19.355  0.00  0.00    +0.000 OA
ENDBRANCH   6  10
ENDBRANCH   1   3
BRANCH   1  14
ATOM     14  N   UNL     1       6.467   5.250  16.231  0.00  0.00    +0.000 NA
ATOM     15  H   UNL     1       5.674   5.889  16.250  0.00  0.00    +0.000 HD
BRANCH  14  16
ATOM     16  C   UNL     1       6.170   4.201  15.247  0.00  0.00    +0.000 C 
BRANCH  16  21
ATOM     17  C   UNL     1       6.583   3.934  12.723  0.00  0.00    +0.000 A 
ATOM     18  O   UNL     1       7.375   4.560  11.802  0.00  0.00    +0.000 OA
ATOM     19  C   UNL     1       8.070   5.471  12.538  0.00  0.00    +0.000 A 
ATOM     20  N   UNL     1       7.794   5.487  13.823  0.00  0.00    +0.000 NA
ATOM     21  C   UNL     1       6.842   4.499  13.956  0.00  0.00    +0.000 A 
BRANCH  17  23
ATOM     22  C   UNL     1       4.448   3.421  11.537  0.00  0.00    +0.000 C 
ATOM     23  C   UNL     1       5.663   2.856  12.267  0.00  0.00    +0.000 C 
ATOM     24  C   UNL     1       6.405   1.837  11.410  0.00  0.00    +0.000 C 
ENDBRANCH  17  23
ENDBRANCH  16  21
ENDBRANCH  14  16
ENDBRANCH   1  14
TORSDOF 6
ENDMDL
MODEL 2
REMARK VINA RESULT:      -7.8      0.992      1.144
REMARK  Name = 
REMARK  10 active torsions:
REMARK  status: ('A' for Active; 'I' for Inactive)
REMARK    1  A    between atoms: C_1  and  C_2
REMARK    2  A    between atoms: C_2  and  C_3
REMARK    3  A    between atoms: C_2  and  C_4
REMARK    4  A    between atoms: C_8  and  C_9
REMARK    5  A    between atoms: C_9  and  N_10
REMARK    6  A    between atoms: N_10  and  C_11
REMARK    7  A    between atoms: C_11  and  C_12
REMARK    8  A    between atoms: C_11  and  C_13
REMARK    9  A    between atoms: C_16  and  S_17
REMARK   10  A    between atoms: S_17  and  C_18
REMARK                            x       y       z     vdW  Elec       q    Type
REMARK                         _______ _______ _______ _____ _____    ______ ____
ROOT
ATOM      1  C   UNL     1       6.810   5.008  17.487  0.00  0.00    +0.000 C 
ATOM      2  C   UNL     1       6.864   6.457  16.978  0.00  0.00    +0.000 C 
ENDROOT
BRANCH   1   3
ATOM      3  C   UNL     1       5.542   4.777  18.301  0.00  0.00    +0.000 A 
ATOM      4  C   UNL     1       4.651   5.832  18.566  0.00  0.00    +0.000 A 
ATOM      5  C   UNL     1       3.495   5.626  19.323  0.00  0.00    +0.000 A 
ATOM      6  C   UNL     1       3.220   4.350  19.817  0.00  0.00    +0.000 A 
ATOM      7  C   UNL     1       4.084   3.297  19.564  0.00  0.00    +0.000 A 
ATOM      8  F   UNL     1       3.824   2.065  20.017  0.00  0.00    +0.000 F 
ATOM      9  C   UNL     1       5.239   3.502  18.811  0.00  0.00    +0.000 A 
BRANCH   6  10
ATOM     10  S   UNL     1       1.765   4.066  20.772  0.00  0.00    +0.000 S 
ATOM     11  C   UNL     1       0.784   2.972  19.778  0.00  0.00    +0.000 C 
ATOM     12  O   UNL     1       2.162   3.379  21.981  0.00  0.00    +0.000 OA
ATOM     13  O   UNL     1       1.042   5.325  20.848  0.00  0.00    +0.000 OA
ENDBRANCH   6  10
ENDBRANCH   1   3
BRANCH   1  14
ATOM     14  N   UNL     1       6.886   4.037  16.380  0.00  0.00    +0.000 NA
ATOM     15  H   UNL     1       7.830   4.035  15.998  0.00  0.00    +0.000 HD
BRANCH  14  16
ATOM     16  C   UNL     1       5.966   4.406  15.296  0.00  0.00    +0.000 C 
BRANCH  16  21
ATOM     17  C   UNL     1       6.459   3.971  12.811  0.00  0.00    +0.000 A 
ATOM     18  O   UNL     1       7.336   4.481  11.895  0.00  0.00    +0.000 OA
ATOM     19  C   UNL     1       8.072   5.373  12.614  0.00  0.00    +0.000 A 
ATOM     20  N   UNL     1       7.746   5.481  13.883  0.00  0.00    +0.000 NA
ATOM     21  C   UNL     1       6.712   4.580  14.024  0.00  0.00    +0.000 A 
BRANCH  17  23
ATOM     22  C   UNL     1       4.320   3.569  11.589  0.00  0.00    +0.000 C 
ATOM     23  C   UNL     1       5.474   2.945  12.369  0.00  0.00    +0.000 C 
ATOM     24  C   UNL     1       6.159   1.846  11.566  0.00  0.00    +0.000 C 
ENDBRANCH  17  23
ENDBRANCH  16  21
ENDBRANCH  14  16
ENDBRANCH   1  14
TORSDOF 6
ENDMDL
MODEL 3
REMARK VINA RESULT:      -7.8      3.861      5.489
REMARK  Name = 
REMARK  10 active torsions:
REMARK  status: ('A' for Active; 'I' for Inactive)
REMARK    1  A    between atoms: C_1  and  C_2
REMARK    2  A    between atoms: C_2  and  C_3
REMARK    3  A    between atoms: C_2  and  C_4
REMARK    4  A    between atoms: C_8  and  C_9
REMARK    5  A    between atoms: C_9  and  N_10
REMARK    6  A    between atoms: N_10  and  C_11
REMARK    7  A    between atoms: C_11  and  C_12
REMARK    8  A    between atoms: C_11  and  C_13
REMARK    9  A    between atoms: C_16  and  S_17
REMARK   10  A    between atoms: S_17  and  C_18
REMARK                            x       y       z     vdW  Elec       q    Type
REMARK                         _______ _______ _______ _____ _____    ______ ____
ROOT
ATOM      1  C   UNL     1       3.196   5.174  18.689  0.00  0.00    +0.000 C 
ATOM      2  C   UNL     1       4.316   4.859  19.693  0.00  0.00    +0.000 C 
ENDROOT
BRANCH   1   3
ATOM      3  C   UNL     1       2.537   6.507  19.027  0.00  0.00    +0.000 A 
ATOM      4  C   UNL     1       2.048   6.764  20.321  0.00  0.00    +0.000 A 
ATOM      5  C   UNL     1       1.433   7.979  20.630  0.00  0.00    +0.000 A 
ATOM      6  C   UNL     1       1.308   8.954  19.639  0.00  0.00    +0.000 A 
ATOM      7  C   UNL     1       1.786   8.720  18.359  0.00  0.00    +0.000 A 
ATOM      8  F   UNL     1       1.688   9.653  17.404  0.00  0.00    +0.000 F 
ATOM      9  C   UNL     1       2.398   7.507  18.049  0.00  0.00    +0.000 A 
BRANCH   6  10
ATOM     10  S   UNL     1       0.537  10.496  20.007  0.00  0.00    +0.000 S 
ATOM     11  C   UNL     1       0.198  10.423  21.747  0.00  0.00    +0.000 C 
ATOM     12  O   UNL     1       1.506  11.541  19.758  0.00  0.00    +0.000 OA
ATOM     13  O   UNL     1      -0.749  10.513  19.330  0.00  0.00    +0.000 OA
ENDBRANCH   6  10
ENDBRANCH   1   3
BRANCH   1  14
ATOM     14  N   UNL     1       3.695   5.193  17.302  0.00  0.00    +0.000 NA
ATOM     15  H   UNL     1       2.932   4.968  16.666  0.00  0.00    +0.000 HD
BRANCH  14  16
ATOM     16  C   UNL     1       4.747   4.186  17.110  0.00  0.00    +0.000 C 
BRANCH  16  21
ATOM     17  C   UNL     1       6.780   5.667  16.579  0.00  0.00    +0.000 A 
ATOM     18  O   UNL     1       7.623   5.807  15.512  0.00  0.00    +0.000 OA
ATOM     19  C   UNL     1       7.124   4.937  14.590  0.00  0.00    +0.000 A 
ATOM     20  N   UNL     1       6.061   4.262  14.969  0.00  0.00    +0.000 NA
ATOM     21  C   UNL     1       5.827   4.726  16.245  0.00  0.00    +0.000 A 
BRANCH  17  23
ATOM     22  C   UNL     1       7.807   5.698  18.854  0.00  0.00    +0.000 C 
ATOM     23  C   UNL     1       7.027   6.481  17.802  0.00  0.00    +0.000 C 
ATOM     24  C   UNL     1       7.726   7.790  17.450  0.00  0.00    +0.000 C 
ENDBRANCH  17  23
ENDBRANCH  16  21
ENDBRANCH  14  16
ENDBRANCH   1  14
TORSDOF 6
ENDMDL
MODEL 4
REMARK VINA RESULT:      -7.8      3.836      5.811
REMARK  Name = 
REMARK  10 active torsions:
REMARK  status: ('A' for Active; 'I' for Inactive)
REMARK    1  A    between atoms: C_1  and  C_2
REMARK    2  A    between atoms: C_2  and  C_3
REMARK    3  A    between atoms: C_2  and  C_4
REMARK    4  A    between atoms: C_8  and  C_9
REMARK    5  A    between atoms: C_9  and  N_10
REMARK    6  A    between atoms: N_10  and  C_11
REMARK    7  A    between atoms: C_11  and  C_12
REMARK    8  A    between atoms: C_11  and  C_13
REMARK    9  A    between atoms: C_16  and  S_17
REMARK   10  A    between atoms: S_17  and  C_18
REMARK                            x       y       z     vdW  Elec       q    Type
REMARK                         _______ _______ _______ _____ _____    ______ ____
ROOT
ATOM      1  C   UNL     1       3.187   5.519  18.147  0.00  0.00    +0.000 C 
ATOM      2  C   UNL     1       2.169   4.369  18.115  0.00  0.00    +0.000 C 
ENDROOT
BRANCH   1   3
ATOM      3  C   UNL     1       2.536   6.792  18.676  0.00  0.00    +0.000 A 
ATOM      4  C   UNL     1       2.295   7.888  17.826  0.00  0.00    +0.000 A 
ATOM      5  C   UNL     1       1.711   9.060  18.311  0.00  0.00    +0.000 A 
ATOM      6  C   UNL     1       1.355   9.140  19.658  0.00  0.00    +0.000 A 
ATOM      7  C   UNL     1       1.580   8.070  20.510  0.00  0.00    +0.000 A 
ATOM      8  F   UNL     1       1.229   8.128  21.800  0.00  0.00    +0.000 F 
ATOM      9  C   UNL     1       2.166   6.901  20.028  0.00  0.00    +0.000 A 
BRANCH   6  10
ATOM     10  S   UNL     1       0.612  10.608  20.291  0.00  0.00    +0.000 S 
ATOM     11  C   UNL     1       0.911  11.835  19.044  0.00  0.00    +0.000 C 
ATOM     12  O   UNL     1      -0.811  10.372  20.390  0.00  0.00    +0.000 OA
ATOM     13  O   UNL     1       1.371  11.010  21.464  0.00  0.00    +0.000 OA
ENDBRANCH   6  10
ENDBRANCH   1   3
BRANCH   1  14
ATOM     14  N   UNL     1       4.369   5.179  18.961  0.00  0.00    +0.000 NA
ATOM     15  H   UNL     1       4.977   5.994  19.028  0.00  0.00    +0.000 HD
BRANCH  14  16
ATOM     16  C   UNL     1       5.141   4.098  18.336  0.00  0.00    +0.000 C 
BRANCH  16  21
ATOM     17  C   UNL     1       6.792   5.683  17.165  0.00  0.00    +0.000 A 
ATOM     18  O   UNL     1       7.340   5.757  15.915  0.00  0.00    +0.000 OA
ATOM     19  C   UNL     1       6.757   4.725  15.244  0.00  0.00    +0.000 A 
ATOM     20  N   UNL     1       5.905   4.008  15.943  0.00  0.00    +0.000 NA
ATOM     21  C   UNL     1       5.914   4.617  17.179  0.00  0.00    +0.000 A 
BRANCH  17  23
ATOM     22  C   UNL     1       8.101   6.045  19.258  0.00  0.00    +0.000 C 
ATOM     23  C   UNL     1       7.209   6.676  18.194  0.00  0.00    +0.000 C 
ATOM     24  C   UNL     1       7.882   7.879  17.544  0.00  0.00    +0.000 C 
ENDBRANCH  17  23
ENDBRANCH  16  21
ENDBRANCH  14  16
ENDBRANCH   1  14
TORSDOF 6
ENDMDL
MODEL 5
REMARK VINA RESULT:      -7.6      4.487      6.094
REMARK  Name = 
REMARK  10 active torsions:
REMARK  status: ('A' for Active; 'I' for Inactive)
REMARK    1  A    between atoms: C_1  and  C_2
REMARK    2  A    between atoms: C_2  and  C_3
REMARK    3  A    between atoms: C_2  and  C_4
REMARK    4  A    between atoms: C_8  and  C_9
REMARK    5  A    between atoms: C_9  and  N_10
REMARK    6  A    between atoms: N_10  and  C_11
REMARK    7  A    between atoms: C_11  and  C_12
REMARK    8  A    between atoms: C_11  and  C_13
REMARK    9  A    between atoms: C_16  and  S_17
REMARK   10  A    between atoms: S_17  and  C_18
REMARK                            x       y       z     vdW  Elec       q    Type
REMARK                         _______ _______ _______ _____ _____    ______ ____
ROOT
ATOM      1  C   UNL     1       2.980   6.150  18.775  0.00  0.00    +0.000 C 
ATOM      2  C   UNL     1       1.997   5.195  18.081  0.00  0.00    +0.000 C 
ENDROOT
BRANCH   1   3
ATOM      3  C   UNL     1       2.244   7.369  19.319  0.00  0.00    +0.000 A 
ATOM      4  C   UNL     1       1.819   7.419  20.659  0.00  0.00    +0.000 A 
ATOM      5  C   UNL     1       1.133   8.530  21.156  0.00  0.00    +0.000 A 
ATOM      6  C   UNL     1       0.871   9.607  20.309  0.00  0.00    +0.000 A 
ATOM      7  C   UNL     1       1.284   9.578  18.986  0.00  0.00    +0.000 A 
ATOM      8  F   UNL     1       1.055  10.612  18.168  0.00  0.00    +0.000 F 
ATOM      9  C   UNL     1       1.967   8.470  18.488  0.00  0.00    +0.000 A 
BRANCH   6  10
ATOM     10  S   UNL     1       0.010  11.020  20.916  0.00  0.00    +0.000 S 
ATOM     11  C   UNL     1       1.125  12.373  20.650  0.00  0.00    +0.000 C 
ATOM     12  O   UNL     1      -1.164  11.205  20.092  0.00  0.00    +0.000 OA
ATOM     13  O   UNL     1      -0.124  10.864  22.355  0.00  0.00    +0.000 OA
ENDBRANCH   6  10
ENDBRANCH   1   3
BRANCH   1  14
ATOM     14  N   UNL     1       3.720   5.479  19.859  0.00  0.00    +0.000 NA
ATOM     15  H   UNL     1       4.329   6.154  20.320  0.00  0.00    +0.000 HD
BRANCH  14  16
ATOM     16  C   UNL     1       4.569   4.405  19.327  0.00  0.00    +0.000 C 
BRANCH  16  21
ATOM     17  C   UNL     1       6.241   5.268  17.576  0.00  0.00    +0.000 A 
ATOM     18  O   UNL     1       7.490   5.820  17.621  0.00  0.00    +0.000 OA
ATOM     19  C   UNL     1       7.802   5.806  18.947  0.00  0.00    +0.000 A 
ATOM     20  N   UNL     1       6.877   5.309  19.738  0.00  0.00    +0.000 NA
ATOM     21  C   UNL     1       5.869   4.954  18.868  0.00  0.00    +0.000 A 
BRANCH  17  23
ATOM     22  C   UNL     1       5.160   6.475  15.678  0.00  0.00    +0.000 C 
ATOM     23  C   UNL     1       5.566   5.123  16.256  0.00  0.00    +0.000 C 
ATOM     24  C   UNL     1       6.441   4.341  15.283  0.00  0.00    +0.000 C 
ENDBRANCH  17  23
ENDBRANCH  16  21
ENDBRANCH  14  16
ENDBRANCH   1  14
TORSDOF 6
ENDMDL
MODEL 6
REMARK VINA RESULT:      -7.6      4.336      5.739
REMARK  Name = 
REMARK  10 active torsions:
REMARK  status: ('A' for Active; 'I' for Inactive)
REMARK    1  A    between atoms: C_1  and  C_2
REMARK    2  A    between atoms: C_2  and  C_3
REMARK    3  A    between atoms: C_2  and  C_4
REMARK    4  A    between atoms: C_8  and  C_9
REMARK    5  A    between atoms: C_9  and  N_10
REMARK    6  A    between atoms: N_10  and  C_11
REMARK    7  A    between atoms: C_11  and  C_12
REMARK    8  A    between atoms: C_11  and  C_13
REMARK    9  A    between atoms: C_16  and  S_17
REMARK   10  A    between atoms: S_17  and  C_18
REMARK                            x       y       z     vdW  Elec       q    Type
REMARK                         _______ _______ _______ _____ _____    ______ ____
ROOT
ATOM      1  C   UNL     1       3.148   5.569  18.415  0.00  0.00    +0.000 C 
ATOM      2  C   UNL     1       2.112   4.575  17.867  0.00  0.00    +0.000 C 
ENDROOT
BRANCH   1   3
ATOM      3  C   UNL     1       2.457   6.821  18.944  0.00  0.00    +0.000 A 
ATOM      4  C   UNL     1       1.973   6.875  20.264  0.00  0.00    +0.000 A 
ATOM      5  C   UNL     1       1.328   8.016  20.748  0.00  0.00    +0.000 A 
ATOM      6  C   UNL     1       1.167   9.119  19.908  0.00  0.00    +0.000 A 
ATOM      7  C   UNL     1       1.640   9.085  18.606  0.00  0.00    +0.000 A 
ATOM      8  F   UNL     1       1.507  10.142  17.795  0.00  0.00    +0.000 F 
ATOM      9  C   UNL     1       2.281   7.947  18.121  0.00  0.00    +0.000 A 
BRANCH   6  10
ATOM     10  S   UNL     1       0.359  10.570  20.499  0.00  0.00    +0.000 S 
ATOM     11  C   UNL     1      -0.162  10.154  22.143  0.00  0.00    +0.000 C 
ATOM     12  O   UNL     1       1.347  11.624  20.568  0.00  0.00    +0.000 OA
ATOM     13  O   UNL     1      -0.848  10.748  19.709  0.00  0.00    +0.000 OA
ENDBRANCH   6  10
ENDBRANCH   1   3
BRANCH   1  14
ATOM     14  N   UNL     1       3.981   4.965  19.470  0.00  0.00    +0.000 NA
ATOM     15  H   UNL     1       4.438   5.703  20.004  0.00  0.00    +0.000 HD
BRANCH  14  16
ATOM     16  C   UNL     1       5.032   4.120  18.888  0.00  0.00    +0.000 C 
BRANCH  16  21
ATOM     17  C   UNL     1       6.757   5.394  17.470  0.00  0.00    +0.000 A 
ATOM     18  O   UNL     1       7.871   6.138  17.740  0.00  0.00    +0.000 OA
ATOM     19  C   UNL     1       7.991   6.061  19.094  0.00  0.00    +0.000 A 
ATOM     20  N   UNL     1       7.066   5.351  19.703  0.00  0.00    +0.000 NA
ATOM     21  C   UNL     1       6.268   4.913  18.668  0.00  0.00    +0.000 A 
BRANCH  17  23
ATOM     22  C   UNL     1       5.909   3.821  15.728  0.00  0.00    +0.000 C 
ATOM     23  C   UNL     1       6.310   5.256  16.055  0.00  0.00    +0.000 C 
ATOM     24  C   UNL     1       5.183   6.235  15.745  0.00  0.00    +0.000 C 
ENDBRANCH  17  23
ENDBRANCH  16  21
ENDBRANCH  14  16
ENDBRANCH   1  14
TORSDOF 6
ENDMDL
MODEL 7
REMARK VINA RESULT:      -7.5      4.413      6.049
REMARK  Name = 
REMARK  10 active torsions:
REMARK  status: ('A' for Active; 'I' for Inactive)
REMARK    1  A    between atoms: C_1  and  C_2
REMARK    2  A    between atoms: C_2  and  C_3
REMARK    3  A    between atoms: C_2  and  C_4
REMARK    4  A    between atoms: C_8  and  C_9
REMARK    5  A    between atoms: C_9  and  N_10
REMARK    6  A    between atoms: N_10  and  C_11
REMARK    7  A    between atoms: C_11  and  C_12
REMARK    8  A    between atoms: C_11  and  C_13
REMARK    9  A    between atoms: C_16  and  S_17
REMARK   10  A    between atoms: S_17  and  C_18
REMARK                            x       y       z     vdW  Elec       q    Type
REMARK                         _______ _______ _______ _____ _____    ______ ____
ROOT
ATOM      1  C   UNL     1       3.049   6.076  18.565  0.00  0.00    +0.000 C 
ATOM      2  C   UNL     1       2.028   5.045  18.059  0.00  0.00    +0.000 C 
ENDROOT
BRANCH   1   3
ATOM      3  C   UNL     1       2.347   7.370  18.962  0.00  0.00    +0.000 A 
ATOM      4  C   UNL     1       2.196   8.423  18.041  0.00  0.00    +0.000 A 
ATOM      5  C   UNL     1       1.565   9.614  18.406  0.00  0.00    +0.000 A 
ATOM      6  C   UNL     1       1.072   9.757  19.703  0.00  0.00    +0.000 A 
ATOM      7  C   UNL     1       1.209   8.731  20.624  0.00  0.00    +0.000 A 
ATOM      8  F   UNL     1       0.726   8.848  21.867  0.00  0.00    +0.000 F 
ATOM      9  C   UNL     1       1.841   7.543  20.262  0.00  0.00    +0.000 A 
BRANCH   6  10
ATOM     10  S   UNL     1       0.269  11.251  20.184  0.00  0.00    +0.000 S 
ATOM     11  C   UNL     1       0.390  12.303  18.761  0.00  0.00    +0.000 C 
ATOM     12  O   UNL     1      -1.123  10.941  20.428  0.00  0.00    +0.000 OA
ATOM     13  O   UNL     1       1.076  11.863  21.227  0.00  0.00    +0.000 OA
ENDBRANCH   6  10
ENDBRANCH   1   3
BRANCH   1  14
ATOM     14  N   UNL     1       3.834   5.557  19.701  0.00  0.00    +0.000 NA
ATOM     15  H   UNL     1       4.430   6.298  20.065  0.00  0.00    +0.000 HD
BRANCH  14  16
ATOM     16  C   UNL     1       4.704   4.453  19.274  0.00  0.00    +0.000 C 
BRANCH  16  21
ATOM     17  C   UNL     1       6.482   5.214  17.580  0.00  0.00    +0.000 A 
ATOM     18  O   UNL     1       7.730   5.765  17.670  0.00  0.00    +0.000 OA
ATOM     19  C   UNL     1       7.961   5.825  19.011  0.00  0.00    +0.000 A 
ATOM     20  N   UNL     1       6.988   5.374  19.772  0.00  0.00    +0.000 NA
ATOM     21  C   UNL     1       6.033   4.973  18.863  0.00  0.00    +0.000 A 
BRANCH  17  23
ATOM     22  C   UNL     1       6.956   4.934  15.146  0.00  0.00    +0.000 C 
ATOM     23  C   UNL     1       5.886   4.997  16.232  0.00  0.00    +0.000 C 
ATOM     24  C   UNL     1       5.006   3.753  16.222  0.00  0.00    +0.000 C 
ENDBRANCH  17  23
ENDBRANCH  16  21
ENDBRANCH  14  16
ENDBRANCH   1  14
TORSDOF 6
ENDMDL
MODEL 8
REMARK VINA RESULT:      -7.5      0.981      1.183
REMARK  Name = 
REMARK  10 active torsions:
REMARK  status: ('A' for Active; 'I' for Inactive)
REMARK    1  A    between atoms: C_1  and  C_2
REMARK    2  A    between atoms: C_2  and  C_3
REMARK    3  A    between atoms: C_2  and  C_4
REMARK    4  A    between atoms: C_8  and  C_9
REMARK    5  A    between atoms: C_9  and  N_10
REMARK    6  A    between atoms: N_10  and  C_11
REMARK    7  A    between atoms: C_11  and  C_12
REMARK    8  A    between atoms: C_11  and  C_13
REMARK    9  A    between atoms: C_16  and  S_17
REMARK   10  A    between atoms: S_17  and  C_18
REMARK                            x       y       z     vdW  Elec       q    Type
REMARK                         _______ _______ _______ _____ _____    ______ ____
ROOT
ATOM      1  C   UNL     1       6.835   4.552  17.356  0.00  0.00    +0.000 C 
ATOM      2  C   UNL     1       7.184   6.009  17.014  0.00  0.00    +0.000 C 
ENDROOT
BRANCH   1   3
ATOM      3  C   UNL     1       5.556   4.492  18.183  0.00  0.00    +0.000 A 
ATOM      4  C   UNL     1       4.833   5.661  18.484  0.00  0.00    +0.000 A 
ATOM      5  C   UNL     1       3.668   5.609  19.253  0.00  0.00    +0.000 A 
ATOM      6  C   UNL     1       3.213   4.377  19.723  0.00  0.00    +0.000 A 
ATOM      7  C   UNL     1       3.909   3.214  19.435  0.00  0.00    +0.000 A 
ATOM      8  F   UNL     1       3.475   2.024  19.866  0.00  0.00    +0.000 F 
ATOM      9  C   UNL     1       5.073   3.264  18.670  0.00  0.00    +0.000 A 
BRANCH   6  10
ATOM     10  S   UNL     1       1.743   4.289  20.692  0.00  0.00    +0.000 S 
ATOM     11  C   UNL     1       1.332   5.979  21.038  0.00  0.00    +0.000 C 
ATOM     12  O   UNL     1       0.707   3.709  19.866  0.00  0.00    +0.000 OA
ATOM     13  O   UNL     1       2.095   3.675  21.962  0.00  0.00    +0.000 OA
ENDBRANCH   6  10
ENDBRANCH   1   3
BRANCH   1  14
ATOM     14  N   UNL     1       6.694   3.725  16.143  0.00  0.00    +0.000 NA
ATOM     15  H   UNL     1       7.616   3.544  15.750  0.00  0.00    +0.000 HD
BRANCH  14  16
ATOM     16  C   UNL     1       5.903   4.424  15.122  0.00  0.00    +0.000 C 
BRANCH  16  21
ATOM     17  C   UNL     1       6.512   3.907  12.679  0.00  0.00    +0.000 A 
ATOM     18  O   UNL     1       7.404   4.415  11.776  0.00  0.00    +0.000 OA
ATOM     19  C   UNL     1       8.074   5.366  12.484  0.00  0.00    +0.000 A 
ATOM     20  N   UNL     1       7.692   5.512  13.734  0.00  0.00    +0.000 NA
ATOM     21  C   UNL     1       6.691   4.576  13.873  0.00  0.00    +0.000 A 
BRANCH  17  23
ATOM     22  C   UNL     1       4.334   3.382  11.580  0.00  0.00    +0.000 C 
ATOM     23  C   UNL     1       5.588   2.822  12.244  0.00  0.00    +0.000 C 
ATOM     24  C   UNL     1       6.305   1.831  11.336  0.00  0.00    +0.000 C 
ENDBRANCH  17  23
ENDBRANCH  16  21
ENDBRANCH  14  16
ENDBRANCH   1  14
TORSDOF 6
ENDMDL
MODEL 9
REMARK VINA RESULT:      -7.4      3.884      5.301
REMARK  Name = 
REMARK  10 active torsions:
REMARK  status: ('A' for Active; 'I' for Inactive)
REMARK    1  A    between atoms: C_1  and  C_2
REMARK    2  A    between atoms: C_2  and  C_3
REMARK    3  A    between atoms: C_2  and  C_4
REMARK    4  A    between atoms: C_8  and  C_9
REMARK    5  A    between atoms: C_9  and  N_10
REMARK    6  A    between atoms: N_10  and  C_11
REMARK    7  A    between atoms: C_11  and  C_12
REMARK    8  A    between atoms: C_11  and  C_13
REMARK    9  A    between atoms: C_16  and  S_17
REMARK   10  A    between atoms: S_17  and  C_18
REMARK                            x       y       z     vdW  Elec       q    Type
REMARK                         _______ _______ _______ _____ _____    ______ ____
ROOT
ATOM      1  C   UNL     1       3.410   5.598  18.207  0.00  0.00    +0.000 C 
ATOM      2  C   UNL     1       2.401   4.484  17.889  0.00  0.00    +0.000 C 
ENDROOT
BRANCH   1   3
ATOM      3  C   UNL     1       2.686   6.851  18.686  0.00  0.00    +0.000 A 
ATOM      4  C   UNL     1       2.478   7.941  17.822  0.00  0.00    +0.000 A 
ATOM      5  C   UNL     1       1.826   9.095  18.263  0.00  0.00    +0.000 A 
ATOM      6  C   UNL     1       1.369   9.162  19.580  0.00  0.00    +0.000 A 
ATOM      7  C   UNL     1       1.562   8.097  20.445  0.00  0.00    +0.000 A 
ATOM      8  F   UNL     1       1.115   8.142  21.706  0.00  0.00    +0.000 F 
ATOM      9  C   UNL     1       2.215   6.946  20.008  0.00  0.00    +0.000 A 
BRANCH   6  10
ATOM     10  S   UNL     1       0.541  10.607  20.156  0.00  0.00    +0.000 S 
ATOM     11  C   UNL     1       0.911  11.849  18.944  0.00  0.00    +0.000 C 
ATOM     12  O   UNL     1      -0.880  10.336  20.137  0.00  0.00    +0.000 OA
ATOM     13  O   UNL     1       1.191  11.019  21.390  0.00  0.00    +0.000 OA
ENDBRANCH   6  10
ENDBRANCH   1   3
BRANCH   1  14
ATOM     14  N   UNL     1       4.400   5.169  19.212  0.00  0.00    +0.000 NA
ATOM     15  H   UNL     1       4.794   5.990  19.669  0.00  0.00    +0.000 HD
BRANCH  14  16
ATOM     16  C   UNL     1       5.505   4.437  18.579  0.00  0.00    +0.000 C 
BRANCH  16  21
ATOM     17  C   UNL     1       6.767   5.360  16.539  0.00  0.00    +0.000 A 
ATOM     18  O   UNL     1       7.550   6.455  16.301  0.00  0.00    +0.000 OA
ATOM     19  C   UNL     1       7.620   7.073  17.512  0.00  0.00    +0.000 A 
ATOM     20  N   UNL     1       6.958   6.484  18.485  0.00  0.00    +0.000 NA
ATOM     21  C   UNL     1       6.410   5.378  17.873  0.00  0.00    +0.000 A 
BRANCH  17  23
ATOM     22  C   UNL     1       4.973   4.384  15.106  0.00  0.00    +0.000 C 
ATOM     23  C   UNL     1       6.466   4.432  15.414  0.00  0.00    +0.000 C 
ATOM     24  C   UNL     1       7.279   4.798  14.178  0.00  0.00    +0.000 C 
ENDBRANCH  17  23
ENDBRANCH  16  21
ENDBRANCH  14  16
ENDBRANCH   1  14
TORSDOF 6
ENDMDL
