MODEL 1
REMARK VINA RESULT:      -9.2      0.000      0.000
REMARK  Name = 
REMARK  5 active torsions:
REMARK  status: ('A' for Active; 'I' for Inactive)
REMARK    1  A    between atoms: N_3  and  C_4
REMARK    2  A    between atoms: C_8  and  C_9
REMARK    3  A    between atoms: C_18  and  S_19
REMARK    4  A    between atoms: S_19  and  C_20
REMARK    5  A    between atoms: C_20  and  C_21
REMARK                            x       y       z     vdW  Elec       q    Type
REMARK                         _______ _______ _______ _____ _____    ______ ____
ROOT
ATOM      1  O   UNL     1       1.184   9.753  21.876  0.00  0.00    +0.000 OA
ATOM      2  C   UNL     1       1.231   8.914  20.976  0.00  0.00    +0.000 C 
ATOM      3  N   UNL     1       0.799   9.108  19.692  0.00  0.00    +0.000 N 
ATOM      4  N   UNL     1       1.644   7.664  21.326  0.00  0.00    +0.000 N 
ATOM      5  C   UNL     1       1.978   6.561  20.588  0.00  0.00    +0.000 A 
ATOM      6  N   UNL     1       2.118   5.366  21.121  0.00  0.00    +0.000 NA
ATOM      7  N   UNL     1       2.489   4.422  20.186  0.00  0.00    +0.000 NA
ATOM      8  C   UNL     1       2.686   4.958  19.001  0.00  0.00    +0.000 A 
ATOM      9  S   UNL     1       2.365   6.639  18.930  0.00  0.00    +0.000 S 
ATOM     10  H   UNL     1       0.711   8.277  19.125  0.00  0.00    +0.000 HD
ATOM     11  H   UNL     1       1.704   7.531  22.327  0.00  0.00    +0.000 HD
ENDROOT
BRANCH   3  12
ATOM     12  C   UNL     1       0.248  10.288  19.149  0.00  0.00    +0.000 A 
ATOM     13  C   UNL     1       0.899  11.523  19.169  0.00  0.00    +0.000 A 
ATOM     14  C   UNL     1       0.279  12.664  18.653  0.00  0.00    +0.000 A 
ATOM     15  C   UNL     1      -1.002  12.580  18.110  0.00  0.00    +0.000 A 
ATOM     16  C   UNL     1      -1.671  11.352  18.067  0.00  0.00    +0.000 A 
ATOM     17  C   UNL     1      -1.028  10.205  18.573  0.00  0.00    +0.000 A 
BRANCH  16  18
ATOM     18  C   UNL     1      -3.068  11.251  17.508  0.00  0.00    +0.000 C 
ATOM     19  F   UNL     1      -3.971  12.050  18.139  0.00  0.00    +0.000 F 
ATOM     20  F   UNL     1      -3.129  11.587  16.190  0.00  0.00    +0.000 F 
ATOM     21  F   UNL     1      -3.570   9.987  17.592  0.00  0.00    +0.000 F 
ENDBRANCH  16  18
ENDBRANCH   3  12
BRANCH   8  22
ATOM     22  S   UNL     1       3.237   4.031  17.626  0.00  0.00    +0.000 S 
BRANCH  22  23
ATOM     23  C   UNL     1       5.039   4.229  17.798  0.00  0.00    +0.000 C 
BRANCH  23  24
ATOM     24  C   UNL     1       5.710   4.500  16.472  0.00  0.00    +0.000 A 
ATOM     25  N   UNL     1       5.410   3.827  15.394  0.00  0.00    +0.000 NA
ATOM     26  C   UNL     1       6.123   4.112  14.217  0.00  0.00    +0.000 A 
ATOM     27  C   UNL     1       5.758   3.467  13.036  0.00  0.00    +0.000 A 
ATOM     28  C   UNL     1       6.469   3.696  11.855  0.00  0.00    +0.000 A 
ATOM     29  C   UNL     1       7.566   4.558  11.853  0.00  0.00    +0.000 A 
ATOM     30  C   UNL     1       7.939   5.218  13.026  0.00  0.00    +0.000 A 
ATOM     31  C   UNL     1       7.203   5.010  14.192  0.00  0.00    +0.000 A 
ATOM     32  N   UNL     1       7.498   5.746  15.344  0.00  0.00    +0.000 N 
ATOM     33  C   UNL     1       6.715   5.648  16.466  0.00  0.00    +0.000 A 
ATOM     34  O   UNL     1       6.785   6.421  17.408  0.00  0.00    +0.000 OA
ATOM     35  H   UNL     1       8.197   6.475  15.329  0.00  0.00    +0.000 HD
ENDBRANCH  23  24
ENDBRANCH  22  23
ENDBRANCH   8  22
TORSDOF 5
ENDMDL
MODEL 2
REMARK VINA RESULT:      -9.1      4.809     10.685
REMARK  Name = 
REMARK  5 active torsions:
REMARK  status: ('A' for Active; 'I' for Inactive)
REMARK    1  A    between atoms: N_3  and  C_4
REMARK    2  A    between atoms: C_8  and  C_9
REMARK    3  A    between atoms: C_18  and  S_19
REMARK    4  A    between atoms: S_19  and  C_20
REMARK    5  A    between atoms: C_20  and  C_21
REMARK                            x       y       z     vdW  Elec       q    Type
REMARK                         _______ _______ _______ _____ _____    ______ ____
ROOT
ATOM      1  O   UNL     1       2.184   5.151  20.991  0.00  0.00    +0.000 OA
ATOM      2  C   UNL     1       2.105   6.253  20.447  0.00  0.00    +0.000 C 
ATOM      3  N   UNL     1       2.630   6.568  19.223  0.00  0.00    +0.000 N 
ATOM      4  N   UNL     1       1.547   7.257  21.178  0.00  0.00    +0.000 N 
ATOM      5  C   UNL     1       1.147   8.524  20.852  0.00  0.00    +0.000 A 
ATOM      6  N   UNL     1       0.855   9.432  21.759  0.00  0.00    +0.000 NA
ATOM      7  N   UNL     1       0.446  10.621  21.190  0.00  0.00    +0.000 NA
ATOM      8  C   UNL     1       0.375  10.537  19.879  0.00  0.00    +0.000 A 
ATOM      9  S   UNL     1       0.868   9.023  19.246  0.00  0.00    +0.000 S 
ATOM     10  H   UNL     1       2.667   7.552  18.998  0.00  0.00    +0.000 HD
ATOM     11  H   UNL     1       1.415   7.015  22.151  0.00  0.00    +0.000 HD
ENDROOT
BRANCH   3  12
ATOM     12  C   UNL     1       3.329   5.708  18.349  0.00  0.00    +0.000 A 
ATOM     13  C   UNL     1       2.725   4.661  17.652  0.00  0.00    +0.000 A 
ATOM     14  C   UNL     1       3.483   3.817  16.836  0.00  0.00    +0.000 A 
ATOM     15  C   UNL     1       4.857   4.014  16.709  0.00  0.00    +0.000 A 
ATOM     16  C   UNL     1       5.485   5.065  17.388  0.00  0.00    +0.000 A 
ATOM     17  C   UNL     1       4.706   5.920  18.193  0.00  0.00    +0.000 A 
BRANCH  16  18
ATOM     18  C   UNL     1       6.975   5.273  17.283  0.00  0.00    +0.000 C 
ATOM     19  F   UNL     1       7.325   6.509  16.832  0.00  0.00    +0.000 F 
ATOM     20  F   UNL     1       7.609   5.118  18.477  0.00  0.00    +0.000 F 
ATOM     21  F   UNL     1       7.563   4.386  16.432  0.00  0.00    +0.000 F 
ENDBRANCH  16  18
ENDBRANCH   3  12
BRANCH   8  22
ATOM     22  S   UNL     1      -0.185  11.855  18.878  0.00  0.00    +0.000 S 
BRANCH  22  23
ATOM     23  C   UNL     1      -1.178  10.939  17.657  0.00  0.00    +0.000 C 
BRANCH  23  24
ATOM     24  C   UNL     1      -2.646  11.287  17.743  0.00  0.00    +0.000 A 
ATOM     25  N   UNL     1      -3.187  11.739  18.841  0.00  0.00    +0.000 NA
ATOM     26  C   UNL     1      -4.571  11.986  18.843  0.00  0.00    +0.000 A 
ATOM     27  C   UNL     1      -5.152  12.551  19.978  0.00  0.00    +0.000 A 
ATOM     28  C   UNL     1      -6.530  12.775  20.032  0.00  0.00    +0.000 A 
ATOM     29  C   UNL     1      -7.341  12.413  18.956  0.00  0.00    +0.000 A 
ATOM     30  C   UNL     1      -6.773  11.854  17.809  0.00  0.00    +0.000 A 
ATOM     31  C   UNL     1      -5.392  11.666  17.751  0.00  0.00    +0.000 A 
ATOM     32  N   UNL     1      -4.800  11.209  16.570  0.00  0.00    +0.000 N 
ATOM     33  C   UNL     1      -3.436  11.130  16.447  0.00  0.00    +0.000 A 
ATOM     34  O   UNL     1      -2.862  10.959  15.383  0.00  0.00    +0.000 OA
ATOM     35  H   UNL     1      -5.348  11.072  15.732  0.00  0.00    +0.000 HD
ENDBRANCH  23  24
ENDBRANCH  22  23
ENDBRANCH   8  22
TORSDOF 5
ENDMDL
MODEL 3
REMARK VINA RESULT:      -9.1      4.832      9.755
REMARK  Name = 
REMARK  5 active torsions:
REMARK  status: ('A' for Active; 'I' for Inactive)
REMARK    1  A    between atoms: N_3  and  C_4
REMARK    2  A    between atoms: C_8  and  C_9
REMARK    3  A    between atoms: C_18  and  S_19
REMARK    4  A    between atoms: S_19  and  C_20
REMARK    5  A    between atoms: C_20  and  C_21
REMARK                            x       y       z     vdW  Elec       q    Type
REMARK                         _______ _______ _______ _____ _____    ______ ____
ROOT
ATOM      1  O   UNL     1       1.925   4.740  20.775  0.00  0.00    +0.000 OA
ATOM      2  C   UNL     1       2.085   5.927  20.490  0.00  0.00    +0.000 C 
ATOM      3  N   UNL     1       2.781   6.393  19.408  0.00  0.00    +0.000 N 
ATOM      4  N   UNL     1       1.622   6.839  21.390  0.00  0.00    +0.000 N 
ATOM      5  C   UNL     1       1.470   8.197  21.333  0.00  0.00    +0.000 A 
ATOM      6  N   UNL     1       1.233   8.931  22.399  0.00  0.00    +0.000 NA
ATOM      7  N   UNL     1       1.085  10.267  22.087  0.00  0.00    +0.000 NA
ATOM      8  C   UNL     1       1.142  10.476  20.789  0.00  0.00    +0.000 A 
ATOM      9  S   UNL     1       1.448   9.066  19.866  0.00  0.00    +0.000 S 
ATOM     10  H   UNL     1       3.000   7.378  19.415  0.00  0.00    +0.000 HD
ATOM     11  H   UNL     1       1.349   6.425  22.271  0.00  0.00    +0.000 HD
ENDROOT
BRANCH   3  12
ATOM     12  C   UNL     1       3.421   5.624  18.412  0.00  0.00    +0.000 A 
ATOM     13  C   UNL     1       2.781   4.622  17.682  0.00  0.00    +0.000 A 
ATOM     14  C   UNL     1       3.483   3.867  16.740  0.00  0.00    +0.000 A 
ATOM     15  C   UNL     1       4.838   4.107  16.519  0.00  0.00    +0.000 A 
ATOM     16  C   UNL     1       5.501   5.115  17.229  0.00  0.00    +0.000 A 
ATOM     17  C   UNL     1       4.776   5.882  18.163  0.00  0.00    +0.000 A 
BRANCH  16  18
ATOM     18  C   UNL     1       6.973   5.368  17.021  0.00  0.00    +0.000 C 
ATOM     19  F   UNL     1       7.436   6.473  17.667  0.00  0.00    +0.000 F 
ATOM     20  F   UNL     1       7.746   4.333  17.450  0.00  0.00    +0.000 F 
ATOM     21  F   UNL     1       7.287   5.547  15.708  0.00  0.00    +0.000 F 
ENDBRANCH  16  18
ENDBRANCH   3  12
BRANCH   8  22
ATOM     22  S   UNL     1       0.912  12.054  20.077  0.00  0.00    +0.000 S 
BRANCH  22  23
ATOM     23  C   UNL     1      -0.821  12.372  20.534  0.00  0.00    +0.000 C 
BRANCH  23  24
ATOM     24  C   UNL     1      -1.781  11.961  19.442  0.00  0.00    +0.000 A 
ATOM     25  N   UNL     1      -1.412  11.204  18.445  0.00  0.00    +0.000 NA
ATOM     26  C   UNL     1      -2.360  10.917  17.447  0.00  0.00    +0.000 A 
ATOM     27  C   UNL     1      -2.012  10.039  16.420  0.00  0.00    +0.000 A 
ATOM     28  C   UNL     1      -2.913   9.761  15.391  0.00  0.00    +0.000 A 
ATOM     29  C   UNL     1      -4.165  10.377  15.369  0.00  0.00    +0.000 A 
ATOM     30  C   UNL     1      -4.532  11.252  16.394  0.00  0.00    +0.000 A 
ATOM     31  C   UNL     1      -3.638  11.497  17.436  0.00  0.00    +0.000 A 
ATOM     32  N   UNL     1      -4.033  12.284  18.522  0.00  0.00    +0.000 N 
ATOM     33  C   UNL     1      -3.219  12.444  19.614  0.00  0.00    +0.000 A 
ATOM     34  O   UNL     1      -3.593  12.922  20.673  0.00  0.00    +0.000 OA
ATOM     35  H   UNL     1      -4.980  12.628  18.598  0.00  0.00    +0.000 HD
ENDBRANCH  23  24
ENDBRANCH  22  23
ENDBRANCH   8  22
TORSDOF 5
ENDMDL
MODEL 4
REMARK VINA RESULT:      -8.9      2.049      2.494
REMARK  Name = 
REMARK  5 active torsions:
REMARK  status: ('A' for Active; 'I' for Inactive)
REMARK    1  A    between atoms: N_3  and  C_4
REMARK    2  A    between atoms: C_8  and  C_9
REMARK    3  A    between atoms: C_18  and  S_19
REMARK    4  A    between atoms: S_19  and  C_20
REMARK    5  A    between atoms: C_20  and  C_21
REMARK                            x       y       z     vdW  Elec       q    Type
REMARK                         _______ _______ _______ _____ _____    ______ ____
ROOT
ATOM      1  O   UNL     1       1.273   9.723  22.081  0.00  0.00    +0.000 OA
ATOM      2  C   UNL     1       1.271   8.927  21.141  0.00  0.00    +0.000 C 
ATOM      3  N   UNL     1       0.846   9.205  19.871  0.00  0.00    +0.000 N 
ATOM      4  N   UNL     1       1.618   7.641  21.429  0.00  0.00    +0.000 N 
ATOM      5  C   UNL     1       1.890   6.559  20.636  0.00  0.00    +0.000 A 
ATOM      6  N   UNL     1       1.968   5.334  21.111  0.00  0.00    +0.000 NA
ATOM      7  N   UNL     1       2.284   4.417  20.128  0.00  0.00    +0.000 NA
ATOM      8  C   UNL     1       2.506   4.998  18.969  0.00  0.00    +0.000 A 
ATOM      9  S   UNL     1       2.275   6.696  18.981  0.00  0.00    +0.000 S 
ATOM     10  H   UNL     1       0.711   8.409  19.265  0.00  0.00    +0.000 HD
ATOM     11  H   UNL     1       1.675   7.457  22.421  0.00  0.00    +0.000 HD
ENDROOT
BRANCH   3  12
ATOM     12  C   UNL     1       0.357  10.438  19.388  0.00  0.00    +0.000 A 
ATOM     13  C   UNL     1      -0.966  10.642  18.993  0.00  0.00    +0.000 A 
ATOM     14  C   UNL     1      -1.375  11.876  18.481  0.00  0.00    +0.000 A 
ATOM     15  C   UNL     1      -0.462  12.921  18.359  0.00  0.00    +0.000 A 
ATOM     16  C   UNL     1       0.868  12.747  18.760  0.00  0.00    +0.000 A 
ATOM     17  C   UNL     1       1.264  11.504  19.291  0.00  0.00    +0.000 A 
BRANCH  16  18
ATOM     18  C   UNL     1       1.874  13.860  18.608  0.00  0.00    +0.000 C 
ATOM     19  F   UNL     1       2.839  13.862  19.567  0.00  0.00    +0.000 F 
ATOM     20  F   UNL     1       2.531  13.811  17.417  0.00  0.00    +0.000 F 
ATOM     21  F   UNL     1       1.295  15.092  18.661  0.00  0.00    +0.000 F 
ENDBRANCH  16  18
ENDBRANCH   3  12
BRANCH   8  22
ATOM     22  S   UNL     1       3.001   4.111  17.548  0.00  0.00    +0.000 S 
BRANCH  22  23
ATOM     23  C   UNL     1       4.807   4.110  17.777  0.00  0.00    +0.000 C 
BRANCH  23  24
ATOM     24  C   UNL     1       5.542   4.445  16.499  0.00  0.00    +0.000 A 
ATOM     25  N   UNL     1       5.361   3.767  15.399  0.00  0.00    +0.000 NA
ATOM     26  C   UNL     1       6.127   4.117  14.273  0.00  0.00    +0.000 A 
ATOM     27  C   UNL     1       5.887   3.463  13.065  0.00  0.00    +0.000 A 
ATOM     28  C   UNL     1       6.654   3.757  11.936  0.00  0.00    +0.000 A 
ATOM     29  C   UNL     1       7.684   4.695  12.012  0.00  0.00    +0.000 A 
ATOM     30  C   UNL     1       7.931   5.366  13.212  0.00  0.00    +0.000 A 
ATOM     31  C   UNL     1       7.138   5.090  14.326  0.00  0.00    +0.000 A 
ATOM     32  N   UNL     1       7.304   5.830  15.501  0.00  0.00    +0.000 N 
ATOM     33  C   UNL     1       6.460   5.662  16.568  0.00  0.00    +0.000 A 
ATOM     34  O   UNL     1       6.412   6.426  17.519  0.00  0.00    +0.000 OA
ATOM     35  H   UNL     1       7.948   6.609  15.538  0.00  0.00    +0.000 HD
ENDBRANCH  23  24
ENDBRANCH  22  23
ENDBRANCH   8  22
TORSDOF 5
ENDMDL
MODEL 5
REMARK VINA RESULT:      -8.9      4.699     10.834
REMARK  Name = 
REMARK  5 active torsions:
REMARK  status: ('A' for Active; 'I' for Inactive)
REMARK    1  A    between atoms: N_3  and  C_4
REMARK    2  A    between atoms: C_8  and  C_9
REMARK    3  A    between atoms: C_18  and  S_19
REMARK    4  A    between atoms: S_19  and  C_20
REMARK    5  A    between atoms: C_20  and  C_21
REMARK                            x       y       z     vdW  Elec       q    Type
REMARK                         _______ _______ _______ _____ _____    ______ ____
ROOT
ATOM      1  O   UNL     1       3.346   4.109  20.008  0.00  0.00    +0.000 OA
ATOM      2  C   UNL     1       3.267   5.317  19.782  0.00  0.00    +0.000 C 
ATOM      3  N   UNL     1       4.159   6.040  19.039  0.00  0.00    +0.000 N 
ATOM      4  N   UNL     1       2.272   5.994  20.419  0.00  0.00    +0.000 N 
ATOM      5  C   UNL     1       1.786   7.266  20.280  0.00  0.00    +0.000 A 
ATOM      6  N   UNL     1       0.977   7.817  21.161  0.00  0.00    +0.000 NA
ATOM      7  N   UNL     1       0.596   9.090  20.789  0.00  0.00    +0.000 NA
ATOM      8  C   UNL     1       1.072   9.418  19.607  0.00  0.00    +0.000 A 
ATOM      9  S   UNL     1       2.074   8.223  18.899  0.00  0.00    +0.000 S 
ATOM     10  H   UNL     1       4.081   7.045  19.108  0.00  0.00    +0.000 HD
ATOM     11  H   UNL     1       1.816   5.449  21.138  0.00  0.00    +0.000 HD
ENDROOT
BRANCH   3  12
ATOM     12  C   UNL     1       5.308   5.555  18.378  0.00  0.00    +0.000 A 
ATOM     13  C   UNL     1       6.548   5.400  18.999  0.00  0.00    +0.000 A 
ATOM     14  C   UNL     1       7.657   4.956  18.277  0.00  0.00    +0.000 A 
ATOM     15  C   UNL     1       7.538   4.662  16.920  0.00  0.00    +0.000 A 
ATOM     16  C   UNL     1       6.303   4.798  16.275  0.00  0.00    +0.000 A 
ATOM     17  C   UNL     1       5.187   5.228  17.019  0.00  0.00    +0.000 A 
BRANCH  16  18
ATOM     18  C   UNL     1       6.164   4.511  14.801  0.00  0.00    +0.000 C 
ATOM     19  F   UNL     1       5.027   5.014  14.248  0.00  0.00    +0.000 F 
ATOM     20  F   UNL     1       7.192   5.022  14.070  0.00  0.00    +0.000 F 
ATOM     21  F   UNL     1       6.147   3.175  14.532  0.00  0.00    +0.000 F 
ENDBRANCH  16  18
ENDBRANCH   3  12
BRANCH   8  22
ATOM     22  S   UNL     1       0.700  10.938  18.829  0.00  0.00    +0.000 S 
BRANCH  22  23
ATOM     23  C   UNL     1      -0.968  10.581  18.194  0.00  0.00    +0.000 C 
BRANCH  23  24
ATOM     24  C   UNL     1      -2.026  11.415  18.879  0.00  0.00    +0.000 A 
ATOM     25  N   UNL     1      -1.835  11.947  20.055  0.00  0.00    +0.000 NA
ATOM     26  C   UNL     1      -2.895  12.664  20.638  0.00  0.00    +0.000 A 
ATOM     27  C   UNL     1      -2.681  13.312  21.854  0.00  0.00    +0.000 A 
ATOM     28  C   UNL     1      -3.722  14.001  22.481  0.00  0.00    +0.000 A 
ATOM     29  C   UNL     1      -4.993  14.026  21.907  0.00  0.00    +0.000 A 
ATOM     30  C   UNL     1      -5.221  13.389  20.685  0.00  0.00    +0.000 A 
ATOM     31  C   UNL     1      -4.167  12.733  20.049  0.00  0.00    +0.000 A 
ATOM     32  N   UNL     1      -4.355  12.184  18.776  0.00  0.00    +0.000 N 
ATOM     33  C   UNL     1      -3.306  11.640  18.079  0.00  0.00    +0.000 A 
ATOM     34  O   UNL     1      -3.358  11.357  16.892  0.00  0.00    +0.000 OA
ATOM     35  H   UNL     1      -5.225  12.310  18.279  0.00  0.00    +0.000 HD
ENDBRANCH  23  24
ENDBRANCH  22  23
ENDBRANCH   8  22
TORSDOF 5
ENDMDL
MODEL 6
REMARK VINA RESULT:      -8.8      4.946     10.766
REMARK  Name = 
REMARK  5 active torsions:
REMARK  status: ('A' for Active; 'I' for Inactive)
REMARK    1  A    between atoms: N_3  and  C_4
REMARK    2  A    between atoms: C_8  and  C_9
REMARK    3  A    between atoms: C_18  and  S_19
REMARK    4  A    between atoms: S_19  and  C_20
REMARK    5  A    between atoms: C_20  and  C_21
REMARK                            x       y       z     vdW  Elec       q    Type
REMARK                         _______ _______ _______ _____ _____    ______ ____
ROOT
ATOM      1  O   UNL     1       2.100   4.956  20.934  0.00  0.00    +0.000 OA
ATOM      2  C   UNL     1       2.159   6.111  20.510  0.00  0.00    +0.000 C 
ATOM      3  N   UNL     1       2.827   6.506  19.383  0.00  0.00    +0.000 N 
ATOM      4  N   UNL     1       1.606   7.078  21.294  0.00  0.00    +0.000 N 
ATOM      5  C   UNL     1       1.336   8.402  21.075  0.00  0.00    +0.000 A 
ATOM      6  N   UNL     1       1.021   9.233  22.046  0.00  0.00    +0.000 NA
ATOM      7  N   UNL     1       0.761  10.504  21.576  0.00  0.00    +0.000 NA
ATOM      8  C   UNL     1       0.818  10.562  20.263  0.00  0.00    +0.000 A 
ATOM      9  S   UNL     1       1.260   9.086  19.515  0.00  0.00    +0.000 S 
ATOM     10  H   UNL     1       2.960   7.500  19.273  0.00  0.00    +0.000 HD
ATOM     11  H   UNL     1       1.358   6.749  22.217  0.00  0.00    +0.000 HD
ENDROOT
BRANCH   3  12
ATOM     12  C   UNL     1       3.546   5.685  18.488  0.00  0.00    +0.000 A 
ATOM     13  C   UNL     1       2.950   4.704  17.693  0.00  0.00    +0.000 A 
ATOM     14  C   UNL     1       3.724   3.894  16.859  0.00  0.00    +0.000 A 
ATOM     15  C   UNL     1       5.108   4.056  16.813  0.00  0.00    +0.000 A 
ATOM     16  C   UNL     1       5.729   5.040  17.592  0.00  0.00    +0.000 A 
ATOM     17  C   UNL     1       4.935   5.863  18.414  0.00  0.00    +0.000 A 
BRANCH  16  18
ATOM     18  C   UNL     1       7.228   5.209  17.573  0.00  0.00    +0.000 C 
ATOM     19  F   UNL     1       7.888   4.185  16.967  0.00  0.00    +0.000 F 
ATOM     20  F   UNL     1       7.617   6.341  16.924  0.00  0.00    +0.000 F 
ATOM     21  F   UNL     1       7.754   5.301  18.826  0.00  0.00    +0.000 F 
ENDBRANCH  16  18
ENDBRANCH   3  12
BRANCH   8  22
ATOM     22  S   UNL     1       0.462  12.019  19.367  0.00  0.00    +0.000 S 
BRANCH  22  23
ATOM     23  C   UNL     1      -0.590  12.893  20.568  0.00  0.00    +0.000 C 
BRANCH  23  24
ATOM     24  C   UNL     1      -2.059  12.615  20.345  0.00  0.00    +0.000 A 
ATOM     25  N   UNL     1      -2.512  12.161  19.209  0.00  0.00    +0.000 NA
ATOM     26  C   UNL     1      -3.900  11.982  19.075  0.00  0.00    +0.000 A 
ATOM     27  C   UNL     1      -4.396  11.415  17.900  0.00  0.00    +0.000 A 
ATOM     28  C   UNL     1      -5.771  11.258  17.716  0.00  0.00    +0.000 A 
ATOM     29  C   UNL     1      -6.664  11.687  18.698  0.00  0.00    +0.000 A 
ATOM     30  C   UNL     1      -6.184  12.248  19.883  0.00  0.00    +0.000 A 
ATOM     31  C   UNL     1      -4.807  12.370  20.073  0.00  0.00    +0.000 A 
ATOM     32  N   UNL     1      -4.310  12.829  21.297  0.00  0.00    +0.000 N 
ATOM     33  C   UNL     1      -2.963  12.846  21.553  0.00  0.00    +0.000 A 
ATOM     34  O   UNL     1      -2.488  13.016  22.664  0.00  0.00    +0.000 OA
ATOM     35  H   UNL     1      -4.931  13.015  22.073  0.00  0.00    +0.000 HD
ENDBRANCH  23  24
ENDBRANCH  22  23
ENDBRANCH   8  22
TORSDOF 5
ENDMDL
MODEL 7
REMARK VINA RESULT:      -8.8      4.361     10.498
REMARK  Name = 
REMARK  5 active torsions:
REMARK  status: ('A' for Active; 'I' for Inactive)
REMARK    1  A    between atoms: N_3  and  C_4
REMARK    2  A    between atoms: C_8  and  C_9
REMARK    3  A    between atoms: C_18  and  S_19
REMARK    4  A    between atoms: S_19  and  C_20
REMARK    5  A    between atoms: C_20  and  C_21
REMARK                            x       y       z     vdW  Elec       q    Type
REMARK                         _______ _______ _______ _____ _____    ______ ____
ROOT
ATOM      1  O   UNL     1       3.301   4.047  19.867  0.00  0.00    +0.000 OA
ATOM      2  C   UNL     1       3.250   5.263  19.675  0.00  0.00    +0.000 C 
ATOM      3  N   UNL     1       4.153   5.985  18.944  0.00  0.00    +0.000 N 
ATOM      4  N   UNL     1       2.277   5.946  20.340  0.00  0.00    +0.000 N 
ATOM      5  C   UNL     1       1.821   7.232  20.242  0.00  0.00    +0.000 A 
ATOM      6  N   UNL     1       1.034   7.778  21.145  0.00  0.00    +0.000 NA
ATOM      7  N   UNL     1       0.681   9.070  20.812  0.00  0.00    +0.000 NA
ATOM      8  C   UNL     1       1.154   9.419  19.635  0.00  0.00    +0.000 A 
ATOM      9  S   UNL     1       2.121   8.220  18.885  0.00  0.00    +0.000 S 
ATOM     10  H   UNL     1       4.100   6.988  19.043  0.00  0.00    +0.000 HD
ATOM     11  H   UNL     1       1.813   5.392  21.047  0.00  0.00    +0.000 HD
ENDROOT
BRANCH   3  12
ATOM     12  C   UNL     1       5.284   5.491  18.260  0.00  0.00    +0.000 A 
ATOM     13  C   UNL     1       6.528   5.300  18.862  0.00  0.00    +0.000 A 
ATOM     14  C   UNL     1       7.620   4.849  18.117  0.00  0.00    +0.000 A 
ATOM     15  C   UNL     1       7.478   4.584  16.757  0.00  0.00    +0.000 A 
ATOM     16  C   UNL     1       6.238   4.755  16.130  0.00  0.00    +0.000 A 
ATOM     17  C   UNL     1       5.140   5.192  16.897  0.00  0.00    +0.000 A 
BRANCH  16  18
ATOM     18  C   UNL     1       6.075   4.498  14.653  0.00  0.00    +0.000 C 
ATOM     19  F   UNL     1       4.850   4.841  14.169  0.00  0.00    +0.000 F 
ATOM     20  F   UNL     1       6.979   5.185  13.901  0.00  0.00    +0.000 F 
ATOM     21  F   UNL     1       6.247   3.185  14.333  0.00  0.00    +0.000 F 
ENDBRANCH  16  18
ENDBRANCH   3  12
BRANCH   8  22
ATOM     22  S   UNL     1       0.814  10.969  18.904  0.00  0.00    +0.000 S 
BRANCH  22  23
ATOM     23  C   UNL     1      -0.062  11.792  20.272  0.00  0.00    +0.000 C 
BRANCH  23  24
ATOM     24  C   UNL     1      -1.540  11.937  19.994  0.00  0.00    +0.000 A 
ATOM     25  N   UNL     1      -2.074  11.547  18.869  0.00  0.00    +0.000 NA
ATOM     26  C   UNL     1      -3.449  11.770  18.677  0.00  0.00    +0.000 A 
ATOM     27  C   UNL     1      -4.055  11.283  17.520  0.00  0.00    +0.000 A 
ATOM     28  C   UNL     1      -5.411  11.519  17.277  0.00  0.00    +0.000 A 
ATOM     29  C   UNL     1      -6.165  12.266  18.182  0.00  0.00    +0.000 A 
ATOM     30  C   UNL     1      -5.575  12.754  19.350  0.00  0.00    +0.000 A 
ATOM     31  C   UNL     1      -4.230  12.483  19.601  0.00  0.00    +0.000 A 
ATOM     32  N   UNL     1      -3.655  12.872  20.815  0.00  0.00    +0.000 N 
ATOM     33  C   UNL     1      -2.370  12.515  21.136  0.00  0.00    +0.000 A 
ATOM     34  O   UNL     1      -1.898  12.626  22.257  0.00  0.00    +0.000 OA
ATOM     35  H   UNL     1      -4.215  13.291  21.545  0.00  0.00    +0.000 HD
ENDBRANCH  23  24
ENDBRANCH  22  23
ENDBRANCH   8  22
TORSDOF 5
ENDMDL
MODEL 8
REMARK VINA RESULT:      -8.8      4.521     10.728
REMARK  Name = 
REMARK  5 active torsions:
REMARK  status: ('A' for Active; 'I' for Inactive)
REMARK    1  A    between atoms: N_3  and  C_4
REMARK    2  A    between atoms: C_8  and  C_9
REMARK    3  A    between atoms: C_18  and  S_19
REMARK    4  A    between atoms: S_19  and  C_20
REMARK    5  A    between atoms: C_20  and  C_21
REMARK                            x       y       z     vdW  Elec       q    Type
REMARK                         _______ _______ _______ _____ _____    ______ ____
ROOT
ATOM      1  O   UNL     1       3.310   4.170  20.054  0.00  0.00    +0.000 OA
ATOM      2  C   UNL     1       3.235   5.374  19.807  0.00  0.00    +0.000 C 
ATOM      3  N   UNL     1       4.119   6.078  19.037  0.00  0.00    +0.000 N 
ATOM      4  N   UNL     1       2.254   6.069  20.447  0.00  0.00    +0.000 N 
ATOM      5  C   UNL     1       1.773   7.340  20.293  0.00  0.00    +0.000 A 
ATOM      6  N   UNL     1       0.982   7.912  21.176  0.00  0.00    +0.000 NA
ATOM      7  N   UNL     1       0.602   9.180  20.786  0.00  0.00    +0.000 NA
ATOM      8  C   UNL     1       1.061   9.484  19.592  0.00  0.00    +0.000 A 
ATOM      9  S   UNL     1       2.045   8.270  18.890  0.00  0.00    +0.000 S 
ATOM     10  H   UNL     1       4.048   7.084  19.089  0.00  0.00    +0.000 HD
ATOM     11  H   UNL     1       1.806   5.539  21.183  0.00  0.00    +0.000 HD
ENDROOT
BRANCH   3  12
ATOM     12  C   UNL     1       5.254   5.574  18.367  0.00  0.00    +0.000 A 
ATOM     13  C   UNL     1       6.492   5.383  18.983  0.00  0.00    +0.000 A 
ATOM     14  C   UNL     1       7.589   4.921  18.252  0.00  0.00    +0.000 A 
ATOM     15  C   UNL     1       7.459   4.646  16.892  0.00  0.00    +0.000 A 
ATOM     16  C   UNL     1       6.225   4.817  16.252  0.00  0.00    +0.000 A 
ATOM     17  C   UNL     1       5.122   5.265  17.005  0.00  0.00    +0.000 A 
BRANCH  16  18
ATOM     18  C   UNL     1       6.076   4.549  14.776  0.00  0.00    +0.000 C 
ATOM     19  F   UNL     1       4.849   4.870  14.282  0.00  0.00    +0.000 F 
ATOM     20  F   UNL     1       6.974   5.244  14.025  0.00  0.00    +0.000 F 
ATOM     21  F   UNL     1       6.269   3.237  14.465  0.00  0.00    +0.000 F 
ENDBRANCH  16  18
ENDBRANCH   3  12
BRANCH   8  22
ATOM     22  S   UNL     1       0.686  10.992  18.792  0.00  0.00    +0.000 S 
BRANCH  22  23
ATOM     23  C   UNL     1       0.448  12.077  20.234  0.00  0.00    +0.000 C 
BRANCH  23  24
ATOM     24  C   UNL     1      -1.008  12.194  20.622  0.00  0.00    +0.000 A 
ATOM     25  N   UNL     1      -1.963  12.200  19.733  0.00  0.00    +0.000 NA
ATOM     26  C   UNL     1      -3.284  12.366  20.183  0.00  0.00    +0.000 A 
ATOM     27  C   UNL     1      -4.325  12.288  19.258  0.00  0.00    +0.000 A 
ATOM     28  C   UNL     1      -5.648  12.486  19.662  0.00  0.00    +0.000 A 
ATOM     29  C   UNL     1      -5.936  12.788  20.993  0.00  0.00    +0.000 A 
ATOM     30  C   UNL     1      -4.906  12.862  21.933  0.00  0.00    +0.000 A 
ATOM     31  C   UNL     1      -3.592  12.628  21.527  0.00  0.00    +0.000 A 
ATOM     32  N   UNL     1      -2.565  12.592  22.476  0.00  0.00    +0.000 N 
ATOM     33  C   UNL     1      -1.286  12.247  22.122  0.00  0.00    +0.000 A 
ATOM     34  O   UNL     1      -0.410  11.980  22.929  0.00  0.00    +0.000 OA
ATOM     35  H   UNL     1      -2.767  12.670  23.463  0.00  0.00    +0.000 HD
ENDBRANCH  23  24
ENDBRANCH  22  23
ENDBRANCH   8  22
TORSDOF 5
ENDMDL
MODEL 9
REMARK VINA RESULT:      -8.7      4.987     11.008
REMARK  Name = 
REMARK  5 active torsions:
REMARK  status: ('A' for Active; 'I' for Inactive)
REMARK    1  A    between atoms: N_3  and  C_4
REMARK    2  A    between atoms: C_8  and  C_9
REMARK    3  A    between atoms: C_18  and  S_19
REMARK    4  A    between atoms: S_19  and  C_20
REMARK    5  A    between atoms: C_20  and  C_21
REMARK                            x       y       z     vdW  Elec       q    Type
REMARK                         _______ _______ _______ _____ _____    ______ ____
ROOT
ATOM      1  O   UNL     1       2.036   5.168  20.909  0.00  0.00    +0.000 OA
ATOM      2  C   UNL     1       2.110   6.303  20.437  0.00  0.00    +0.000 C 
ATOM      3  N   UNL     1       2.790   6.644  19.300  0.00  0.00    +0.000 N 
ATOM      4  N   UNL     1       1.559   7.308  21.174  0.00  0.00    +0.000 N 
ATOM      5  C   UNL     1       1.304   8.624  20.897  0.00  0.00    +0.000 A 
ATOM      6  N   UNL     1       0.989   9.498  21.829  0.00  0.00    +0.000 NA
ATOM      7  N   UNL     1       0.745  10.750  21.304  0.00  0.00    +0.000 NA
ATOM      8  C   UNL     1       0.813  10.752  19.990  0.00  0.00    +0.000 A 
ATOM      9  S   UNL     1       1.246   9.241  19.309  0.00  0.00    +0.000 S 
ATOM     10  H   UNL     1       2.933   7.632  19.149  0.00  0.00    +0.000 HD
ATOM     11  H   UNL     1       1.301   7.021  22.109  0.00  0.00    +0.000 HD
ENDROOT
BRANCH   3  12
ATOM     12  C   UNL     1       3.508   5.779  18.447  0.00  0.00    +0.000 A 
ATOM     13  C   UNL     1       2.908   4.778  17.681  0.00  0.00    +0.000 A 
ATOM     14  C   UNL     1       3.681   3.925  16.890  0.00  0.00    +0.000 A 
ATOM     15  C   UNL     1       5.067   4.065  16.856  0.00  0.00    +0.000 A 
ATOM     16  C   UNL     1       5.693   5.069  17.605  0.00  0.00    +0.000 A 
ATOM     17  C   UNL     1       4.900   5.934  18.385  0.00  0.00    +0.000 A 
BRANCH  16  18
ATOM     18  C   UNL     1       7.194   5.215  17.601  0.00  0.00    +0.000 C 
ATOM     19  F   UNL     1       7.848   4.143  17.077  0.00  0.00    +0.000 F 
ATOM     20  F   UNL     1       7.611   6.295  16.884  0.00  0.00    +0.000 F 
ATOM     21  F   UNL     1       7.702   5.384  18.854  0.00  0.00    +0.000 F 
ENDBRANCH  16  18
ENDBRANCH   3  12
BRANCH   8  22
ATOM     22  S   UNL     1       0.478  12.173  19.030  0.00  0.00    +0.000 S 
BRANCH  22  23
ATOM     23  C   UNL     1      -1.026  11.632  18.159  0.00  0.00    +0.000 C 
BRANCH  23  24
ATOM     24  C   UNL     1      -2.283  12.009  18.908  0.00  0.00    +0.000 A 
ATOM     25  N   UNL     1      -2.245  12.602  20.071  0.00  0.00    +0.000 NA
ATOM     26  C   UNL     1      -3.464  12.867  20.719  0.00  0.00    +0.000 A 
ATOM     27  C   UNL     1      -3.447  13.577  21.919  0.00  0.00    +0.000 A 
ATOM     28  C   UNL     1      -4.635  13.825  22.610  0.00  0.00    +0.000 A 
ATOM     29  C   UNL     1      -5.848  13.345  22.116  0.00  0.00    +0.000 A 
ATOM     30  C   UNL     1      -5.882  12.641  20.911  0.00  0.00    +0.000 A 
ATOM     31  C   UNL     1      -4.696  12.427  20.210  0.00  0.00    +0.000 A 
ATOM     32  N   UNL     1      -4.730  11.818  18.951  0.00  0.00    +0.000 N 
ATOM     33  C   UNL     1      -3.595  11.704  18.190  0.00  0.00    +0.000 A 
ATOM     34  O   UNL     1      -3.601  11.395  17.008  0.00  0.00    +0.000 OA
ATOM     35  H   UNL     1      -5.608  11.587  18.509  0.00  0.00    +0.000 HD
ENDBRANCH  23  24
ENDBRANCH  22  23
ENDBRANCH   8  22
TORSDOF 5
ENDMDL
