MODEL 1
REMARK VINA RESULT:      -7.5      0.000      0.000
REMARK  Name = 
REMARK  8 active torsions:
REMARK  status: ('A' for Active; 'I' for Inactive)
REMARK    1  A    between atoms: C_1  and  C_2
REMARK    2  A    between atoms: C_2  and  N_3
REMARK    3  A    between atoms: C_2  and  C_8
REMARK    4  A    between atoms: N_3  and  S_4
REMARK    5  A    between atoms: S_4  and  C_5
REMARK    6  A    between atoms: N_10  and  C_11
REMARK    7  A    between atoms: C_11  and  C_12
REMARK    8  A    between atoms: C_14  and  C_15
REMARK                            x       y       z     vdW  Elec       q    Type
REMARK                         _______ _______ _______ _____ _____    ______ ____
ROOT
ATOM      1  C   UNL     1       4.592   4.184  19.249  0.00  0.00    +0.000 C 
ATOM      2  O   UNL     1       4.306   5.370  19.324  0.00  0.00    +0.000 OA
ATOM      3  N   UNL     1       5.693   3.729  18.543  0.00  0.00    +0.000 N 
ATOM      4  H   UNL     1       5.981   2.767  18.691  0.00  0.00    +0.000 HD
ENDROOT
BRANCH   1   6
ATOM      5  C   UNL     1       4.674   2.042  20.601  0.00  0.00    +0.000 C 
ATOM      6  C   UNL     1       3.785   3.075  19.926  0.00  0.00    +0.000 C 
BRANCH   6   7
ATOM      7  N   UNL     1       2.778   2.484  19.007  0.00  0.00    +0.000 NA
ATOM      8  H   UNL     1       3.161   2.212  18.098  0.00  0.00    +0.000 HD
BRANCH   7   9
ATOM      9  S   UNL     1       1.256   3.152  18.770  0.00  0.00    +0.000 S 
ATOM     10  C   UNL     1       0.956   4.142  20.220  0.00  0.00    +0.000 C 
ATOM     11  O   UNL     1       1.300   4.005  17.607  0.00  0.00    +0.000 OA
ATOM     12  O   UNL     1       0.354   2.020  18.819  0.00  0.00    +0.000 OA
ENDBRANCH   7   9
ENDBRANCH   6   7
ENDBRANCH   1   6
BRANCH   3  13
ATOM     13  C   UNL     1       6.661   4.667  18.038  0.00  0.00    +0.000 C 
BRANCH  13  14
ATOM     14  C   UNL     1       6.644   4.619  16.564  0.00  0.00    +0.000 A 
ATOM     15  C   UNL     1       5.962   3.829  15.663  0.00  0.00    +0.000 A 
ATOM     16  C   UNL     1       6.456   4.211  14.395  0.00  0.00    +0.000 A 
ATOM     17  N   UNL     1       7.368   5.186  14.490  0.00  0.00    +0.000 NA
ATOM     18  N   UNL     1       7.453   5.422  15.808  0.00  0.00    +0.000 N 
ATOM     19  H   UNL     1       8.098   6.139  16.129  0.00  0.00    +0.000 HD
BRANCH  16  20
ATOM     20  C   UNL     1       6.038   3.614  13.095  0.00  0.00    +0.000 A 
ATOM     21  C   UNL     1       4.774   3.674  12.540  0.00  0.00    +0.000 A 
ATOM     22  C   UNL     1       4.827   2.956  11.320  0.00  0.00    +0.000 A 
ATOM     23  C   UNL     1       6.120   2.508  11.200  0.00  0.00    +0.000 A 
ATOM     24  O   UNL     1       6.865   2.908  12.262  0.00  0.00    +0.000 OA
ENDBRANCH  16  20
ENDBRANCH  13  14
ENDBRANCH   3  13
TORSDOF 6
ENDMDL
MODEL 2
REMARK VINA RESULT:      -7.2      1.091      1.094
REMARK  Name = 
REMARK  8 active torsions:
REMARK  status: ('A' for Active; 'I' for Inactive)
REMARK    1  A    between atoms: C_1  and  C_2
REMARK    2  A    between atoms: C_2  and  N_3
REMARK    3  A    between atoms: C_2  and  C_8
REMARK    4  A    between atoms: N_3  and  S_4
REMARK    5  A    between atoms: S_4  and  C_5
REMARK    6  A    between atoms: N_10  and  C_11
REMARK    7  A    between atoms: C_11  and  C_12
REMARK    8  A    between atoms: C_14  and  C_15
REMARK                            x       y       z     vdW  Elec       q    Type
REMARK                         _______ _______ _______ _____ _____    ______ ____
ROOT
ATOM      1  C   UNL     1       5.137   4.696  19.047  0.00  0.00    +0.000 C 
ATOM      2  O   UNL     1       6.290   4.583  19.439  0.00  0.00    +0.000 OA
ATOM      3  N   UNL     1       4.741   5.709  18.190  0.00  0.00    +0.000 N 
ATOM      4  H   UNL     1       3.830   5.624  17.751  0.00  0.00    +0.000 HD
ENDROOT
BRANCH   1   6
ATOM      5  C   UNL     1       4.533   2.474  20.104  0.00  0.00    +0.000 C 
ATOM      6  C   UNL     1       4.012   3.739  19.441  0.00  0.00    +0.000 C 
BRANCH   6   7
ATOM      7  N   UNL     1       3.085   3.479  18.309  0.00  0.00    +0.000 NA
ATOM      8  H   UNL     1       3.310   4.011  17.464  0.00  0.00    +0.000 HD
BRANCH   7   9
ATOM      9  S   UNL     1       1.416   3.435  18.486  0.00  0.00    +0.000 S 
ATOM     10  C   UNL     1       1.092   4.299  20.010  0.00  0.00    +0.000 C 
ATOM     11  O   UNL     1       0.814   4.153  17.389  0.00  0.00    +0.000 OA
ATOM     12  O   UNL     1       1.114   2.035  18.704  0.00  0.00    +0.000 OA
ENDBRANCH   7   9
ENDBRANCH   6   7
ENDBRANCH   1   6
BRANCH   3  13
ATOM     13  C   UNL     1       5.729   6.552  17.567  0.00  0.00    +0.000 C 
BRANCH  13  14
ATOM     14  C   UNL     1       6.146   5.932  16.296  0.00  0.00    +0.000 A 
ATOM     15  C   UNL     1       5.476   5.171  15.363  0.00  0.00    +0.000 A 
ATOM     16  C   UNL     1       6.458   4.800  14.417  0.00  0.00    +0.000 A 
ATOM     17  N   UNL     1       7.657   5.312  14.722  0.00  0.00    +0.000 NA
ATOM     18  N   UNL     1       7.438   6.000  15.852  0.00  0.00    +0.000 N 
ATOM     19  H   UNL     1       8.222   6.485  16.280  0.00  0.00    +0.000 HD
BRANCH  16  20
ATOM     20  C   UNL     1       6.221   3.942  13.222  0.00  0.00    +0.000 A 
ATOM     21  C   UNL     1       4.995   3.479  12.782  0.00  0.00    +0.000 A 
ATOM     22  C   UNL     1       5.244   2.687  11.635  0.00  0.00    +0.000 A 
ATOM     23  C   UNL     1       6.603   2.720  11.438  0.00  0.00    +0.000 A 
ATOM     24  O   UNL     1       7.204   3.485  12.386  0.00  0.00    +0.000 OA
ENDBRANCH  16  20
ENDBRANCH  13  14
ENDBRANCH   3  13
TORSDOF 6
ENDMDL
MODEL 3
REMARK VINA RESULT:      -7.2      1.923      2.367
REMARK  Name = 
REMARK  8 active torsions:
REMARK  status: ('A' for Active; 'I' for Inactive)
REMARK    1  A    between atoms: C_1  and  C_2
REMARK    2  A    between atoms: C_2  and  N_3
REMARK    3  A    between atoms: C_2  and  C_8
REMARK    4  A    between atoms: N_3  and  S_4
REMARK    5  A    between atoms: S_4  and  C_5
REMARK    6  A    between atoms: N_10  and  C_11
REMARK    7  A    between atoms: C_11  and  C_12
REMARK    8  A    between atoms: C_14  and  C_15
REMARK                            x       y       z     vdW  Elec       q    Type
REMARK                         _______ _______ _______ _____ _____    ______ ____
ROOT
ATOM      1  C   UNL     1       4.808   5.490  18.969  0.00  0.00    +0.000 C 
ATOM      2  O   UNL     1       5.604   4.982  19.747  0.00  0.00    +0.000 OA
ATOM      3  N   UNL     1       5.210   6.128  17.808  0.00  0.00    +0.000 N 
ATOM      4  H   UNL     1       4.497   6.342  17.118  0.00  0.00    +0.000 HD
ENDROOT
BRANCH   1   6
ATOM      5  C   UNL     1       2.630   6.762  18.723  0.00  0.00    +0.000 C 
ATOM      6  C   UNL     1       3.293   5.470  19.175  0.00  0.00    +0.000 C 
BRANCH   6   7
ATOM      7  N   UNL     1       2.929   5.066  20.558  0.00  0.00    +0.000 NA
ATOM      8  H   UNL     1       3.699   5.150  21.227  0.00  0.00    +0.000 HD
BRANCH   7   9
ATOM      9  S   UNL     1       2.070   3.665  20.904  0.00  0.00    +0.000 S 
ATOM     10  C   UNL     1       2.736   2.433  19.804  0.00  0.00    +0.000 C 
ATOM     11  O   UNL     1       2.335   3.284  22.270  0.00  0.00    +0.000 OA
ATOM     12  O   UNL     1       0.719   3.955  20.470  0.00  0.00    +0.000 OA
ENDBRANCH   7   9
ENDBRANCH   6   7
ENDBRANCH   1   6
BRANCH   3  13
ATOM     13  C   UNL     1       6.580   6.037  17.374  0.00  0.00    +0.000 C 
BRANCH  13  14
ATOM     14  C   UNL     1       6.608   5.508  15.998  0.00  0.00    +0.000 A 
ATOM     15  C   UNL     1       5.724   4.737  15.275  0.00  0.00    +0.000 A 
ATOM     16  C   UNL     1       6.375   4.488  14.046  0.00  0.00    +0.000 A 
ATOM     17  N   UNL     1       7.575   5.078  13.991  0.00  0.00    +0.000 NA
ATOM     18  N   UNL     1       7.685   5.697  15.177  0.00  0.00    +0.000 N 
ATOM     19  H   UNL     1       8.533   6.223  15.368  0.00  0.00    +0.000 HD
BRANCH  16  20
ATOM     20  C   UNL     1       5.823   3.666  12.932  0.00  0.00    +0.000 A 
ATOM     21  C   UNL     1       6.497   2.683  12.232  0.00  0.00    +0.000 A 
ATOM     22  C   UNL     1       5.600   2.187  11.255  0.00  0.00    +0.000 A 
ATOM     23  C   UNL     1       4.431   2.890  11.421  0.00  0.00    +0.000 A 
ATOM     24  O   UNL     1       4.550   3.780  12.439  0.00  0.00    +0.000 OA
ENDBRANCH  16  20
ENDBRANCH  13  14
ENDBRANCH   3  13
TORSDOF 6
ENDMDL
MODEL 4
REMARK VINA RESULT:      -7.1      1.776      2.073
REMARK  Name = 
REMARK  8 active torsions:
REMARK  status: ('A' for Active; 'I' for Inactive)
REMARK    1  A    between atoms: C_1  and  C_2
REMARK    2  A    between atoms: C_2  and  N_3
REMARK    3  A    between atoms: C_2  and  C_8
REMARK    4  A    between atoms: N_3  and  S_4
REMARK    5  A    between atoms: S_4  and  C_5
REMARK    6  A    between atoms: N_10  and  C_11
REMARK    7  A    between atoms: C_11  and  C_12
REMARK    8  A    between atoms: C_14  and  C_15
REMARK                            x       y       z     vdW  Elec       q    Type
REMARK                         _______ _______ _______ _____ _____    ______ ____
ROOT
ATOM      1  C   UNL     1       4.868   4.690  19.091  0.00  0.00    +0.000 C 
ATOM      2  O   UNL     1       5.461   3.750  19.602  0.00  0.00    +0.000 OA
ATOM      3  N   UNL     1       5.489   5.583  18.235  0.00  0.00    +0.000 N 
ATOM      4  H   UNL     1       4.898   6.207  17.696  0.00  0.00    +0.000 HD
ENDROOT
BRANCH   1   6
ATOM      5  C   UNL     1       3.023   6.426  19.021  0.00  0.00    +0.000 C 
ATOM      6  C   UNL     1       3.384   4.980  19.322  0.00  0.00    +0.000 C 
BRANCH   6   7
ATOM      7  N   UNL     1       2.933   4.520  20.662  0.00  0.00    +0.000 NA
ATOM      8  H   UNL     1       3.556   4.802  21.423  0.00  0.00    +0.000 HD
BRANCH   7   9
ATOM      9  S   UNL     1       2.397   2.957  20.957  0.00  0.00    +0.000 S 
ATOM     10  C   UNL     1       2.122   2.251  19.346  0.00  0.00    +0.000 C 
ATOM     11  O   UNL     1       3.445   2.227  21.629  0.00  0.00    +0.000 OA
ATOM     12  O   UNL     1       1.104   3.132  21.585  0.00  0.00    +0.000 OA
ENDBRANCH   7   9
ENDBRANCH   6   7
ENDBRANCH   1   6
BRANCH   3  13
ATOM     13  C   UNL     1       6.821   5.313  17.757  0.00  0.00    +0.000 C 
BRANCH  13  14
ATOM     14  C   UNL     1       6.761   5.063  16.305  0.00  0.00    +0.000 A 
ATOM     15  C   UNL     1       6.012   4.199  15.536  0.00  0.00    +0.000 A 
ATOM     16  C   UNL     1       6.491   4.372  14.217  0.00  0.00    +0.000 A 
ATOM     17  N   UNL     1       7.458   5.296  14.159  0.00  0.00    +0.000 NA
ATOM     18  N   UNL     1       7.592   5.705  15.429  0.00  0.00    +0.000 N 
ATOM     19  H   UNL     1       8.284   6.420  15.634  0.00  0.00    +0.000 HD
BRANCH  16  20
ATOM     20  C   UNL     1       6.005   3.627  13.022  0.00  0.00    +0.000 A 
ATOM     21  C   UNL     1       4.718   3.644  12.519  0.00  0.00    +0.000 A 
ATOM     22  C   UNL     1       4.704   2.780  11.397  0.00  0.00    +0.000 A 
ATOM     23  C   UNL     1       5.984   2.295  11.277  0.00  0.00    +0.000 A 
ATOM     24  O   UNL     1       6.783   2.808  12.247  0.00  0.00    +0.000 OA
ENDBRANCH  16  20
ENDBRANCH  13  14
ENDBRANCH   3  13
TORSDOF 6
ENDMDL
MODEL 5
REMARK VINA RESULT:      -7.1      1.825      2.183
REMARK  Name = 
REMARK  8 active torsions:
REMARK  status: ('A' for Active; 'I' for Inactive)
REMARK    1  A    between atoms: C_1  and  C_2
REMARK    2  A    between atoms: C_2  and  N_3
REMARK    3  A    between atoms: C_2  and  C_8
REMARK    4  A    between atoms: N_3  and  S_4
REMARK    5  A    between atoms: S_4  and  C_5
REMARK    6  A    between atoms: N_10  and  C_11
REMARK    7  A    between atoms: C_11  and  C_12
REMARK    8  A    between atoms: C_14  and  C_15
REMARK                            x       y       z     vdW  Elec       q    Type
REMARK                         _______ _______ _______ _____ _____    ______ ____
ROOT
ATOM      1  C   UNL     1       5.018   4.884  18.963  0.00  0.00    +0.000 C 
ATOM      2  O   UNL     1       5.636   3.984  19.514  0.00  0.00    +0.000 OA
ATOM      3  N   UNL     1       5.593   5.701  18.004  0.00  0.00    +0.000 N 
ATOM      4  H   UNL     1       4.973   6.284  17.451  0.00  0.00    +0.000 HD
ENDROOT
BRANCH   1   6
ATOM      5  C   UNL     1       3.213   6.664  18.989  0.00  0.00    +0.000 C 
ATOM      6  C   UNL     1       3.551   5.205  19.255  0.00  0.00    +0.000 C 
BRANCH   6   7
ATOM      7  N   UNL     1       3.141   4.735  20.604  0.00  0.00    +0.000 NA
ATOM      8  H   UNL     1       3.874   4.826  21.311  0.00  0.00    +0.000 HD
BRANCH   7   9
ATOM      9  S   UNL     1       2.328   3.288  20.857  0.00  0.00    +0.000 S 
ATOM     10  C   UNL     1       0.700   3.549  20.183  0.00  0.00    +0.000 C 
ATOM     11  O   UNL     1       2.993   2.246  20.115  0.00  0.00    +0.000 OA
ATOM     12  O   UNL     1       2.196   3.197  22.297  0.00  0.00    +0.000 OA
ENDBRANCH   7   9
ENDBRANCH   6   7
ENDBRANCH   1   6
BRANCH   3  13
ATOM     13  C   UNL     1       6.893   5.381  17.473  0.00  0.00    +0.000 C 
BRANCH  13  14
ATOM     14  C   UNL     1       6.757   5.077  16.037  0.00  0.00    +0.000 A 
ATOM     15  C   UNL     1       5.956   4.199  15.339  0.00  0.00    +0.000 A 
ATOM     16  C   UNL     1       6.372   4.313  13.993  0.00  0.00    +0.000 A 
ATOM     17  N   UNL     1       7.350   5.215  13.852  0.00  0.00    +0.000 NA
ATOM     18  N   UNL     1       7.555   5.670  15.097  0.00  0.00    +0.000 N 
ATOM     19  H   UNL     1       8.268   6.380  15.240  0.00  0.00    +0.000 HD
BRANCH  16  20
ATOM     20  C   UNL     1       5.815   3.533  12.852  0.00  0.00    +0.000 A 
ATOM     21  C   UNL     1       6.469   2.538  12.149  0.00  0.00    +0.000 A 
ATOM     22  C   UNL     1       5.576   2.093  11.143  0.00  0.00    +0.000 A 
ATOM     23  C   UNL     1       4.430   2.835  11.298  0.00  0.00    +0.000 A 
ATOM     24  O   UNL     1       4.559   3.702  12.335  0.00  0.00    +0.000 OA
ENDBRANCH  16  20
ENDBRANCH  13  14
ENDBRANCH   3  13
TORSDOF 6
ENDMDL
MODEL 6
REMARK VINA RESULT:      -7.1      1.666      2.343
REMARK  Name = 
REMARK  8 active torsions:
REMARK  status: ('A' for Active; 'I' for Inactive)
REMARK    1  A    between atoms: C_1  and  C_2
REMARK    2  A    between atoms: C_2  and  N_3
REMARK    3  A    between atoms: C_2  and  C_8
REMARK    4  A    between atoms: N_3  and  S_4
REMARK    5  A    between atoms: S_4  and  C_5
REMARK    6  A    between atoms: N_10  and  C_11
REMARK    7  A    between atoms: C_11  and  C_12
REMARK    8  A    between atoms: C_14  and  C_15
REMARK                            x       y       z     vdW  Elec       q    Type
REMARK                         _______ _______ _______ _____ _____    ______ ____
ROOT
ATOM      1  C   UNL     1       3.683   5.731  19.051  0.00  0.00    +0.000 C 
ATOM      2  O   UNL     1       3.994   6.731  18.419  0.00  0.00    +0.000 OA
ATOM      3  N   UNL     1       4.615   4.795  19.466  0.00  0.00    +0.000 N 
ATOM      4  H   UNL     1       4.318   4.107  20.150  0.00  0.00    +0.000 HD
ENDROOT
BRANCH   1   6
ATOM      5  C   UNL     1       1.796   6.205  20.675  0.00  0.00    +0.000 C 
ATOM      6  C   UNL     1       2.247   5.404  19.463  0.00  0.00    +0.000 C 
BRANCH   6   7
ATOM      7  N   UNL     1       2.031   3.941  19.603  0.00  0.00    +0.000 NA
ATOM      8  H   UNL     1       2.787   3.460  20.098  0.00  0.00    +0.000 HD
BRANCH   7   9
ATOM      9  S   UNL     1       1.517   2.968  18.335  0.00  0.00    +0.000 S 
ATOM     10  C   UNL     1       2.911   1.927  17.957  0.00  0.00    +0.000 C 
ATOM     11  O   UNL     1       0.418   2.153  18.792  0.00  0.00    +0.000 OA
ATOM     12  O   UNL     1       1.342   3.884  17.227  0.00  0.00    +0.000 OA
ENDBRANCH   7   9
ENDBRANCH   6   7
ENDBRANCH   1   6
BRANCH   3  13
ATOM     13  C   UNL     1       6.022   5.076  19.338  0.00  0.00    +0.000 C 
BRANCH  13  14
ATOM     14  C   UNL     1       6.338   5.275  17.912  0.00  0.00    +0.000 A 
ATOM     15  C   UNL     1       6.117   4.507  16.790  0.00  0.00    +0.000 A 
ATOM     16  C   UNL     1       6.746   5.208  15.736  0.00  0.00    +0.000 A 
ATOM     17  N   UNL     1       7.303   6.348  16.162  0.00  0.00    +0.000 NA
ATOM     18  N   UNL     1       7.032   6.370  17.475  0.00  0.00    +0.000 N 
ATOM     19  H   UNL     1       7.364   7.160  18.023  0.00  0.00    +0.000 HD
BRANCH  16  20
ATOM     20  C   UNL     1       6.804   4.756  14.317  0.00  0.00    +0.000 A 
ATOM     21  C   UNL     1       6.070   3.726  13.759  0.00  0.00    +0.000 A 
ATOM     22  C   UNL     1       6.460   3.633  12.401  0.00  0.00    +0.000 A 
ATOM     23  C   UNL     1       7.401   4.616  12.209  0.00  0.00    +0.000 A 
ATOM     24  O   UNL     1       7.610   5.308  13.358  0.00  0.00    +0.000 OA
ENDBRANCH  16  20
ENDBRANCH  13  14
ENDBRANCH   3  13
TORSDOF 6
ENDMDL
MODEL 7
REMARK VINA RESULT:      -6.9      1.537      1.599
REMARK  Name = 
REMARK  8 active torsions:
REMARK  status: ('A' for Active; 'I' for Inactive)
REMARK    1  A    between atoms: C_1  and  C_2
REMARK    2  A    between atoms: C_2  and  N_3
REMARK    3  A    between atoms: C_2  and  C_8
REMARK    4  A    between atoms: N_3  and  S_4
REMARK    5  A    between atoms: S_4  and  C_5
REMARK    6  A    between atoms: N_10  and  C_11
REMARK    7  A    between atoms: C_11  and  C_12
REMARK    8  A    between atoms: C_14  and  C_15
REMARK                            x       y       z     vdW  Elec       q    Type
REMARK                         _______ _______ _______ _____ _____    ______ ____
ROOT
ATOM      1  C   UNL     1       4.933   4.295  18.756  0.00  0.00    +0.000 C 
ATOM      2  O   UNL     1       6.065   4.047  19.148  0.00  0.00    +0.000 OA
ATOM      3  N   UNL     1       4.639   5.416  17.998  0.00  0.00    +0.000 N 
ATOM      4  H   UNL     1       3.733   5.451  17.543  0.00  0.00    +0.000 HD
ENDROOT
BRANCH   1   6
ATOM      5  C   UNL     1       3.659   2.201  18.114  0.00  0.00    +0.000 C 
ATOM      6  C   UNL     1       3.724   3.403  19.042  0.00  0.00    +0.000 C 
BRANCH   6   7
ATOM      7  N   UNL     1       2.461   4.184  19.096  0.00  0.00    +0.000 NA
ATOM      8  H   UNL     1       2.562   5.149  18.771  0.00  0.00    +0.000 HD
BRANCH   7   9
ATOM      9  S   UNL     1       1.433   4.168  20.423  0.00  0.00    +0.000 S 
ATOM     10  C   UNL     1       2.324   3.283  21.685  0.00  0.00    +0.000 C 
ATOM     11  O   UNL     1       1.211   5.526  20.854  0.00  0.00    +0.000 OA
ATOM     12  O   UNL     1       0.322   3.337  20.007  0.00  0.00    +0.000 OA
ENDBRANCH   7   9
ENDBRANCH   6   7
ENDBRANCH   1   6
BRANCH   3  13
ATOM     13  C   UNL     1       5.706   6.228  17.472  0.00  0.00    +0.000 C 
BRANCH  13  14
ATOM     14  C   UNL     1       6.113   5.684  16.163  0.00  0.00    +0.000 A 
ATOM     15  C   UNL     1       5.483   4.859  15.257  0.00  0.00    +0.000 A 
ATOM     16  C   UNL     1       6.441   4.627  14.244  0.00  0.00    +0.000 A 
ATOM     17  N   UNL     1       7.586   5.278  14.486  0.00  0.00    +0.000 NA
ATOM     18  N   UNL     1       7.357   5.917  15.643  0.00  0.00    +0.000 N 
ATOM     19  H   UNL     1       8.101   6.489  16.033  0.00  0.00    +0.000 HD
BRANCH  16  20
ATOM     20  C   UNL     1       6.235   3.764  13.047  0.00  0.00    +0.000 A 
ATOM     21  C   UNL     1       5.020   3.306  12.572  0.00  0.00    +0.000 A 
ATOM     22  C   UNL     1       5.299   2.506  11.437  0.00  0.00    +0.000 A 
ATOM     23  C   UNL     1       6.664   2.530  11.282  0.00  0.00    +0.000 A 
ATOM     24  O   UNL     1       7.240   3.295  12.244  0.00  0.00    +0.000 OA
ENDBRANCH  16  20
ENDBRANCH  13  14
ENDBRANCH   3  13
TORSDOF 6
ENDMDL
MODEL 8
REMARK VINA RESULT:      -6.9      1.682      1.977
REMARK  Name = 
REMARK  8 active torsions:
REMARK  status: ('A' for Active; 'I' for Inactive)
REMARK    1  A    between atoms: C_1  and  C_2
REMARK    2  A    between atoms: C_2  and  N_3
REMARK    3  A    between atoms: C_2  and  C_8
REMARK    4  A    between atoms: N_3  and  S_4
REMARK    5  A    between atoms: S_4  and  C_5
REMARK    6  A    between atoms: N_10  and  C_11
REMARK    7  A    between atoms: C_11  and  C_12
REMARK    8  A    between atoms: C_14  and  C_15
REMARK                            x       y       z     vdW  Elec       q    Type
REMARK                         _______ _______ _______ _____ _____    ______ ____
ROOT
ATOM      1  C   UNL     1       4.873   4.795  18.676  0.00  0.00    +0.000 C 
ATOM      2  O   UNL     1       5.445   3.775  19.034  0.00  0.00    +0.000 OA
ATOM      3  N   UNL     1       5.519   5.801  17.978  0.00  0.00    +0.000 N 
ATOM      4  H   UNL     1       4.943   6.514  17.541  0.00  0.00    +0.000 HD
ENDROOT
BRANCH   1   6
ATOM      5  C   UNL     1       3.058   6.553  18.860  0.00  0.00    +0.000 C 
ATOM      6  C   UNL     1       3.393   5.072  18.941  0.00  0.00    +0.000 C 
BRANCH   6   7
ATOM      7  N   UNL     1       2.924   4.423  20.193  0.00  0.00    +0.000 NA
ATOM      8  H   UNL     1       3.680   4.187  20.841  0.00  0.00    +0.000 HD
BRANCH   7   9
ATOM      9  S   UNL     1       1.796   3.181  20.210  0.00  0.00    +0.000 S 
ATOM     10  C   UNL     1       1.768   2.606  21.896  0.00  0.00    +0.000 C 
ATOM     11  O   UNL     1       0.504   3.723  19.866  0.00  0.00    +0.000 OA
ATOM     12  O   UNL     1       2.395   2.139  19.402  0.00  0.00    +0.000 OA
ENDBRANCH   7   9
ENDBRANCH   6   7
ENDBRANCH   1   6
BRANCH   3  13
ATOM     13  C   UNL     1       6.849   5.585  17.471  0.00  0.00    +0.000 C 
BRANCH  13  14
ATOM     14  C   UNL     1       6.760   5.215  16.046  0.00  0.00    +0.000 A 
ATOM     15  C   UNL     1       5.913   4.380  15.349  0.00  0.00    +0.000 A 
ATOM     16  C   UNL     1       6.409   4.378  14.025  0.00  0.00    +0.000 A 
ATOM     17  N   UNL     1       7.479   5.172  13.895  0.00  0.00    +0.000 NA
ATOM     18  N   UNL     1       7.661   5.674  15.126  0.00  0.00    +0.000 N 
ATOM     19  H   UNL     1       8.433   6.318  15.273  0.00  0.00    +0.000 HD
BRANCH  16  20
ATOM     20  C   UNL     1       5.838   3.592  12.895  0.00  0.00    +0.000 A 
ATOM     21  C   UNL     1       6.494   2.617  12.167  0.00  0.00    +0.000 A 
ATOM     22  C   UNL     1       5.584   2.158  11.184  0.00  0.00    +0.000 A 
ATOM     23  C   UNL     1       4.426   2.873  11.375  0.00  0.00    +0.000 A 
ATOM     24  O   UNL     1       4.564   3.736  12.414  0.00  0.00    +0.000 OA
ENDBRANCH  16  20
ENDBRANCH  13  14
ENDBRANCH   3  13
TORSDOF 6
ENDMDL
MODEL 9
REMARK VINA RESULT:      -6.9      3.564      7.052
REMARK  Name = 
REMARK  8 active torsions:
REMARK  status: ('A' for Active; 'I' for Inactive)
REMARK    1  A    between atoms: C_1  and  C_2
REMARK    2  A    between atoms: C_2  and  N_3
REMARK    3  A    between atoms: C_2  and  C_8
REMARK    4  A    between atoms: N_3  and  S_4
REMARK    5  A    between atoms: S_4  and  C_5
REMARK    6  A    between atoms: N_10  and  C_11
REMARK    7  A    between atoms: C_11  and  C_12
REMARK    8  A    between atoms: C_14  and  C_15
REMARK                            x       y       z     vdW  Elec       q    Type
REMARK                         _______ _______ _______ _____ _____    ______ ____
ROOT
ATOM      1  C   UNL     1       6.744   4.869  18.854  0.00  0.00    +0.000 C 
ATOM      2  O   UNL     1       6.985   5.187  20.010  0.00  0.00    +0.000 OA
ATOM      3  N   UNL     1       5.675   4.057  18.515  0.00  0.00    +0.000 N 
ATOM      4  H   UNL     1       5.418   4.002  17.535  0.00  0.00    +0.000 HD
ENDROOT
BRANCH   1   6
ATOM      5  C   UNL     1       7.454   6.828  17.412  0.00  0.00    +0.000 C 
ATOM      6  C   UNL     1       7.577   5.332  17.658  0.00  0.00    +0.000 C 
BRANCH   6   7
ATOM      7  N   UNL     1       7.317   4.506  16.450  0.00  0.00    +0.000 NA
ATOM      8  H   UNL     1       8.060   3.833  16.246  0.00  0.00    +0.000 HD
BRANCH   7   9
ATOM      9  S   UNL     1       6.766   5.154  15.003  0.00  0.00    +0.000 S 
ATOM     10  C   UNL     1       6.165   3.759  14.073  0.00  0.00    +0.000 C 
ATOM     11  O   UNL     1       5.672   6.051  15.283  0.00  0.00    +0.000 OA
ATOM     12  O   UNL     1       7.963   5.636  14.345  0.00  0.00    +0.000 OA
ENDBRANCH   7   9
ENDBRANCH   6   7
ENDBRANCH   1   6
BRANCH   3  13
ATOM     13  C   UNL     1       4.683   3.723  19.505  0.00  0.00    +0.000 C 
BRANCH  13  14
ATOM     14  C   UNL     1       3.713   4.830  19.595  0.00  0.00    +0.000 A 
ATOM     15  C   UNL     1       3.550   5.991  18.872  0.00  0.00    +0.000 A 
ATOM     16  C   UNL     1       2.497   6.680  19.516  0.00  0.00    +0.000 A 
ATOM     17  N   UNL     1       2.017   5.990  20.557  0.00  0.00    +0.000 NA
ATOM     18  N   UNL     1       2.759   4.872  20.575  0.00  0.00    +0.000 N 
ATOM     19  H   UNL     1       2.572   4.181  21.296  0.00  0.00    +0.000 HD
BRANCH  16  20
ATOM     20  C   UNL     1       1.970   8.014  19.113  0.00  0.00    +0.000 A 
ATOM     21  C   UNL     1       1.302   8.907  19.930  0.00  0.00    +0.000 A 
ATOM     22  C   UNL     1       0.967  10.025  19.128  0.00  0.00    +0.000 A 
ATOM     23  C   UNL     1       1.456   9.752  17.873  0.00  0.00    +0.000 A 
ATOM     24  O   UNL     1       2.073   8.543  17.854  0.00  0.00    +0.000 OA
ENDBRANCH  16  20
ENDBRANCH  13  14
ENDBRANCH   3  13
TORSDOF 6
ENDMDL
