MODEL 1
REMARK VINA RESULT:      -9.0      0.000      0.000
REMARK  Name = 
REMARK  4 active torsions:
REMARK  status: ('A' for Active; 'I' for Inactive)
REMARK    1  A    between atoms: C_8  and  S_9
REMARK    2  A    between atoms: S_9  and  N_12
REMARK    3  A    between atoms: C_16  and  C_17
REMARK    4  A    between atoms: N_19  and  C_20
REMARK                            x       y       z     vdW  Elec       q    Type
REMARK                         _______ _______ _______ _____ _____    ______ ____
ROOT
ATOM      1  N   UNL     1       3.284   3.934  18.640  0.00  0.00    +0.000 NA
ATOM      2  C   UNL     1       2.178   3.634  19.556  0.00  0.00    +0.000 C 
ATOM      3  C   UNL     1       1.049   3.418  18.565  0.00  0.00    +0.000 C 
ATOM      4  C   UNL     1       1.288   4.479  17.493  0.00  0.00    +0.000 C 
ATOM      5  C   UNL     1       2.777   4.876  17.616  0.00  0.00    +0.000 C 
ENDROOT
BRANCH   5   6
ATOM      6  C   UNL     1       2.911   6.358  17.989  0.00  0.00    +0.000 C 
ATOM      7  O   UNL     1       3.689   7.120  17.419  0.00  0.00    +0.000 OA
ATOM      8  N   UNL     1       2.106   6.761  19.041  0.00  0.00    +0.000 N 
ATOM      9  H   UNL     1       1.261   6.214  19.204  0.00  0.00    +0.000 HD
BRANCH   8  10
ATOM     10  C   UNL     1       2.128   8.138  19.543  0.00  0.00    +0.000 C 
ATOM     11  C   UNL     1       1.898   9.132  18.399  0.00  0.00    +0.000 C 
ATOM     12  C   UNL     1       0.437   9.265  17.979  0.00  0.00    +0.000 C 
ATOM     13  C   UNL     1      -0.302  10.357  18.748  0.00  0.00    +0.000 C 
ATOM     14  C   UNL     1      -0.546  10.073  20.229  0.00  0.00    +0.000 C 
ATOM     15  C   UNL     1       0.685   9.684  21.045  0.00  0.00    +0.000 C 
ATOM     16  C   UNL     1       1.172   8.265  20.739  0.00  0.00    +0.000 C 
ENDBRANCH   8  10
ENDBRANCH   5   6
BRANCH   1  17
ATOM     17  S   UNL     1       4.852   4.023  19.190  0.00  0.00    +0.000 S 
ATOM     18  O   UNL     1       5.260   2.709  19.630  0.00  0.00    +0.000 OA
ATOM     19  O   UNL     1       4.957   5.187  20.047  0.00  0.00    +0.000 OA
BRANCH  17  27
ATOM     20  O   UNL     1       6.307   2.978  11.952  0.00  0.00    +0.000 OA
ATOM     21  C   UNL     1       6.482   3.647  12.968  0.00  0.00    +0.000 C 
ATOM     22  C   UNL     1       7.289   4.944  12.986  0.00  0.00    +0.000 C 
ATOM     23  O   UNL     1       7.780   5.451  14.218  0.00  0.00    +0.000 OA
ATOM     24  C   UNL     1       7.056   5.080  15.318  0.00  0.00    +0.000 A 
ATOM     25  C   UNL     1       7.332   5.775  16.496  0.00  0.00    +0.000 A 
ATOM     26  C   UNL     1       6.662   5.441  17.677  0.00  0.00    +0.000 A 
ATOM     27  C   UNL     1       5.723   4.402  17.674  0.00  0.00    +0.000 A 
ATOM     28  C   UNL     1       5.450   3.692  16.500  0.00  0.00    +0.000 A 
ATOM     29  C   UNL     1       6.125   4.037  15.324  0.00  0.00    +0.000 A 
ATOM     30  N   UNL     1       5.889   3.312  14.155  0.00  0.00    +0.000 N 
ATOM     31  H   UNL     1       5.292   2.497  14.152  0.00  0.00    +0.000 HD
ENDBRANCH  17  27
ENDBRANCH   1  17
TORSDOF 4
ENDMDL
MODEL 2
REMARK VINA RESULT:      -8.2      4.364      7.585
REMARK  Name = 
REMARK  4 active torsions:
REMARK  status: ('A' for Active; 'I' for Inactive)
REMARK    1  A    between atoms: C_8  and  S_9
REMARK    2  A    between atoms: S_9  and  N_12
REMARK    3  A    between atoms: C_16  and  C_17
REMARK    4  A    between atoms: N_19  and  C_20
REMARK                            x       y       z     vdW  Elec       q    Type
REMARK                         _______ _______ _______ _____ _____    ______ ____
ROOT
ATOM      1  N   UNL     1      -0.432  10.911  18.559  0.00  0.00    +0.000 NA
ATOM      2  C   UNL     1      -1.447   9.937  18.972  0.00  0.00    +0.000 C 
ATOM      3  C   UNL     1      -2.442  10.074  17.835  0.00  0.00    +0.000 C 
ATOM      4  C   UNL     1      -2.460  11.572  17.536  0.00  0.00    +0.000 C 
ATOM      5  C   UNL     1      -1.137  12.132  18.108  0.00  0.00    +0.000 C 
ENDROOT
BRANCH   5   6
ATOM      6  C   UNL     1      -1.419  13.154  19.217  0.00  0.00    +0.000 C 
ATOM      7  O   UNL     1      -0.645  14.069  19.491  0.00  0.00    +0.000 OA
ATOM      8  N   UNL     1      -2.601  12.944  19.906  0.00  0.00    +0.000 N 
ATOM      9  H   UNL     1      -3.333  12.436  19.409  0.00  0.00    +0.000 HD
BRANCH   8  10
ATOM     10  C   UNL     1      -3.012  13.812  21.012  0.00  0.00    +0.000 C 
ATOM     11  C   UNL     1      -4.528  14.035  20.989  0.00  0.00    +0.000 C 
ATOM     12  C   UNL     1      -5.334  12.867  21.552  0.00  0.00    +0.000 C 
ATOM     13  C   UNL     1      -5.586  12.993  23.053  0.00  0.00    +0.000 C 
ATOM     14  C   UNL     1      -4.357  12.835  23.945  0.00  0.00    +0.000 C 
ATOM     15  C   UNL     1      -3.164  13.724  23.600  0.00  0.00    +0.000 C 
ATOM     16  C   UNL     1      -2.437  13.271  22.330  0.00  0.00    +0.000 C 
ENDBRANCH   8  10
ENDBRANCH   5   6
BRANCH   1  17
ATOM     17  S   UNL     1       1.035  11.004  19.340  0.00  0.00    +0.000 S 
ATOM     18  O   UNL     1       0.793  11.197  20.751  0.00  0.00    +0.000 OA
ATOM     19  O   UNL     1       1.888  11.895  18.579  0.00  0.00    +0.000 OA
BRANCH  17  27
ATOM     20  O   UNL     1       2.331   4.026  21.623  0.00  0.00    +0.000 OA
ATOM     21  C   UNL     1       2.344   4.845  20.709  0.00  0.00    +0.000 C 
ATOM     22  C   UNL     1       2.700   4.485  19.267  0.00  0.00    +0.000 C 
ATOM     23  O   UNL     1       3.075   5.508  18.357  0.00  0.00    +0.000 OA
ATOM     24  C   UNL     1       2.568   6.745  18.648  0.00  0.00    +0.000 A 
ATOM     25  C   UNL     1       2.677   7.705  17.640  0.00  0.00    +0.000 A 
ATOM     26  C   UNL     1       2.216   9.006  17.862  0.00  0.00    +0.000 A 
ATOM     27  C   UNL     1       1.654   9.343  19.100  0.00  0.00    +0.000 A 
ATOM     28  C   UNL     1       1.553   8.391  20.120  0.00  0.00    +0.000 A 
ATOM     29  C   UNL     1       2.016   7.092  19.885  0.00  0.00    +0.000 A 
ATOM     30  N   UNL     1       1.955   6.142  20.906  0.00  0.00    +0.000 N 
ATOM     31  H   UNL     1       1.647   6.389  21.837  0.00  0.00    +0.000 HD
ENDBRANCH  17  27
ENDBRANCH   1  17
TORSDOF 4
ENDMDL
MODEL 3
REMARK VINA RESULT:      -8.2      4.345      7.161
REMARK  Name = 
REMARK  4 active torsions:
REMARK  status: ('A' for Active; 'I' for Inactive)
REMARK    1  A    between atoms: C_8  and  S_9
REMARK    2  A    between atoms: S_9  and  N_12
REMARK    3  A    between atoms: C_16  and  C_17
REMARK    4  A    between atoms: N_19  and  C_20
REMARK                            x       y       z     vdW  Elec       q    Type
REMARK                         _______ _______ _______ _____ _____    ______ ____
ROOT
ATOM      1  N   UNL     1      -0.113  10.681  19.826  0.00  0.00    +0.000 NA
ATOM      2  C   UNL     1      -1.466  10.502  19.290  0.00  0.00    +0.000 C 
ATOM      3  C   UNL     1      -1.453  11.515  18.160  0.00  0.00    +0.000 C 
ATOM      4  C   UNL     1      -0.680  12.701  18.734  0.00  0.00    +0.000 C 
ATOM      5  C   UNL     1       0.150  12.135  19.909  0.00  0.00    +0.000 C 
ENDROOT
BRANCH   5   6
ATOM      6  C   UNL     1      -0.274  12.786  21.232  0.00  0.00    +0.000 C 
ATOM      7  O   UNL     1       0.517  13.370  21.970  0.00  0.00    +0.000 OA
ATOM      8  N   UNL     1      -1.615  12.636  21.543  0.00  0.00    +0.000 N 
ATOM      9  H   UNL     1      -2.250  12.488  20.759  0.00  0.00    +0.000 HD
BRANCH   8  10
ATOM     10  C   UNL     1      -2.182  13.174  22.782  0.00  0.00    +0.000 C 
ATOM     11  C   UNL     1      -2.904  14.499  22.513  0.00  0.00    +0.000 C 
ATOM     12  C   UNL     1      -4.293  14.334  21.901  0.00  0.00    +0.000 C 
ATOM     13  C   UNL     1      -5.394  14.231  22.953  0.00  0.00    +0.000 C 
ATOM     14  C   UNL     1      -5.392  12.953  23.789  0.00  0.00    +0.000 C 
ATOM     15  C   UNL     1      -4.070  12.602  24.467  0.00  0.00    +0.000 C 
ATOM     16  C   UNL     1      -3.017  12.089  23.480  0.00  0.00    +0.000 C 
ENDBRANCH   8  10
ENDBRANCH   5   6
BRANCH   1  17
ATOM     17  S   UNL     1       0.507   9.628  20.957  0.00  0.00    +0.000 S 
ATOM     18  O   UNL     1      -0.579   8.845  21.499  0.00  0.00    +0.000 OA
ATOM     19  O   UNL     1       1.416  10.373  21.805  0.00  0.00    +0.000 OA
BRANCH  17  27
ATOM     20  O   UNL     1       4.434   3.420  19.677  0.00  0.00    +0.000 OA
ATOM     21  C   UNL     1       3.939   4.454  19.235  0.00  0.00    +0.000 C 
ATOM     22  C   UNL     1       3.964   4.826  17.753  0.00  0.00    +0.000 C 
ATOM     23  O   UNL     1       3.741   6.172  17.361  0.00  0.00    +0.000 OA
ATOM     24  C   UNL     1       2.989   6.906  18.237  0.00  0.00    +0.000 A 
ATOM     25  C   UNL     1       2.514   8.130  17.763  0.00  0.00    +0.000 A 
ATOM     26  C   UNL     1       1.766   8.960  18.602  0.00  0.00    +0.000 A 
ATOM     27  C   UNL     1       1.502   8.563  19.919  0.00  0.00    +0.000 A 
ATOM     28  C   UNL     1       1.986   7.344  20.407  0.00  0.00    +0.000 A 
ATOM     29  C   UNL     1       2.732   6.521  19.557  0.00  0.00    +0.000 A 
ATOM     30  N   UNL     1       3.251   5.319  20.041  0.00  0.00    +0.000 N 
ATOM     31  H   UNL     1       3.160   5.060  21.014  0.00  0.00    +0.000 HD
ENDBRANCH  17  27
ENDBRANCH   1  17
TORSDOF 4
ENDMDL
MODEL 4
REMARK VINA RESULT:      -8.1      4.509      7.229
REMARK  Name = 
REMARK  4 active torsions:
REMARK  status: ('A' for Active; 'I' for Inactive)
REMARK    1  A    between atoms: C_8  and  S_9
REMARK    2  A    between atoms: S_9  and  N_12
REMARK    3  A    between atoms: C_16  and  C_17
REMARK    4  A    between atoms: N_19  and  C_20
REMARK                            x       y       z     vdW  Elec       q    Type
REMARK                         _______ _______ _______ _____ _____    ______ ____
ROOT
ATOM      1  N   UNL     1       0.224  10.266  20.601  0.00  0.00    +0.000 NA
ATOM      2  C   UNL     1      -0.722  10.199  19.482  0.00  0.00    +0.000 C 
ATOM      3  C   UNL     1      -0.513  11.567  18.860  0.00  0.00    +0.000 C 
ATOM      4  C   UNL     1      -0.342  12.498  20.060  0.00  0.00    +0.000 C 
ATOM      5  C   UNL     1       0.070  11.591  21.242  0.00  0.00    +0.000 C 
ENDROOT
BRANCH   5   6
ATOM      6  C   UNL     1      -0.984  11.644  22.355  0.00  0.00    +0.000 C 
ATOM      7  O   UNL     1      -0.855  11.049  23.423  0.00  0.00    +0.000 OA
ATOM      8  N   UNL     1      -2.109  12.391  22.048  0.00  0.00    +0.000 N 
ATOM      9  H   UNL     1      -1.990  13.125  21.349  0.00  0.00    +0.000 HD
BRANCH   8  10
ATOM     10  C   UNL     1      -3.224  12.526  22.988  0.00  0.00    +0.000 C 
ATOM     11  C   UNL     1      -2.929  13.619  24.021  0.00  0.00    +0.000 C 
ATOM     12  C   UNL     1      -3.144  15.038  23.499  0.00  0.00    +0.000 C 
ATOM     13  C   UNL     1      -4.565  15.544  23.733  0.00  0.00    +0.000 C 
ATOM     14  C   UNL     1      -5.654  14.861  22.908  0.00  0.00    +0.000 C 
ATOM     15  C   UNL     1      -5.688  13.337  22.981  0.00  0.00    +0.000 C 
ATOM     16  C   UNL     1      -4.538  12.683  22.208  0.00  0.00    +0.000 C 
ENDBRANCH   8  10
ENDBRANCH   5   6
BRANCH   1  17
ATOM     17  S   UNL     1       0.586   8.912  21.500  0.00  0.00    +0.000 S 
ATOM     18  O   UNL     1      -0.640   8.193  21.762  0.00  0.00    +0.000 OA
ATOM     19  O   UNL     1       1.483   9.312  22.564  0.00  0.00    +0.000 OA
BRANCH  17  27
ATOM     20  O   UNL     1       4.140   2.745  19.279  0.00  0.00    +0.000 OA
ATOM     21  C   UNL     1       3.731   3.872  19.007  0.00  0.00    +0.000 C 
ATOM     22  C   UNL     1       3.836   4.486  17.612  0.00  0.00    +0.000 C 
ATOM     23  O   UNL     1       3.717   5.891  17.450  0.00  0.00    +0.000 OA
ATOM     24  C   UNL     1       2.983   6.518  18.420  0.00  0.00    +0.000 A 
ATOM     25  C   UNL     1       2.608   7.835  18.150  0.00  0.00    +0.000 A 
ATOM     26  C   UNL     1       1.884   8.563  19.099  0.00  0.00    +0.000 A 
ATOM     27  C   UNL     1       1.546   7.969  20.322  0.00  0.00    +0.000 A 
ATOM     28  C   UNL     1       1.930   6.654  20.605  0.00  0.00    +0.000 A 
ATOM     29  C   UNL     1       2.652   5.935  19.647  0.00  0.00    +0.000 A 
ATOM     30  N   UNL     1       3.072   4.635  19.932  0.00  0.00    +0.000 N 
ATOM     31  H   UNL     1       2.927   4.222  20.843  0.00  0.00    +0.000 HD
ENDBRANCH  17  27
ENDBRANCH   1  17
TORSDOF 4
ENDMDL
MODEL 5
REMARK VINA RESULT:      -7.9      4.591      7.750
REMARK  Name = 
REMARK  4 active torsions:
REMARK  status: ('A' for Active; 'I' for Inactive)
REMARK    1  A    between atoms: C_8  and  S_9
REMARK    2  A    between atoms: S_9  and  N_12
REMARK    3  A    between atoms: C_16  and  C_17
REMARK    4  A    between atoms: N_19  and  C_20
REMARK                            x       y       z     vdW  Elec       q    Type
REMARK                         _______ _______ _______ _____ _____    ______ ____
ROOT
ATOM      1  N   UNL     1      -0.937  10.845  18.352  0.00  0.00    +0.000 NA
ATOM      2  C   UNL     1      -1.663   9.617  18.011  0.00  0.00    +0.000 C 
ATOM      3  C   UNL     1      -2.274  10.017  16.680  0.00  0.00    +0.000 C 
ATOM      4  C   UNL     1      -2.680  11.476  16.882  0.00  0.00    +0.000 C 
ATOM      5  C   UNL     1      -1.830  11.990  18.067  0.00  0.00    +0.000 C 
ENDROOT
BRANCH   5   6
ATOM      6  C   UNL     1      -2.732  12.404  19.237  0.00  0.00    +0.000 C 
ATOM      7  O   UNL     1      -3.847  11.920  19.422  0.00  0.00    +0.000 OA
ATOM      8  N   UNL     1      -2.201  13.390  20.051  0.00  0.00    +0.000 N 
ATOM      9  H   UNL     1      -1.184  13.467  20.069  0.00  0.00    +0.000 HD
BRANCH   8  10
ATOM     10  C   UNL     1      -2.940  13.920  21.200  0.00  0.00    +0.000 C 
ATOM     11  C   UNL     1      -2.627  13.110  22.463  0.00  0.00    +0.000 C 
ATOM     12  C   UNL     1      -1.289  13.463  23.109  0.00  0.00    +0.000 C 
ATOM     13  C   UNL     1      -1.410  14.574  24.149  0.00  0.00    +0.000 C 
ATOM     14  C   UNL     1      -1.738  15.960  23.600  0.00  0.00    +0.000 C 
ATOM     15  C   UNL     1      -2.960  16.045  22.688  0.00  0.00    +0.000 C 
ATOM     16  C   UNL     1      -2.709  15.435  21.306  0.00  0.00    +0.000 C 
ENDBRANCH   8  10
ENDBRANCH   5   6
BRANCH   1  17
ATOM     17  S   UNL     1       0.130  10.883  19.629  0.00  0.00    +0.000 S 
ATOM     18  O   UNL     1      -0.610  10.681  20.853  0.00  0.00    +0.000 OA
ATOM     19  O   UNL     1       1.007  12.022  19.441  0.00  0.00    +0.000 OA
BRANCH  17  27
ATOM     20  O   UNL     1       2.581   4.062  21.376  0.00  0.00    +0.000 OA
ATOM     21  C   UNL     1       2.519   4.971  20.553  0.00  0.00    +0.000 C 
ATOM     22  C   UNL     1       3.087   4.859  19.139  0.00  0.00    +0.000 C 
ATOM     23  O   UNL     1       3.337   6.035  18.384  0.00  0.00    +0.000 OA
ATOM     24  C   UNL     1       2.562   7.110  18.727  0.00  0.00    +0.000 A 
ATOM     25  C   UNL     1       2.575   8.184  17.837  0.00  0.00    +0.000 A 
ATOM     26  C   UNL     1       1.838   9.337  18.124  0.00  0.00    +0.000 A 
ATOM     27  C   UNL     1       1.096   9.412  19.309  0.00  0.00    +0.000 A 
ATOM     28  C   UNL     1       1.087   8.344  20.213  0.00  0.00    +0.000 A 
ATOM     29  C   UNL     1       1.827   7.195  19.914  0.00  0.00    +0.000 A 
ATOM     30  N   UNL     1       1.856   6.137  20.824  0.00  0.00    +0.000 N 
ATOM     31  H   UNL     1       1.411   6.208  21.729  0.00  0.00    +0.000 HD
ENDBRANCH  17  27
ENDBRANCH   1  17
TORSDOF 4
ENDMDL
MODEL 6
REMARK VINA RESULT:      -7.8      4.683      9.339
REMARK  Name = 
REMARK  4 active torsions:
REMARK  status: ('A' for Active; 'I' for Inactive)
REMARK    1  A    between atoms: C_8  and  S_9
REMARK    2  A    between atoms: S_9  and  N_12
REMARK    3  A    between atoms: C_16  and  C_17
REMARK    4  A    between atoms: N_19  and  C_20
REMARK                            x       y       z     vdW  Elec       q    Type
REMARK                         _______ _______ _______ _____ _____    ______ ____
ROOT
ATOM      1  N   UNL     1       0.656  10.202  20.539  0.00  0.00    +0.000 NA
ATOM      2  C   UNL     1      -0.639  10.354  21.211  0.00  0.00    +0.000 C 
ATOM      3  C   UNL     1      -0.197  10.379  22.663  0.00  0.00    +0.000 C 
ATOM      4  C   UNL     1       0.924   9.342  22.727  0.00  0.00    +0.000 C 
ATOM      5  C   UNL     1       1.426   9.174  21.275  0.00  0.00    +0.000 C 
ENDROOT
BRANCH   5   6
ATOM      6  C   UNL     1       1.200   7.737  20.789  0.00  0.00    +0.000 C 
ATOM      7  O   UNL     1       0.199   7.085  21.080  0.00  0.00    +0.000 OA
ATOM      8  N   UNL     1       2.230   7.221  20.020  0.00  0.00    +0.000 N 
ATOM      9  H   UNL     1       2.812   7.897  19.527  0.00  0.00    +0.000 HD
BRANCH   8  10
ATOM     10  C   UNL     1       2.188   5.853  19.495  0.00  0.00    +0.000 C 
ATOM     11  C   UNL     1       2.586   5.831  18.015  0.00  0.00    +0.000 C 
ATOM     12  C   UNL     1       4.092   5.919  17.779  0.00  0.00    +0.000 C 
ATOM     13  C   UNL     1       4.763   4.548  17.726  0.00  0.00    +0.000 C 
ATOM     14  C   UNL     1       4.813   3.786  19.049  0.00  0.00    +0.000 C 
ATOM     15  C   UNL     1       3.480   3.621  19.774  0.00  0.00    +0.000 C 
ATOM     16  C   UNL     1       2.992   4.924  20.417  0.00  0.00    +0.000 C 
ENDBRANCH   8  10
ENDBRANCH   5   6
BRANCH   1  17
ATOM     17  S   UNL     1       0.789  10.358  18.887  0.00  0.00    +0.000 S 
ATOM     18  O   UNL     1      -0.494  10.061  18.293  0.00  0.00    +0.000 OA
ATOM     19  O   UNL     1       2.002   9.683  18.473  0.00  0.00    +0.000 OA
BRANCH  17  27
ATOM     20  O   UNL     1      -1.466  17.464  18.796  0.00  0.00    +0.000 OA
ATOM     21  C   UNL     1      -0.536  16.663  18.786  0.00  0.00    +0.000 C 
ATOM     22  C   UNL     1       0.932  17.085  18.833  0.00  0.00    +0.000 C 
ATOM     23  O   UNL     1       1.941  16.172  18.430  0.00  0.00    +0.000 OA
ATOM     24  C   UNL     1       1.604  14.852  18.563  0.00  0.00    +0.000 A 
ATOM     25  C   UNL     1       2.652  13.937  18.449  0.00  0.00    +0.000 A 
ATOM     26  C   UNL     1       2.394  12.566  18.539  0.00  0.00    +0.000 A 
ATOM     27  C   UNL     1       1.082  12.117  18.735  0.00  0.00    +0.000 A 
ATOM     28  C   UNL     1       0.025  13.026  18.838  0.00  0.00    +0.000 A 
ATOM     29  C   UNL     1       0.296  14.396  18.748  0.00  0.00    +0.000 A 
ATOM     30  N   UNL     1      -0.755  15.313  18.813  0.00  0.00    +0.000 N 
ATOM     31  H   UNL     1      -1.718  15.008  18.853  0.00  0.00    +0.000 HD
ENDBRANCH  17  27
ENDBRANCH   1  17
TORSDOF 4
ENDMDL
MODEL 7
REMARK VINA RESULT:      -7.8      4.511      9.501
REMARK  Name = 
REMARK  4 active torsions:
REMARK  status: ('A' for Active; 'I' for Inactive)
REMARK    1  A    between atoms: C_8  and  S_9
REMARK    2  A    between atoms: S_9  and  N_12
REMARK    3  A    between atoms: C_16  and  C_17
REMARK    4  A    between atoms: N_19  and  C_20
REMARK                            x       y       z     vdW  Elec       q    Type
REMARK                         _______ _______ _______ _____ _____    ______ ____
ROOT
ATOM      1  N   UNL     1       0.502  10.591  21.127  0.00  0.00    +0.000 NA
ATOM      2  C   UNL     1      -0.857  10.648  21.674  0.00  0.00    +0.000 C 
ATOM      3  C   UNL     1      -0.576  10.395  23.143  0.00  0.00    +0.000 C 
ATOM      4  C   UNL     1       0.527   9.338  23.134  0.00  0.00    +0.000 C 
ATOM      5  C   UNL     1       1.184   9.427  21.737  0.00  0.00    +0.000 C 
ENDROOT
BRANCH   5   6
ATOM      6  C   UNL     1       1.006   8.109  20.973  0.00  0.00    +0.000 C 
ATOM      7  O   UNL     1      -0.057   7.492  20.947  0.00  0.00    +0.000 OA
ATOM      8  N   UNL     1       2.150   7.654  20.338  0.00  0.00    +0.000 N 
ATOM      9  H   UNL     1       2.845   8.359  20.092  0.00  0.00    +0.000 HD
BRANCH   8  10
ATOM     10  C   UNL     1       2.163   6.398  19.583  0.00  0.00    +0.000 C 
ATOM     11  C   UNL     1       2.321   6.672  18.083  0.00  0.00    +0.000 C 
ATOM     12  C   UNL     1       3.754   6.988  17.660  0.00  0.00    +0.000 C 
ATOM     13  C   UNL     1       4.542   5.742  17.266  0.00  0.00    +0.000 C 
ATOM     14  C   UNL     1       4.879   4.784  18.407  0.00  0.00    +0.000 C 
ATOM     15  C   UNL     1       3.702   4.333  19.268  0.00  0.00    +0.000 C 
ATOM     16  C   UNL     1       3.193   5.439  20.199  0.00  0.00    +0.000 C 
ENDBRANCH   8  10
ENDBRANCH   5   6
BRANCH   1  17
ATOM     17  S   UNL     1       0.814  11.044  19.556  0.00  0.00    +0.000 S 
ATOM     18  O   UNL     1       1.633  10.027  18.938  0.00  0.00    +0.000 OA
ATOM     19  O   UNL     1       1.202  12.441  19.566  0.00  0.00    +0.000 OA
BRANCH  17  27
ATOM     20  O   UNL     1      -6.265  13.297  18.924  0.00  0.00    +0.000 OA
ATOM     21  C   UNL     1      -5.352  12.590  18.506  0.00  0.00    +0.000 C 
ATOM     22  C   UNL     1      -5.470  11.727  17.251  0.00  0.00    +0.000 C 
ATOM     23  O   UNL     1      -4.558  10.659  17.041  0.00  0.00    +0.000 OA
ATOM     24  C   UNL     1      -3.343  10.818  17.651  0.00  0.00    +0.000 A 
ATOM     25  C   UNL     1      -2.335   9.942  17.244  0.00  0.00    +0.000 A 
ATOM     26  C   UNL     1      -1.070  10.011  17.838  0.00  0.00    +0.000 A 
ATOM     27  C   UNL     1      -0.824  10.953  18.844  0.00  0.00    +0.000 A 
ATOM     28  C   UNL     1      -1.833  11.825  19.266  0.00  0.00    +0.000 A 
ATOM     29  C   UNL     1      -3.093  11.749  18.664  0.00  0.00    +0.000 A 
ATOM     30  N   UNL     1      -4.119  12.588  19.101  0.00  0.00    +0.000 N 
ATOM     31  H   UNL     1      -3.994  13.205  19.892  0.00  0.00    +0.000 HD
ENDBRANCH  17  27
ENDBRANCH   1  17
TORSDOF 4
ENDMDL
MODEL 8
REMARK VINA RESULT:      -7.8      4.418      7.212
REMARK  Name = 
REMARK  4 active torsions:
REMARK  status: ('A' for Active; 'I' for Inactive)
REMARK    1  A    between atoms: C_8  and  S_9
REMARK    2  A    between atoms: S_9  and  N_12
REMARK    3  A    between atoms: C_16  and  C_17
REMARK    4  A    between atoms: N_19  and  C_20
REMARK                            x       y       z     vdW  Elec       q    Type
REMARK                         _______ _______ _______ _____ _____    ______ ____
ROOT
ATOM      1  N   UNL     1      -0.378  10.644  19.585  0.00  0.00    +0.000 NA
ATOM      2  C   UNL     1      -1.423  10.073  18.728  0.00  0.00    +0.000 C 
ATOM      3  C   UNL     1      -1.569  11.176  17.697  0.00  0.00    +0.000 C 
ATOM      4  C   UNL     1      -1.441  12.464  18.510  0.00  0.00    +0.000 C 
ATOM      5  C   UNL     1      -0.713  12.067  19.814  0.00  0.00    +0.000 C 
ENDROOT
BRANCH   5   6
ATOM      6  C   UNL     1      -1.610  12.324  21.032  0.00  0.00    +0.000 C 
ATOM      7  O   UNL     1      -2.837  12.358  20.960  0.00  0.00    +0.000 OA
ATOM      8  N   UNL     1      -0.925  12.547  22.214  0.00  0.00    +0.000 N 
ATOM      9  H   UNL     1       0.012  12.149  22.279  0.00  0.00    +0.000 HD
BRANCH   8  10
ATOM     10  C   UNL     1      -1.627  12.833  23.468  0.00  0.00    +0.000 C 
ATOM     11  C   UNL     1      -1.654  14.342  23.738  0.00  0.00    +0.000 C 
ATOM     12  C   UNL     1      -2.707  15.096  22.930  0.00  0.00    +0.000 C 
ATOM     13  C   UNL     1      -4.050  15.191  23.650  0.00  0.00    +0.000 C 
ATOM     14  C   UNL     1      -4.815  13.878  23.797  0.00  0.00    +0.000 C 
ATOM     15  C   UNL     1      -4.038  12.719  24.418  0.00  0.00    +0.000 C 
ATOM     16  C   UNL     1      -2.993  12.131  23.465  0.00  0.00    +0.000 C 
ENDBRANCH   8  10
ENDBRANCH   5   6
BRANCH   1  17
ATOM     17  S   UNL     1       0.355   9.730  20.768  0.00  0.00    +0.000 S 
ATOM     18  O   UNL     1      -0.646   8.892  21.387  0.00  0.00    +0.000 OA
ATOM     19  O   UNL     1       1.207  10.609  21.543  0.00  0.00    +0.000 OA
BRANCH  17  27
ATOM     20  O   UNL     1       4.451   3.599  19.665  0.00  0.00    +0.000 OA
ATOM     21  C   UNL     1       3.965   4.628  19.204  0.00  0.00    +0.000 C 
ATOM     22  C   UNL     1       4.066   5.012  17.728  0.00  0.00    +0.000 C 
ATOM     23  O   UNL     1       3.841   6.357  17.333  0.00  0.00    +0.000 OA
ATOM     24  C   UNL     1       3.030   7.071  18.172  0.00  0.00    +0.000 A 
ATOM     25  C   UNL     1       2.561   8.290  17.681  0.00  0.00    +0.000 A 
ATOM     26  C   UNL     1       1.753   9.102  18.483  0.00  0.00    +0.000 A 
ATOM     27  C   UNL     1       1.424   8.690  19.780  0.00  0.00    +0.000 A 
ATOM     28  C   UNL     1       1.900   7.476  20.285  0.00  0.00    +0.000 A 
ATOM     29  C   UNL     1       2.707   6.672  19.473  0.00  0.00    +0.000 A 
ATOM     30  N   UNL     1       3.218   5.475  19.977  0.00  0.00    +0.000 N 
ATOM     31  H   UNL     1       3.077   5.206  20.941  0.00  0.00    +0.000 HD
ENDBRANCH  17  27
ENDBRANCH   1  17
TORSDOF 4
ENDMDL
MODEL 9
REMARK VINA RESULT:      -7.8      4.883      7.789
REMARK  Name = 
REMARK  4 active torsions:
REMARK  status: ('A' for Active; 'I' for Inactive)
REMARK    1  A    between atoms: C_8  and  S_9
REMARK    2  A    between atoms: S_9  and  N_12
REMARK    3  A    between atoms: C_16  and  C_17
REMARK    4  A    between atoms: N_19  and  C_20
REMARK                            x       y       z     vdW  Elec       q    Type
REMARK                         _______ _______ _______ _____ _____    ______ ____
ROOT
ATOM      1  N   UNL     1      -0.789  10.842  18.872  0.00  0.00    +0.000 NA
ATOM      2  C   UNL     1      -1.722   9.776  18.492  0.00  0.00    +0.000 C 
ATOM      3  C   UNL     1      -2.286  10.348  17.204  0.00  0.00    +0.000 C 
ATOM      4  C   UNL     1      -2.432  11.842  17.495  0.00  0.00    +0.000 C 
ATOM      5  C   UNL     1      -1.480  12.136  18.676  0.00  0.00    +0.000 C 
ENDROOT
BRANCH   5   6
ATOM      6  C   UNL     1      -2.269  12.630  19.895  0.00  0.00    +0.000 C 
ATOM      7  O   UNL     1      -1.727  13.023  20.926  0.00  0.00    +0.000 OA
ATOM      8  N   UNL     1      -3.645  12.566  19.753  0.00  0.00    +0.000 N 
ATOM      9  H   UNL     1      -4.006  12.594  18.799  0.00  0.00    +0.000 HD
BRANCH   8  10
ATOM     10  C   UNL     1      -4.550  12.975  20.831  0.00  0.00    +0.000 C 
ATOM     11  C   UNL     1      -4.771  14.491  20.803  0.00  0.00    +0.000 C 
ATOM     12  C   UNL     1      -5.764  14.953  19.740  0.00  0.00    +0.000 C 
ATOM     13  C   UNL     1      -7.201  15.001  20.254  0.00  0.00    +0.000 C 
ATOM     14  C   UNL     1      -7.842  13.647  20.550  0.00  0.00    +0.000 C 
ATOM     15  C   UNL     1      -7.051  12.722  21.472  0.00  0.00    +0.000 C 
ATOM     16  C   UNL     1      -5.822  12.115  20.788  0.00  0.00    +0.000 C 
ENDBRANCH   8  10
ENDBRANCH   5   6
BRANCH   1  17
ATOM     17  S   UNL     1       0.299  10.626  20.114  0.00  0.00    +0.000 S 
ATOM     18  O   UNL     1      -0.417  10.150  21.274  0.00  0.00    +0.000 OA
ATOM     19  O   UNL     1       1.153  11.796  20.165  0.00  0.00    +0.000 OA
BRANCH  17  27
ATOM     20  O   UNL     1       3.332   3.831  20.584  0.00  0.00    +0.000 OA
ATOM     21  C   UNL     1       3.105   4.830  19.906  0.00  0.00    +0.000 C 
ATOM     22  C   UNL     1       3.467   4.935  18.425  0.00  0.00    +0.000 C 
ATOM     23  O   UNL     1       3.543   6.211  17.808  0.00  0.00    +0.000 OA
ATOM     24  C   UNL     1       2.771   7.177  18.393  0.00  0.00    +0.000 A 
ATOM     25  C   UNL     1       2.599   8.352  17.661  0.00  0.00    +0.000 A 
ATOM     26  C   UNL     1       1.851   9.405  18.197  0.00  0.00    +0.000 A 
ATOM     27  C   UNL     1       1.284   9.278  19.471  0.00  0.00    +0.000 A 
ATOM     28  C   UNL     1       1.463   8.108  20.217  0.00  0.00    +0.000 A 
ATOM     29  C   UNL     1       2.211   7.061  19.670  0.00  0.00    +0.000 A 
ATOM     30  N   UNL     1       2.427   5.902  20.418  0.00  0.00    +0.000 N 
ATOM     31  H   UNL     1       2.114   5.828  21.376  0.00  0.00    +0.000 HD
ENDBRANCH  17  27
ENDBRANCH   1  17
TORSDOF 4
ENDMDL
