MODEL 1
REMARK VINA RESULT:      -7.4      0.000      0.000
REMARK  Name = 
REMARK  5 active torsions:
REMARK  status: ('A' for Active; 'I' for Inactive)
REMARK    1  A    between atoms: C_1  and  C_2
REMARK    2  A    between atoms: C_5  and  C_6
REMARK    3  A    between atoms: C_8  and  N_9
REMARK    4  A    between atoms: C_10  and  C_12
REMARK    5  A    between atoms: N_15  and  C_16
REMARK                            x       y       z     vdW  Elec       q    Type
REMARK                         _______ _______ _______ _____ _____    ______ ____
ROOT
ATOM      1  N   UNL     1       2.787   6.543  20.164  0.00  0.00    +0.000 N 
ATOM      2  C   UNL     1       2.752   5.572  19.094  0.00  0.00    +0.000 C 
ATOM      3  O   UNL     1       1.924   5.660  18.202  0.00  0.00    +0.000 OA
ATOM      4  H   UNL     1       3.441   6.397  20.923  0.00  0.00    +0.000 HD
ENDROOT
BRANCH   1   7
ATOM      5  C   UNL     1       0.621   9.357  20.692  0.00  0.00    +0.000 A 
ATOM      6  C   UNL     1       1.292   8.238  21.237  0.00  0.00    +0.000 A 
ATOM      7  C   UNL     1       1.994   7.686  20.194  0.00  0.00    +0.000 A 
ATOM      8  N   UNL     1       1.746   8.510  19.124  0.00  0.00    +0.000 N 
ATOM      9  N   UNL     1       0.889   9.509  19.390  0.00  0.00    +0.000 NA
ATOM     10  H   UNL     1       2.110   8.446  18.180  0.00  0.00    +0.000 HD
BRANCH   5  15
ATOM     11  C   UNL     1      -2.626  12.954  21.507  0.00  0.00    +0.000 C 
ATOM     12  C   UNL     1      -1.723  11.858  21.910  0.00  0.00    +0.000 A 
ATOM     13  C   UNL     1      -1.443  11.249  23.112  0.00  0.00    +0.000 A 
ATOM     14  C   UNL     1      -0.518  10.214  22.827  0.00  0.00    +0.000 A 
ATOM     15  C   UNL     1      -0.276  10.260  21.468  0.00  0.00    +0.000 A 
ATOM     16  O   UNL     1      -1.001  11.278  20.912  0.00  0.00    +0.000 OA
ENDBRANCH   5  15
ENDBRANCH   1   7
BRANCH   2  17
ATOM     17  C   UNL     1       3.778   4.454  19.215  0.00  0.00    +0.000 C 
ATOM     18  C   UNL     1       5.204   5.005  19.213  0.00  0.00    +0.000 C 
ATOM     19  C   UNL     1       5.579   5.570  17.843  0.00  0.00    +0.000 C 
ATOM     20  N   UNL     1       5.450   4.560  16.791  0.00  0.00    +0.000 NA
ATOM     21  C   UNL     1       4.112   3.956  16.735  0.00  0.00    +0.000 C 
ATOM     22  C   UNL     1       3.635   3.422  18.092  0.00  0.00    +0.000 C 
BRANCH  20  23
ATOM     23  C   UNL     1       5.822   5.116  15.467  0.00  0.00    +0.000 C 
ATOM     24  C   UNL     1       7.129   4.747  14.817  0.00  0.00    +0.000 C 
ATOM     25  C   UNL     1       5.844   4.200  14.274  0.00  0.00    +0.000 C 
ENDBRANCH  20  23
ENDBRANCH   2  17
TORSDOF 4
ENDMDL
MODEL 2
REMARK VINA RESULT:      -7.4      6.136      7.988
REMARK  Name = 
REMARK  5 active torsions:
REMARK  status: ('A' for Active; 'I' for Inactive)
REMARK    1  A    between atoms: C_1  and  C_2
REMARK    2  A    between atoms: C_5  and  C_6
REMARK    3  A    between atoms: C_8  and  N_9
REMARK    4  A    between atoms: C_10  and  C_12
REMARK    5  A    between atoms: N_15  and  C_16
REMARK                            x       y       z     vdW  Elec       q    Type
REMARK                         _______ _______ _______ _____ _____    ______ ____
ROOT
ATOM      1  N   UNL     1       7.635   8.091  17.341  0.00  0.00    +0.000 N 
ATOM      2  C   UNL     1       7.531   6.755  17.883  0.00  0.00    +0.000 C 
ATOM      3  O   UNL     1       8.085   6.465  18.930  0.00  0.00    +0.000 OA
ATOM      4  H   UNL     1       7.222   8.274  16.435  0.00  0.00    +0.000 HD
ENDROOT
BRANCH   1   7
ATOM      5  C   UNL     1       9.088  11.090  18.678  0.00  0.00    +0.000 A 
ATOM      6  C   UNL     1       8.286  10.481  17.683  0.00  0.00    +0.000 A 
ATOM      7  C   UNL     1       8.245   9.148  18.008  0.00  0.00    +0.000 A 
ATOM      8  N   UNL     1       8.967   9.044  19.171  0.00  0.00    +0.000 N 
ATOM      9  N   UNL     1       9.518  10.199  19.579  0.00  0.00    +0.000 NA
ATOM     10  H   UNL     1       9.142   8.219  19.734  0.00  0.00    +0.000 HD
BRANCH   5  15
ATOM     11  C   UNL     1      11.204  15.325  17.363  0.00  0.00    +0.000 C 
ATOM     12  C   UNL     1      10.329  14.474  18.194  0.00  0.00    +0.000 A 
ATOM     13  C   UNL     1       9.475  14.726  19.243  0.00  0.00    +0.000 A 
ATOM     14  C   UNL     1       8.878  13.484  19.577  0.00  0.00    +0.000 A 
ATOM     15  C   UNL     1       9.416  12.542  18.721  0.00  0.00    +0.000 A 
ATOM     16  O   UNL     1      10.316  13.147  17.888  0.00  0.00    +0.000 OA
ENDBRANCH   5  15
ENDBRANCH   1   7
BRANCH   2  17
ATOM     17  C   UNL     1       6.732   5.781  17.028  0.00  0.00    +0.000 C 
ATOM     18  C   UNL     1       5.428   6.410  16.540  0.00  0.00    +0.000 C 
ATOM     19  C   UNL     1       4.448   6.624  17.693  0.00  0.00    +0.000 C 
ATOM     20  N   UNL     1       4.150   5.368  18.385  0.00  0.00    +0.000 NA
ATOM     21  C   UNL     1       5.353   4.679  18.870  0.00  0.00    +0.000 C 
ATOM     22  C   UNL     1       6.416   4.485  17.781  0.00  0.00    +0.000 C 
BRANCH  20  23
ATOM     23  C   UNL     1       3.194   5.585  19.499  0.00  0.00    +0.000 C 
ATOM     24  C   UNL     1       1.807   5.002  19.446  0.00  0.00    +0.000 C 
ATOM     25  C   UNL     1       2.827   4.421  20.378  0.00  0.00    +0.000 C 
ENDBRANCH  20  23
ENDBRANCH   2  17
TORSDOF 4
ENDMDL
MODEL 3
REMARK VINA RESULT:      -7.1      6.479      9.664
REMARK  Name = 
REMARK  5 active torsions:
REMARK  status: ('A' for Active; 'I' for Inactive)
REMARK    1  A    between atoms: C_1  and  C_2
REMARK    2  A    between atoms: C_5  and  C_6
REMARK    3  A    between atoms: C_8  and  N_9
REMARK    4  A    between atoms: C_10  and  C_12
REMARK    5  A    between atoms: N_15  and  C_16
REMARK                            x       y       z     vdW  Elec       q    Type
REMARK                         _______ _______ _______ _____ _____    ______ ____
ROOT
ATOM      1  N   UNL     1       8.422   9.262  17.571  0.00  0.00    +0.000 N 
ATOM      2  C   UNL     1       9.128  10.153  18.463  0.00  0.00    +0.000 C 
ATOM      3  O   UNL     1       9.238   9.886  19.649  0.00  0.00    +0.000 OA
ATOM      4  H   UNL     1       8.291   9.552  16.610  0.00  0.00    +0.000 HD
ENDROOT
BRANCH   1   7
ATOM      5  C   UNL     1       6.799   6.134  18.258  0.00  0.00    +0.000 A 
ATOM      6  C   UNL     1       6.857   7.314  17.478  0.00  0.00    +0.000 A 
ATOM      7  C   UNL     1       7.939   8.014  17.950  0.00  0.00    +0.000 A 
ATOM      8  N   UNL     1       8.479   7.216  18.928  0.00  0.00    +0.000 N 
ATOM      9  N   UNL     1       7.787   6.088  19.159  0.00  0.00    +0.000 NA
ATOM     10  H   UNL     1       9.306   7.380  19.491  0.00  0.00    +0.000 HD
BRANCH   5  15
ATOM     11  C   UNL     1       3.981   2.301  19.485  0.00  0.00    +0.000 C 
ATOM     12  C   UNL     1       4.475   3.354  18.577  0.00  0.00    +0.000 A 
ATOM     13  C   UNL     1       4.121   3.762  17.311  0.00  0.00    +0.000 A 
ATOM     14  C   UNL     1       4.946   4.874  17.006  0.00  0.00    +0.000 A 
ATOM     15  C   UNL     1       5.767   5.071  18.100  0.00  0.00    +0.000 A 
ATOM     16  O   UNL     1       5.488   4.130  19.052  0.00  0.00    +0.000 OA
ENDBRANCH   5  15
ENDBRANCH   1   7
BRANCH   2  17
ATOM     17  C   UNL     1       9.658  11.422  17.809  0.00  0.00    +0.000 C 
ATOM     18  C   UNL     1      11.054  11.771  18.323  0.00  0.00    +0.000 C 
ATOM     19  C   UNL     1      11.014  12.216  19.785  0.00  0.00    +0.000 C 
ATOM     20  N   UNL     1      10.129  13.367  19.972  0.00  0.00    +0.000 NA
ATOM     21  C   UNL     1       8.765  13.129  19.482  0.00  0.00    +0.000 C 
ATOM     22  C   UNL     1       8.724  12.616  18.037  0.00  0.00    +0.000 C 
BRANCH  20  23
ATOM     23  C   UNL     1      10.101  13.795  21.393  0.00  0.00    +0.000 C 
ATOM     24  C   UNL     1      10.395  15.222  21.772  0.00  0.00    +0.000 C 
ATOM     25  C   UNL     1       8.993  14.700  21.856  0.00  0.00    +0.000 C 
ENDBRANCH  20  23
ENDBRANCH   2  17
TORSDOF 4
ENDMDL
MODEL 4
REMARK VINA RESULT:      -7.1      6.304      7.860
REMARK  Name = 
REMARK  5 active torsions:
REMARK  status: ('A' for Active; 'I' for Inactive)
REMARK    1  A    between atoms: C_1  and  C_2
REMARK    2  A    between atoms: C_5  and  C_6
REMARK    3  A    between atoms: C_8  and  N_9
REMARK    4  A    between atoms: C_10  and  C_12
REMARK    5  A    between atoms: N_15  and  C_16
REMARK                            x       y       z     vdW  Elec       q    Type
REMARK                         _______ _______ _______ _____ _____    ______ ____
ROOT
ATOM      1  N   UNL     1       8.471   7.937  18.858  0.00  0.00    +0.000 N 
ATOM      2  C   UNL     1       7.748   7.118  17.911  0.00  0.00    +0.000 C 
ATOM      3  O   UNL     1       7.210   7.622  16.939  0.00  0.00    +0.000 OA
ATOM      4  H   UNL     1       8.844   7.493  19.688  0.00  0.00    +0.000 HD
ENDROOT
BRANCH   1   7
ATOM      5  C   UNL     1       9.309  11.428  18.826  0.00  0.00    +0.000 A 
ATOM      6  C   UNL     1       9.457  10.161  19.438  0.00  0.00    +0.000 A 
ATOM      7  C   UNL     1       8.711   9.295  18.677  0.00  0.00    +0.000 A 
ATOM      8  N   UNL     1       8.209  10.062  17.655  0.00  0.00    +0.000 N 
ATOM      9  N   UNL     1       8.527  11.365  17.742  0.00  0.00    +0.000 NA
ATOM     10  H   UNL     1       7.631   9.773  16.875  0.00  0.00    +0.000 HD
BRANCH   5  15
ATOM     11  C   UNL     1       9.589  16.044  20.484  0.00  0.00    +0.000 C 
ATOM     12  C   UNL     1      10.146  14.743  20.064  0.00  0.00    +0.000 A 
ATOM     13  C   UNL     1      11.416  14.215  20.043  0.00  0.00    +0.000 A 
ATOM     14  C   UNL     1      11.285  12.884  19.574  0.00  0.00    +0.000 A 
ATOM     15  C   UNL     1       9.942  12.682  19.322  0.00  0.00    +0.000 A 
ATOM     16  O   UNL     1       9.250  13.826  19.606  0.00  0.00    +0.000 OA
ENDBRANCH   5  15
ENDBRANCH   1   7
BRANCH   2  17
ATOM     17  C   UNL     1       7.694   5.637  18.260  0.00  0.00    +0.000 C 
ATOM     18  C   UNL     1       7.262   4.798  17.059  0.00  0.00    +0.000 C 
ATOM     19  C   UNL     1       5.796   5.047  16.704  0.00  0.00    +0.000 C 
ATOM     20  N   UNL     1       4.913   4.759  17.836  0.00  0.00    +0.000 NA
ATOM     21  C   UNL     1       5.270   5.508  19.048  0.00  0.00    +0.000 C 
ATOM     22  C   UNL     1       6.747   5.361  19.434  0.00  0.00    +0.000 C 
BRANCH  20  23
ATOM     23  C   UNL     1       3.492   4.998  17.480  0.00  0.00    +0.000 C 
ATOM     24  C   UNL     1       2.479   3.889  17.575  0.00  0.00    +0.000 C 
ATOM     25  C   UNL     1       2.461   5.006  18.575  0.00  0.00    +0.000 C 
ENDBRANCH  20  23
ENDBRANCH   2  17
TORSDOF 4
ENDMDL
MODEL 5
REMARK VINA RESULT:      -7.0      1.969      2.175
REMARK  Name = 
REMARK  5 active torsions:
REMARK  status: ('A' for Active; 'I' for Inactive)
REMARK    1  A    between atoms: C_1  and  C_2
REMARK    2  A    between atoms: C_5  and  C_6
REMARK    3  A    between atoms: C_8  and  N_9
REMARK    4  A    between atoms: C_10  and  C_12
REMARK    5  A    between atoms: N_15  and  C_16
REMARK                            x       y       z     vdW  Elec       q    Type
REMARK                         _______ _______ _______ _____ _____    ______ ____
ROOT
ATOM      1  N   UNL     1       3.153   5.975  20.056  0.00  0.00    +0.000 N 
ATOM      2  C   UNL     1       2.857   4.781  19.297  0.00  0.00    +0.000 C 
ATOM      3  O   UNL     1       1.751   4.614  18.809  0.00  0.00    +0.000 OA
ATOM      4  H   UNL     1       4.057   6.045  20.506  0.00  0.00    +0.000 HD
ENDROOT
BRANCH   1   7
ATOM      5  C   UNL     1       1.090   8.912  19.961  0.00  0.00    +0.000 A 
ATOM      6  C   UNL     1       2.025   8.077  19.305  0.00  0.00    +0.000 A 
ATOM      7  C   UNL     1       2.277   7.049  20.178  0.00  0.00    +0.000 A 
ATOM      8  N   UNL     1       1.467   7.294  21.260  0.00  0.00    +0.000 N 
ATOM      9  N   UNL     1       0.765   8.436  21.169  0.00  0.00    +0.000 NA
ATOM     10  H   UNL     1       1.352   6.741  22.101  0.00  0.00    +0.000 HD
BRANCH   5  15
ATOM     11  C   UNL     1       0.958  13.626  18.582  0.00  0.00    +0.000 C 
ATOM     12  C   UNL     1       0.399  12.269  18.745  0.00  0.00    +0.000 A 
ATOM     13  C   UNL     1      -0.786  11.677  18.372  0.00  0.00    +0.000 A 
ATOM     14  C   UNL     1      -0.697  10.321  18.775  0.00  0.00    +0.000 A 
ATOM     15  C   UNL     1       0.533  10.168  19.385  0.00  0.00    +0.000 A 
ATOM     16  O   UNL     1       1.194  11.365  19.380  0.00  0.00    +0.000 OA
ENDBRANCH   5  15
ENDBRANCH   1   7
BRANCH   2  17
ATOM     17  C   UNL     1       4.000   3.780  19.214  0.00  0.00    +0.000 C 
ATOM     18  C   UNL     1       5.355   4.485  19.164  0.00  0.00    +0.000 C 
ATOM     19  C   UNL     1       5.548   5.228  17.842  0.00  0.00    +0.000 C 
ATOM     20  N   UNL     1       5.432   4.324  16.696  0.00  0.00    +0.000 NA
ATOM     21  C   UNL     1       4.165   3.582  16.675  0.00  0.00    +0.000 C 
ATOM     22  C   UNL     1       3.867   2.860  17.995  0.00  0.00    +0.000 C 
BRANCH  20  23
ATOM     23  C   UNL     1       5.627   5.053  15.418  0.00  0.00    +0.000 C 
ATOM     24  C   UNL     1       6.875   4.853  14.601  0.00  0.00    +0.000 C 
ATOM     25  C   UNL     1       5.574   4.282  14.128  0.00  0.00    +0.000 C 
ENDBRANCH  20  23
ENDBRANCH   2  17
TORSDOF 4
ENDMDL
MODEL 6
REMARK VINA RESULT:      -7.0      1.946      2.117
REMARK  Name = 
REMARK  5 active torsions:
REMARK  status: ('A' for Active; 'I' for Inactive)
REMARK    1  A    between atoms: C_1  and  C_2
REMARK    2  A    between atoms: C_5  and  C_6
REMARK    3  A    between atoms: C_8  and  N_9
REMARK    4  A    between atoms: C_10  and  C_12
REMARK    5  A    between atoms: N_15  and  C_16
REMARK                            x       y       z     vdW  Elec       q    Type
REMARK                         _______ _______ _______ _____ _____    ______ ____
ROOT
ATOM      1  N   UNL     1       3.149   6.144  20.099  0.00  0.00    +0.000 N 
ATOM      2  C   UNL     1       2.895   4.964  19.305  0.00  0.00    +0.000 C 
ATOM      3  O   UNL     1       1.813   4.800  18.764  0.00  0.00    +0.000 OA
ATOM      4  H   UNL     1       4.032   6.210  20.590  0.00  0.00    +0.000 HD
ENDROOT
BRANCH   1   7
ATOM      5  C   UNL     1       1.007   9.020  19.922  0.00  0.00    +0.000 A 
ATOM      6  C   UNL     1       1.889   8.135  19.259  0.00  0.00    +0.000 A 
ATOM      7  C   UNL     1       2.261   7.210  20.203  0.00  0.00    +0.000 A 
ATOM      8  N   UNL     1       1.565   7.557  21.334  0.00  0.00    +0.000 N 
ATOM      9  N   UNL     1       0.826   8.671  21.201  0.00  0.00    +0.000 NA
ATOM     10  H   UNL     1       1.556   7.095  22.237  0.00  0.00    +0.000 HD
BRANCH   5  15
ATOM     11  C   UNL     1      -2.342  11.541  17.359  0.00  0.00    +0.000 C 
ATOM     12  C   UNL     1      -1.098  11.391  18.141  0.00  0.00    +0.000 A 
ATOM     13  C   UNL     1      -0.151  12.276  18.601  0.00  0.00    +0.000 A 
ATOM     14  C   UNL     1       0.782  11.510  19.344  0.00  0.00    +0.000 A 
ATOM     15  C   UNL     1       0.357  10.197  19.281  0.00  0.00    +0.000 A 
ATOM     16  O   UNL     1      -0.784  10.124  18.530  0.00  0.00    +0.000 OA
ENDBRANCH   5  15
ENDBRANCH   1   7
BRANCH   2  17
ATOM     17  C   UNL     1       4.047   3.970  19.252  0.00  0.00    +0.000 C 
ATOM     18  C   UNL     1       5.395   4.686  19.164  0.00  0.00    +0.000 C 
ATOM     19  C   UNL     1       5.570   5.376  17.811  0.00  0.00    +0.000 C 
ATOM     20  N   UNL     1       5.455   4.425  16.703  0.00  0.00    +0.000 NA
ATOM     21  C   UNL     1       4.194   3.671  16.723  0.00  0.00    +0.000 C 
ATOM     22  C   UNL     1       3.914   3.001  18.073  0.00  0.00    +0.000 C 
BRANCH  20  23
ATOM     23  C   UNL     1       5.632   5.104  15.396  0.00  0.00    +0.000 C 
ATOM     24  C   UNL     1       6.870   4.872  14.571  0.00  0.00    +0.000 C 
ATOM     25  C   UNL     1       5.562   4.283  14.137  0.00  0.00    +0.000 C 
ENDBRANCH  20  23
ENDBRANCH   2  17
TORSDOF 4
ENDMDL
MODEL 7
REMARK VINA RESULT:      -7.0      6.443      8.251
REMARK  Name = 
REMARK  5 active torsions:
REMARK  status: ('A' for Active; 'I' for Inactive)
REMARK    1  A    between atoms: C_1  and  C_2
REMARK    2  A    between atoms: C_5  and  C_6
REMARK    3  A    between atoms: C_8  and  N_9
REMARK    4  A    between atoms: C_10  and  C_12
REMARK    5  A    between atoms: N_15  and  C_16
REMARK                            x       y       z     vdW  Elec       q    Type
REMARK                         _______ _______ _______ _____ _____    ______ ____
ROOT
ATOM      1  N   UNL     1       8.628   8.058  18.835  0.00  0.00    +0.000 N 
ATOM      2  C   UNL     1       7.709   7.589  17.821  0.00  0.00    +0.000 C 
ATOM      3  O   UNL     1       7.095   8.382  17.126  0.00  0.00    +0.000 OA
ATOM      4  H   UNL     1       9.064   7.373  19.439  0.00  0.00    +0.000 HD
ENDROOT
BRANCH   1   7
ATOM      5  C   UNL     1       9.601  11.513  18.803  0.00  0.00    +0.000 A 
ATOM      6  C   UNL     1       9.280  10.347  18.068  0.00  0.00    +0.000 A 
ATOM      7  C   UNL     1       8.970   9.395  19.007  0.00  0.00    +0.000 A 
ATOM      8  N   UNL     1       9.076  10.039  20.215  0.00  0.00    +0.000 N 
ATOM      9  N   UNL     1       9.491  11.313  20.121  0.00  0.00    +0.000 NA
ATOM     10  H   UNL     1       8.898   9.673  21.143  0.00  0.00    +0.000 HD
BRANCH   5  15
ATOM     11  C   UNL     1       9.683  16.364  18.024  0.00  0.00    +0.000 C 
ATOM     12  C   UNL     1      10.099  14.968  17.782  0.00  0.00    +0.000 A 
ATOM     13  C   UNL     1      11.041  14.385  16.965  0.00  0.00    +0.000 A 
ATOM     14  C   UNL     1      10.992  12.994  17.234  0.00  0.00    +0.000 A 
ATOM     15  C   UNL     1      10.011  12.808  18.189  0.00  0.00    +0.000 A 
ATOM     16  O   UNL     1       9.455  14.015  18.510  0.00  0.00    +0.000 OA
ENDBRANCH   5  15
ENDBRANCH   1   7
BRANCH   2  17
ATOM     17  C   UNL     1       7.562   6.076  17.746  0.00  0.00    +0.000 C 
ATOM     18  C   UNL     1       6.772   5.655  16.507  0.00  0.00    +0.000 C 
ATOM     19  C   UNL     1       5.303   6.066  16.618  0.00  0.00    +0.000 C 
ATOM     20  N   UNL     1       4.673   5.493  17.809  0.00  0.00    +0.000 NA
ATOM     21  C   UNL     1       5.383   5.828  19.051  0.00  0.00    +0.000 C 
ATOM     22  C   UNL     1       6.881   5.505  18.995  0.00  0.00    +0.000 C 
BRANCH  20  23
ATOM     23  C   UNL     1       3.248   5.893  17.904  0.00  0.00    +0.000 C 
ATOM     24  C   UNL     1       2.159   4.854  17.943  0.00  0.00    +0.000 C 
ATOM     25  C   UNL     1       2.502   5.623  19.182  0.00  0.00    +0.000 C 
ENDBRANCH  20  23
ENDBRANCH   2  17
TORSDOF 4
ENDMDL
MODEL 8
REMARK VINA RESULT:      -7.0      6.377      9.405
REMARK  Name = 
REMARK  5 active torsions:
REMARK  status: ('A' for Active; 'I' for Inactive)
REMARK    1  A    between atoms: C_1  and  C_2
REMARK    2  A    between atoms: C_5  and  C_6
REMARK    3  A    between atoms: C_8  and  N_9
REMARK    4  A    between atoms: C_10  and  C_12
REMARK    5  A    between atoms: N_15  and  C_16
REMARK                            x       y       z     vdW  Elec       q    Type
REMARK                         _______ _______ _______ _____ _____    ______ ____
ROOT
ATOM      1  N   UNL     1       8.441   9.356  17.548  0.00  0.00    +0.000 N 
ATOM      2  C   UNL     1       9.172  10.125  18.530  0.00  0.00    +0.000 C 
ATOM      3  O   UNL     1       9.200   9.774  19.698  0.00  0.00    +0.000 OA
ATOM      4  H   UNL     1       8.382   9.718  16.604  0.00  0.00    +0.000 HD
ENDROOT
BRANCH   1   7
ATOM      5  C   UNL     1       6.529   6.346  17.959  0.00  0.00    +0.000 A 
ATOM      6  C   UNL     1       6.708   7.573  17.279  0.00  0.00    +0.000 A 
ATOM      7  C   UNL     1       7.840   8.132  17.819  0.00  0.00    +0.000 A 
ATOM      8  N   UNL     1       8.288   7.211  18.734  0.00  0.00    +0.000 N 
ATOM      9  N   UNL     1       7.492   6.137  18.865  0.00  0.00    +0.000 NA
ATOM     10  H   UNL     1       9.115   7.254  19.318  0.00  0.00    +0.000 HD
BRANCH   5  15
ATOM     11  C   UNL     1       1.923   4.635  17.939  0.00  0.00    +0.000 C 
ATOM     12  C   UNL     1       3.372   4.565  17.664  0.00  0.00    +0.000 A 
ATOM     13  C   UNL     1       4.176   3.646  17.030  0.00  0.00    +0.000 A 
ATOM     14  C   UNL     1       5.486   4.186  17.046  0.00  0.00    +0.000 A 
ATOM     15  C   UNL     1       5.408   5.398  17.704  0.00  0.00    +0.000 A 
ATOM     16  O   UNL     1       4.117   5.619  18.096  0.00  0.00    +0.000 OA
ENDBRANCH   5  15
ENDBRANCH   1   7
BRANCH   2  17
ATOM     17  C   UNL     1       9.835  11.384  17.988  0.00  0.00    +0.000 C 
ATOM     18  C   UNL     1      11.155  11.669  18.703  0.00  0.00    +0.000 C 
ATOM     19  C   UNL     1      10.923  12.088  20.155  0.00  0.00    +0.000 C 
ATOM     20  N   UNL     1      10.062  13.269  20.243  0.00  0.00    +0.000 NA
ATOM     21  C   UNL     1       8.774  13.093  19.558  0.00  0.00    +0.000 C 
ATOM     22  C   UNL     1       8.922  12.609  18.111  0.00  0.00    +0.000 C 
BRANCH  20  23
ATOM     23  C   UNL     1       9.847  13.671  21.655  0.00  0.00    +0.000 C 
ATOM     24  C   UNL     1      10.062  15.096  22.090  0.00  0.00    +0.000 C 
ATOM     25  C   UNL     1       8.671  14.547  21.989  0.00  0.00    +0.000 C 
ENDBRANCH  20  23
ENDBRANCH   2  17
TORSDOF 4
ENDMDL
MODEL 9
REMARK VINA RESULT:      -6.9      1.196      1.718
REMARK  Name = 
REMARK  5 active torsions:
REMARK  status: ('A' for Active; 'I' for Inactive)
REMARK    1  A    between atoms: C_1  and  C_2
REMARK    2  A    between atoms: C_5  and  C_6
REMARK    3  A    between atoms: C_8  and  N_9
REMARK    4  A    between atoms: C_10  and  C_12
REMARK    5  A    between atoms: N_15  and  C_16
REMARK                            x       y       z     vdW  Elec       q    Type
REMARK                         _______ _______ _______ _____ _____    ______ ____
ROOT
ATOM      1  N   UNL     1       2.930   5.782  19.604  0.00  0.00    +0.000 N 
ATOM      2  C   UNL     1       2.688   4.940  18.455  0.00  0.00    +0.000 C 
ATOM      3  O   UNL     1       1.807   5.215  17.657  0.00  0.00    +0.000 OA
ATOM      4  H   UNL     1       3.621   5.483  20.281  0.00  0.00    +0.000 HD
ENDROOT
BRANCH   1   7
ATOM      5  C   UNL     1       1.123   8.728  20.576  0.00  0.00    +0.000 A 
ATOM      6  C   UNL     1       1.629   7.456  20.931  0.00  0.00    +0.000 A 
ATOM      7  C   UNL     1       2.288   6.998  19.818  0.00  0.00    +0.000 A 
ATOM      8  N   UNL     1       2.181   8.013  18.899  0.00  0.00    +0.000 N 
ATOM      9  N   UNL     1       1.449   9.057  19.321  0.00  0.00    +0.000 NA
ATOM     10  H   UNL     1       2.564   8.058  17.962  0.00  0.00    +0.000 HD
BRANCH   5  15
ATOM     11  C   UNL     1      -1.167  12.779  22.154  0.00  0.00    +0.000 C 
ATOM     12  C   UNL     1      -0.719  11.376  22.257  0.00  0.00    +0.000 A 
ATOM     13  C   UNL     1      -0.930  10.375  23.177  0.00  0.00    +0.000 A 
ATOM     14  C   UNL     1      -0.267   9.227  22.675  0.00  0.00    +0.000 A 
ATOM     15  C   UNL     1       0.323   9.599  21.483  0.00  0.00    +0.000 A 
ATOM     16  O   UNL     1       0.060  10.919  21.238  0.00  0.00    +0.000 OA
ENDBRANCH   5  15
ENDBRANCH   1   7
BRANCH   2  17
ATOM     17  C   UNL     1       3.576   3.706  18.371  0.00  0.00    +0.000 C 
ATOM     18  C   UNL     1       4.721   3.775  19.381  0.00  0.00    +0.000 C 
ATOM     19  C   UNL     1       5.730   4.861  19.005  0.00  0.00    +0.000 C 
ATOM     20  N   UNL     1       6.280   4.644  17.666  0.00  0.00    +0.000 NA
ATOM     21  C   UNL     1       5.244   4.539  16.629  0.00  0.00    +0.000 C 
ATOM     22  C   UNL     1       4.156   3.512  16.966  0.00  0.00    +0.000 C 
BRANCH  20  23
ATOM     23  C   UNL     1       7.261   5.699  17.313  0.00  0.00    +0.000 C 
ATOM     24  C   UNL     1       6.876   7.154  17.359  0.00  0.00    +0.000 C 
ATOM     25  C   UNL     1       7.791   6.590  18.403  0.00  0.00    +0.000 C 
ENDBRANCH  20  23
ENDBRANCH   2  17
TORSDOF 4
ENDMDL
