MODEL 1
REMARK VINA RESULT:      -8.5      0.000      0.000
REMARK  Name = 
REMARK  5 active torsions:
REMARK  status: ('A' for Active; 'I' for Inactive)
REMARK    1  A    between atoms: C_1  and  C_2
REMARK    2  A    between atoms: N_4  and  C_5
REMARK    3  A    between atoms: C_8  and  C_9
REMARK    4  A    between atoms: C_10  and  C_11
REMARK    5  A    between atoms: C_18  and  N_19
REMARK                            x       y       z     vdW  Elec       q    Type
REMARK                         _______ _______ _______ _____ _____    ______ ____
ROOT
ATOM      1  C   UNL     1       8.058   8.944  17.488  0.00  0.00    +0.000 C 
ATOM      2  C   UNL     1       8.779   9.733  18.309  0.00  0.00    +0.000 C 
ENDROOT
BRANCH   2   3
ATOM      3  C   UNL     1       9.340  11.117  18.201  0.00  0.00    +0.000 A 
ATOM      4  C   UNL     1      10.686  11.164  17.861  0.00  0.00    +0.000 A 
ATOM      5  C   UNL     1      11.348  12.378  17.806  0.00  0.00    +0.000 A 
ATOM      6  C   UNL     1      10.652  13.561  17.999  0.00  0.00    +0.000 A 
ATOM      7  C   UNL     1      11.375  14.767  17.866  0.00  0.00    +0.000 A 
ATOM      8  C   UNL     1      10.736  15.995  17.919  0.00  0.00    +0.000 A 
ATOM      9  C   UNL     1       9.370  16.009  18.137  0.00  0.00    +0.000 A 
ATOM     10  C   UNL     1       8.677  14.783  18.321  0.00  0.00    +0.000 A 
ATOM     11  C   UNL     1       9.265  13.497  18.266  0.00  0.00    +0.000 A 
ATOM     12  N   UNL     1       8.624  12.258  18.403  0.00  0.00    +0.000 NA
BRANCH  10  13
ATOM     13  N   UNL     1       7.255  14.903  18.525  0.00  0.00    +0.000 N 
ATOM     14  O   UNL     1       6.867  14.924  19.703  0.00  0.00    +0.000 OA
ATOM     15  O   UNL     1       6.523  14.838  17.529  0.00  0.00    +0.000 OA
ENDBRANCH  10  13
ENDBRANCH   2   3
BRANCH   1  19
ATOM     16  C   UNL     1       6.381   5.020  18.537  0.00  0.00    +0.000 A 
ATOM     17  C   UNL     1       7.522   5.489  19.182  0.00  0.00    +0.000 A 
ATOM     18  C   UNL     1       8.077   6.744  18.853  0.00  0.00    +0.000 A 
ATOM     19  C   UNL     1       7.530   7.581  17.859  0.00  0.00    +0.000 A 
ATOM     20  C   UNL     1       6.384   7.089  17.216  0.00  0.00    +0.000 A 
ATOM     21  C   UNL     1       5.827   5.830  17.538  0.00  0.00    +0.000 A 
BRANCH  16  25
ATOM     22  C   UNL     1       4.165   2.124  19.607  0.00  0.00    +0.000 C 
ATOM     23  C   UNL     1       4.507   3.583  19.396  0.00  0.00    +0.000 C 
ATOM     24  O   UNL     1       3.707   4.454  19.726  0.00  0.00    +0.000 OA
ATOM     25  N   UNL     1       5.754   3.778  18.826  0.00  0.00    +0.000 N 
ATOM     26  H   UNL     1       6.249   2.948  18.524  0.00  0.00    +0.000 HD
ENDBRANCH  16  25
ENDBRANCH   1  19
TORSDOF 4
ENDMDL
MODEL 2
REMARK VINA RESULT:      -8.4      1.990      2.220
REMARK  Name = 
REMARK  5 active torsions:
REMARK  status: ('A' for Active; 'I' for Inactive)
REMARK    1  A    between atoms: C_1  and  C_2
REMARK    2  A    between atoms: N_4  and  C_5
REMARK    3  A    between atoms: C_8  and  C_9
REMARK    4  A    between atoms: C_10  and  C_11
REMARK    5  A    between atoms: C_18  and  N_19
REMARK                            x       y       z     vdW  Elec       q    Type
REMARK                         _______ _______ _______ _____ _____    ______ ____
ROOT
ATOM      1  C   UNL     1       7.989   8.588  17.660  0.00  0.00    +0.000 C 
ATOM      2  C   UNL     1       8.619   9.134  18.718  0.00  0.00    +0.000 C 
ENDROOT
BRANCH   2   3
ATOM      3  C   UNL     1       9.285  10.451  18.971  0.00  0.00    +0.000 A 
ATOM      4  C   UNL     1      10.131  10.870  17.951  0.00  0.00    +0.000 A 
ATOM      5  C   UNL     1      10.871  12.031  18.094  0.00  0.00    +0.000 A 
ATOM      6  C   UNL     1      10.703  12.831  19.213  0.00  0.00    +0.000 A 
ATOM      7  C   UNL     1      11.441  14.034  19.265  0.00  0.00    +0.000 A 
ATOM      8  C   UNL     1      11.244  14.952  20.284  0.00  0.00    +0.000 A 
ATOM      9  C   UNL     1      10.324  14.644  21.268  0.00  0.00    +0.000 A 
ATOM     10  C   UNL     1       9.635  13.403  21.220  0.00  0.00    +0.000 A 
ATOM     11  C   UNL     1       9.779  12.428  20.204  0.00  0.00    +0.000 A 
ATOM     12  N   UNL     1       9.099  11.208  20.088  0.00  0.00    +0.000 NA
BRANCH  10  13
ATOM     13  N   UNL     1       8.685  13.183  22.282  0.00  0.00    +0.000 N 
ATOM     14  O   UNL     1       9.048  12.430  23.199  0.00  0.00    +0.000 OA
ATOM     15  O   UNL     1       7.544  13.640  22.138  0.00  0.00    +0.000 OA
ENDBRANCH  10  13
ENDBRANCH   2   3
BRANCH   1  19
ATOM     16  C   UNL     1       5.887   4.728  17.674  0.00  0.00    +0.000 A 
ATOM     17  C   UNL     1       7.064   4.887  18.400  0.00  0.00    +0.000 A 
ATOM     18  C   UNL     1       7.755   6.118  18.402  0.00  0.00    +0.000 A 
ATOM     19  C   UNL     1       7.313   7.239  17.670  0.00  0.00    +0.000 A 
ATOM     20  C   UNL     1       6.128   7.058  16.940  0.00  0.00    +0.000 A 
ATOM     21  C   UNL     1       5.435   5.825  16.931  0.00  0.00    +0.000 A 
BRANCH  16  25
ATOM     22  C   UNL     1       3.509   1.807  18.178  0.00  0.00    +0.000 C 
ATOM     23  C   UNL     1       4.063   3.187  18.458  0.00  0.00    +0.000 C 
ATOM     24  O   UNL     1       3.569   3.879  19.343  0.00  0.00    +0.000 OA
ATOM     25  N   UNL     1       5.127   3.528  17.639  0.00  0.00    +0.000 N 
ATOM     26  H   UNL     1       5.350   2.881  16.892  0.00  0.00    +0.000 HD
ENDBRANCH  16  25
ENDBRANCH   1  19
TORSDOF 4
ENDMDL
MODEL 3
REMARK VINA RESULT:      -8.4      0.197      1.151
REMARK  Name = 
REMARK  5 active torsions:
REMARK  status: ('A' for Active; 'I' for Inactive)
REMARK    1  A    between atoms: C_1  and  C_2
REMARK    2  A    between atoms: N_4  and  C_5
REMARK    3  A    between atoms: C_8  and  C_9
REMARK    4  A    between atoms: C_10  and  C_11
REMARK    5  A    between atoms: C_18  and  N_19
REMARK                            x       y       z     vdW  Elec       q    Type
REMARK                         _______ _______ _______ _____ _____    ______ ____
ROOT
ATOM      1  C   UNL     1       8.283   8.891  17.422  0.00  0.00    +0.000 C 
ATOM      2  C   UNL     1       8.634   9.847  18.305  0.00  0.00    +0.000 C 
ENDROOT
BRANCH   2   3
ATOM      3  C   UNL     1       9.271  11.196  18.186  0.00  0.00    +0.000 A 
ATOM      4  C   UNL     1      10.611  11.166  17.817  0.00  0.00    +0.000 A 
ATOM      5  C   UNL     1      11.340  12.340  17.748  0.00  0.00    +0.000 A 
ATOM      6  C   UNL     1      10.717  13.561  17.957  0.00  0.00    +0.000 A 
ATOM      7  C   UNL     1      11.505  14.723  17.809  0.00  0.00    +0.000 A 
ATOM      8  C   UNL     1      10.939  15.986  17.876  0.00  0.00    +0.000 A 
ATOM      9  C   UNL     1       9.581  16.078  18.123  0.00  0.00    +0.000 A 
ATOM     10  C   UNL     1       8.823  14.894  18.321  0.00  0.00    +0.000 A 
ATOM     11  C   UNL     1       9.335  13.576  18.253  0.00  0.00    +0.000 A 
ATOM     12  N   UNL     1       8.626  12.376  18.403  0.00  0.00    +0.000 NA
BRANCH  10  13
ATOM     13  N   UNL     1       7.415  15.095  18.554  0.00  0.00    +0.000 N 
ATOM     14  O   UNL     1       6.666  14.935  17.578  0.00  0.00    +0.000 OA
ATOM     15  O   UNL     1       7.071  15.541  19.657  0.00  0.00    +0.000 OA
ENDBRANCH  10  13
ENDBRANCH   2   3
BRANCH   1  19
ATOM     16  C   UNL     1       6.325   5.109  18.508  0.00  0.00    +0.000 A 
ATOM     17  C   UNL     1       5.770   5.930  17.530  0.00  0.00    +0.000 A 
ATOM     18  C   UNL     1       6.383   7.150  17.173  0.00  0.00    +0.000 A 
ATOM     19  C   UNL     1       7.565   7.615  17.783  0.00  0.00    +0.000 A 
ATOM     20  C   UNL     1       8.107   6.778  18.771  0.00  0.00    +0.000 A 
ATOM     21  C   UNL     1       7.495   5.556  19.136  0.00  0.00    +0.000 A 
BRANCH  16  25
ATOM     22  C   UNL     1       4.294   2.183  19.831  0.00  0.00    +0.000 C 
ATOM     23  C   UNL     1       4.542   3.636  19.490  0.00  0.00    +0.000 C 
ATOM     24  O   UNL     1       3.685   4.479  19.739  0.00  0.00    +0.000 OA
ATOM     25  N   UNL     1       5.778   3.861  18.907  0.00  0.00    +0.000 N 
ATOM     26  H   UNL     1       6.328   3.041  18.681  0.00  0.00    +0.000 HD
ENDBRANCH  16  25
ENDBRANCH   1  19
TORSDOF 4
ENDMDL
MODEL 4
REMARK VINA RESULT:      -8.2      1.514      1.927
REMARK  Name = 
REMARK  5 active torsions:
REMARK  status: ('A' for Active; 'I' for Inactive)
REMARK    1  A    between atoms: C_1  and  C_2
REMARK    2  A    between atoms: N_4  and  C_5
REMARK    3  A    between atoms: C_8  and  C_9
REMARK    4  A    between atoms: C_10  and  C_11
REMARK    5  A    between atoms: C_18  and  N_19
REMARK                            x       y       z     vdW  Elec       q    Type
REMARK                         _______ _______ _______ _____ _____    ______ ____
ROOT
ATOM      1  C   UNL     1       8.381   8.843  17.746  0.00  0.00    +0.000 C 
ATOM      2  C   UNL     1       8.797   9.633  18.755  0.00  0.00    +0.000 C 
ENDROOT
BRANCH   2   3
ATOM      3  C   UNL     1       9.506  10.950  18.826  0.00  0.00    +0.000 A 
ATOM      4  C   UNL     1      10.416  11.167  17.798  0.00  0.00    +0.000 A 
ATOM      5  C   UNL     1      11.196  12.310  17.790  0.00  0.00    +0.000 A 
ATOM      6  C   UNL     1      11.009  13.289  18.753  0.00  0.00    +0.000 A 
ATOM      7  C   UNL     1      11.794  14.458  18.648  0.00  0.00    +0.000 A 
ATOM      8  C   UNL     1      11.588  15.538  19.492  0.00  0.00    +0.000 A 
ATOM      9  C   UNL     1      10.609  15.427  20.463  0.00  0.00    +0.000 A 
ATOM     10  C   UNL     1       9.872  14.219  20.580  0.00  0.00    +0.000 A 
ATOM     11  C   UNL     1      10.023  13.086  19.745  0.00  0.00    +0.000 A 
ATOM     12  N   UNL     1       9.299  11.887  19.794  0.00  0.00    +0.000 NA
BRANCH  10  13
ATOM     13  N   UNL     1       8.864  14.209  21.611  0.00  0.00    +0.000 N 
ATOM     14  O   UNL     1       9.205  13.745  22.711  0.00  0.00    +0.000 OA
ATOM     15  O   UNL     1       7.712  14.529  21.294  0.00  0.00    +0.000 OA
ENDBRANCH  10  13
ENDBRANCH   2   3
BRANCH   1  19
ATOM     16  C   UNL     1       6.234   5.049  18.307  0.00  0.00    +0.000 A 
ATOM     17  C   UNL     1       5.763   5.993  17.399  0.00  0.00    +0.000 A 
ATOM     18  C   UNL     1       6.437   7.219  17.211  0.00  0.00    +0.000 A 
ATOM     19  C   UNL     1       7.600   7.566  17.928  0.00  0.00    +0.000 A 
ATOM     20  C   UNL     1       8.057   6.604  18.842  0.00  0.00    +0.000 A 
ATOM     21  C   UNL     1       7.383   5.376  19.038  0.00  0.00    +0.000 A 
BRANCH  16  25
ATOM     22  C   UNL     1       4.090   2.073  19.300  0.00  0.00    +0.000 C 
ATOM     23  C   UNL     1       4.426   3.545  19.191  0.00  0.00    +0.000 C 
ATOM     24  O   UNL     1       3.666   4.385  19.663  0.00  0.00    +0.000 OA
ATOM     25  N   UNL     1       5.623   3.788  18.537  0.00  0.00    +0.000 N 
ATOM     26  H   UNL     1       6.082   2.987  18.121  0.00  0.00    +0.000 HD
ENDBRANCH  16  25
ENDBRANCH   1  19
TORSDOF 4
ENDMDL
MODEL 5
REMARK VINA RESULT:      -8.1      7.840     11.512
REMARK  Name = 
REMARK  5 active torsions:
REMARK  status: ('A' for Active; 'I' for Inactive)
REMARK    1  A    between atoms: C_1  and  C_2
REMARK    2  A    between atoms: N_4  and  C_5
REMARK    3  A    between atoms: C_8  and  C_9
REMARK    4  A    between atoms: C_10  and  C_11
REMARK    5  A    between atoms: C_18  and  N_19
REMARK                            x       y       z     vdW  Elec       q    Type
REMARK                         _______ _______ _______ _____ _____    ______ ____
ROOT
ATOM      1  C   UNL     1       1.199   8.395  21.442  0.00  0.00    +0.000 C 
ATOM      2  C   UNL     1       1.520   8.056  20.178  0.00  0.00    +0.000 C 
ENDROOT
BRANCH   2   3
ATOM      3  C   UNL     1       2.165   6.860  19.549  0.00  0.00    +0.000 A 
ATOM      4  C   UNL     1       2.928   7.148  18.424  0.00  0.00    +0.000 A 
ATOM      5  C   UNL     1       3.513   6.123  17.700  0.00  0.00    +0.000 A 
ATOM      6  C   UNL     1       3.421   4.813  18.146  0.00  0.00    +0.000 A 
ATOM      7  C   UNL     1       4.095   3.826  17.395  0.00  0.00    +0.000 A 
ATOM      8  C   UNL     1       4.160   2.513  17.834  0.00  0.00    +0.000 A 
ATOM      9  C   UNL     1       3.518   2.189  19.015  0.00  0.00    +0.000 A 
ATOM     10  C   UNL     1       2.802   3.192  19.721  0.00  0.00    +0.000 A 
ATOM     11  C   UNL     1       2.707   4.551  19.337  0.00  0.00    +0.000 A 
ATOM     12  N   UNL     1       2.047   5.586  20.014  0.00  0.00    +0.000 NA
BRANCH  10  13
ATOM     13  N   UNL     1       2.183   2.758  20.949  0.00  0.00    +0.000 N 
ATOM     14  O   UNL     1       0.942   2.720  20.956  0.00  0.00    +0.000 OA
ATOM     15  O   UNL     1       2.912   2.592  21.935  0.00  0.00    +0.000 OA
ENDBRANCH  10  13
ENDBRANCH   2   3
BRANCH   1  19
ATOM     16  C   UNL     1      -1.058  11.980  22.614  0.00  0.00    +0.000 A 
ATOM     17  C   UNL     1      -0.160  12.033  21.551  0.00  0.00    +0.000 A 
ATOM     18  C   UNL     1       0.577  10.893  21.165  0.00  0.00    +0.000 A 
ATOM     19  C   UNL     1       0.465   9.654  21.829  0.00  0.00    +0.000 A 
ATOM     20  C   UNL     1      -0.440   9.621  22.901  0.00  0.00    +0.000 A 
ATOM     21  C   UNL     1      -1.178  10.762  23.295  0.00  0.00    +0.000 A 
BRANCH  16  25
ATOM     22  C   UNL     1      -3.736  14.539  23.461  0.00  0.00    +0.000 C 
ATOM     23  C   UNL     1      -3.221  13.217  22.934  0.00  0.00    +0.000 C 
ATOM     24  O   UNL     1      -4.004  12.398  22.463  0.00  0.00    +0.000 OA
ATOM     25  N   UNL     1      -1.847  13.078  23.048  0.00  0.00    +0.000 N 
ATOM     26  H   UNL     1      -1.358  13.808  23.550  0.00  0.00    +0.000 HD
ENDBRANCH  16  25
ENDBRANCH   1  19
TORSDOF 4
ENDMDL
MODEL 6
REMARK VINA RESULT:      -8.1      6.871      8.160
REMARK  Name = 
REMARK  5 active torsions:
REMARK  status: ('A' for Active; 'I' for Inactive)
REMARK    1  A    between atoms: C_1  and  C_2
REMARK    2  A    between atoms: N_4  and  C_5
REMARK    3  A    between atoms: C_8  and  C_9
REMARK    4  A    between atoms: C_10  and  C_11
REMARK    5  A    between atoms: C_18  and  N_19
REMARK                            x       y       z     vdW  Elec       q    Type
REMARK                         _______ _______ _______ _____ _____    ______ ____
ROOT
ATOM      1  C   UNL     1       3.661   6.391  18.290  0.00  0.00    +0.000 C 
ATOM      2  C   UNL     1       2.664   7.295  18.216  0.00  0.00    +0.000 C 
ENDROOT
BRANCH   2   3
ATOM      3  C   UNL     1       1.902   8.095  19.227  0.00  0.00    +0.000 A 
ATOM      4  C   UNL     1       1.843   7.515  20.488  0.00  0.00    +0.000 A 
ATOM      5  C   UNL     1       1.102   8.112  21.493  0.00  0.00    +0.000 A 
ATOM      6  C   UNL     1       0.492   9.338  21.277  0.00  0.00    +0.000 A 
ATOM      7  C   UNL     1      -0.194   9.921  22.364  0.00  0.00    +0.000 A 
ATOM      8  C   UNL     1      -0.725  11.197  22.275  0.00  0.00    +0.000 A 
ATOM      9  C   UNL     1      -0.592  11.875  21.077  0.00  0.00    +0.000 A 
ATOM     10  C   UNL     1       0.055  11.243  19.983  0.00  0.00    +0.000 A 
ATOM     11  C   UNL     1       0.631   9.951  20.010  0.00  0.00    +0.000 A 
ATOM     12  N   UNL     1       1.312   9.296  18.974  0.00  0.00    +0.000 NA
BRANCH  10  13
ATOM     13  N   UNL     1       0.159  12.039  18.784  0.00  0.00    +0.000 N 
ATOM     14  O   UNL     1       1.236  12.628  18.606  0.00  0.00    +0.000 OA
ATOM     15  O   UNL     1      -0.862  12.186  18.101  0.00  0.00    +0.000 OA
ENDBRANCH  10  13
ENDBRANCH   2   3
BRANCH   1  19
ATOM     16  C   UNL     1       5.662   4.442  14.897  0.00  0.00    +0.000 A 
ATOM     17  C   UNL     1       5.618   5.831  14.980  0.00  0.00    +0.000 A 
ATOM     18  C   UNL     1       4.974   6.473  16.059  0.00  0.00    +0.000 A 
ATOM     19  C   UNL     1       4.334   5.763  17.096  0.00  0.00    +0.000 A 
ATOM     20  C   UNL     1       4.385   4.364  16.992  0.00  0.00    +0.000 A 
ATOM     21  C   UNL     1       5.025   3.715  15.910  0.00  0.00    +0.000 A 
BRANCH  16  25
ATOM     22  C   UNL     1       6.722   2.571  11.764  0.00  0.00    +0.000 C 
ATOM     23  C   UNL     1       5.773   3.377  12.624  0.00  0.00    +0.000 C 
ATOM     24  O   UNL     1       4.652   3.655  12.206  0.00  0.00    +0.000 OA
ATOM     25  N   UNL     1       6.307   3.725  13.854  0.00  0.00    +0.000 N 
ATOM     26  H   UNL     1       7.283   3.501  14.004  0.00  0.00    +0.000 HD
ENDBRANCH  16  25
ENDBRANCH   1  19
TORSDOF 4
ENDMDL
MODEL 7
REMARK VINA RESULT:      -8.0      6.934      8.299
REMARK  Name = 
REMARK  5 active torsions:
REMARK  status: ('A' for Active; 'I' for Inactive)
REMARK    1  A    between atoms: C_1  and  C_2
REMARK    2  A    between atoms: N_4  and  C_5
REMARK    3  A    between atoms: C_8  and  C_9
REMARK    4  A    between atoms: C_10  and  C_11
REMARK    5  A    between atoms: C_18  and  N_19
REMARK                            x       y       z     vdW  Elec       q    Type
REMARK                         _______ _______ _______ _____ _____    ______ ____
ROOT
ATOM      1  C   UNL     1       2.939   6.383  18.525  0.00  0.00    +0.000 C 
ATOM      2  C   UNL     1       2.461   7.643  18.513  0.00  0.00    +0.000 C 
ENDROOT
BRANCH   2   3
ATOM      3  C   UNL     1       1.640   8.458  19.463  0.00  0.00    +0.000 A 
ATOM      4  C   UNL     1       1.616   7.968  20.764  0.00  0.00    +0.000 A 
ATOM      5  C   UNL     1       0.830   8.582  21.723  0.00  0.00    +0.000 A 
ATOM      6  C   UNL     1       0.135   9.742  21.418  0.00  0.00    +0.000 A 
ATOM      7  C   UNL     1      -0.596  10.352  22.461  0.00  0.00    +0.000 A 
ATOM      8  C   UNL     1      -1.217  11.577  22.279  0.00  0.00    +0.000 A 
ATOM      9  C   UNL     1      -1.127  12.174  21.035  0.00  0.00    +0.000 A 
ATOM     10  C   UNL     1      -0.431  11.512  19.989  0.00  0.00    +0.000 A 
ATOM     11  C   UNL     1       0.235  10.270  20.111  0.00  0.00    +0.000 A 
ATOM     12  N   UNL     1       0.966   9.592  19.124  0.00  0.00    +0.000 NA
BRANCH  10  13
ATOM     13  N   UNL     1      -0.380  12.224  18.736  0.00  0.00    +0.000 N 
ATOM     14  O   UNL     1       0.586  12.985  18.575  0.00  0.00    +0.000 OA
ATOM     15  O   UNL     1      -1.356  12.133  17.981  0.00  0.00    +0.000 OA
ENDBRANCH  10  13
ENDBRANCH   2   3
BRANCH   1  19
ATOM     16  C   UNL     1       5.506   4.794  15.331  0.00  0.00    +0.000 A 
ATOM     17  C   UNL     1       4.840   3.926  16.192  0.00  0.00    +0.000 A 
ATOM     18  C   UNL     1       4.017   4.420  17.226  0.00  0.00    +0.000 A 
ATOM     19  C   UNL     1       3.831   5.798  17.459  0.00  0.00    +0.000 A 
ATOM     20  C   UNL     1       4.514   6.657  16.585  0.00  0.00    +0.000 A 
ATOM     21  C   UNL     1       5.344   6.168  15.550  0.00  0.00    +0.000 A 
BRANCH  16  25
ATOM     22  C   UNL     1       7.079   3.457  12.141  0.00  0.00    +0.000 C 
ATOM     23  C   UNL     1       5.927   3.842  13.044  0.00  0.00    +0.000 C 
ATOM     24  O   UNL     1       4.771   3.669  12.671  0.00  0.00    +0.000 OA
ATOM     25  N   UNL     1       6.335   4.374  14.257  0.00  0.00    +0.000 N 
ATOM     26  H   UNL     1       7.327   4.540  14.368  0.00  0.00    +0.000 HD
ENDBRANCH  16  25
ENDBRANCH   1  19
TORSDOF 4
ENDMDL
MODEL 8
REMARK VINA RESULT:      -8.0      7.442     11.569
REMARK  Name = 
REMARK  5 active torsions:
REMARK  status: ('A' for Active; 'I' for Inactive)
REMARK    1  A    between atoms: C_1  and  C_2
REMARK    2  A    between atoms: N_4  and  C_5
REMARK    3  A    between atoms: C_8  and  C_9
REMARK    4  A    between atoms: C_10  and  C_11
REMARK    5  A    between atoms: C_18  and  N_19
REMARK                            x       y       z     vdW  Elec       q    Type
REMARK                         _______ _______ _______ _____ _____    ______ ____
ROOT
ATOM      1  C   UNL     1       0.546   8.380  21.158  0.00  0.00    +0.000 C 
ATOM      2  C   UNL     1       1.559   8.177  20.294  0.00  0.00    +0.000 C 
ENDROOT
BRANCH   2   3
ATOM      3  C   UNL     1       2.165   6.963  19.661  0.00  0.00    +0.000 A 
ATOM      4  C   UNL     1       2.906   7.224  18.515  0.00  0.00    +0.000 A 
ATOM      5  C   UNL     1       3.454   6.181  17.788  0.00  0.00    +0.000 A 
ATOM      6  C   UNL     1       3.346   4.878  18.248  0.00  0.00    +0.000 A 
ATOM      7  C   UNL     1       3.982   3.870  17.492  0.00  0.00    +0.000 A 
ATOM      8  C   UNL     1       4.032   2.560  17.941  0.00  0.00    +0.000 A 
ATOM      9  C   UNL     1       3.412   2.260  19.140  0.00  0.00    +0.000 A 
ATOM     10  C   UNL     1       2.733   3.283  19.854  0.00  0.00    +0.000 A 
ATOM     11  C   UNL     1       2.656   4.640  19.459  0.00  0.00    +0.000 A 
ATOM     12  N   UNL     1       2.032   5.695  20.141  0.00  0.00    +0.000 NA
BRANCH  10  13
ATOM     13  N   UNL     1       2.135   2.874  21.100  0.00  0.00    +0.000 N 
ATOM     14  O   UNL     1       2.913   2.471  21.978  0.00  0.00    +0.000 OA
ATOM     15  O   UNL     1       0.899   2.822  21.156  0.00  0.00    +0.000 OA
ENDBRANCH  10  13
ENDBRANCH   2   3
BRANCH   1  19
ATOM     16  C   UNL     1      -0.986  12.267  22.521  0.00  0.00    +0.000 A 
ATOM     17  C   UNL     1      -0.328  12.163  21.298  0.00  0.00    +0.000 A 
ATOM     18  C   UNL     1       0.175  10.924  20.848  0.00  0.00    +0.000 A 
ATOM     19  C   UNL     1       0.059   9.737  21.601  0.00  0.00    +0.000 A 
ATOM     20  C   UNL     1      -0.601   9.863  22.833  0.00  0.00    +0.000 A 
ATOM     21  C   UNL     1      -1.103  11.103  23.291  0.00  0.00    +0.000 A 
BRANCH  16  25
ATOM     22  C   UNL     1      -1.751  15.746  23.846  0.00  0.00    +0.000 C 
ATOM     23  C   UNL     1      -0.871  14.671  23.246  0.00  0.00    +0.000 C 
ATOM     24  O   UNL     1       0.308  14.908  23.002  0.00  0.00    +0.000 OA
ATOM     25  N   UNL     1      -1.535  13.474  23.032  0.00  0.00    +0.000 N 
ATOM     26  H   UNL     1      -2.534  13.474  23.197  0.00  0.00    +0.000 HD
ENDBRANCH  16  25
ENDBRANCH   1  19
TORSDOF 4
ENDMDL
MODEL 9
REMARK VINA RESULT:      -7.9      6.539      9.956
REMARK  Name = 
REMARK  5 active torsions:
REMARK  status: ('A' for Active; 'I' for Inactive)
REMARK    1  A    between atoms: C_1  and  C_2
REMARK    2  A    between atoms: N_4  and  C_5
REMARK    3  A    between atoms: C_8  and  C_9
REMARK    4  A    between atoms: C_10  and  C_11
REMARK    5  A    between atoms: C_18  and  N_19
REMARK                            x       y       z     vdW  Elec       q    Type
REMARK                         _______ _______ _______ _____ _____    ______ ____
ROOT
ATOM      1  C   UNL     1       1.499   7.685  20.502  0.00  0.00    +0.000 C 
ATOM      2  C   UNL     1       2.249   7.733  19.383  0.00  0.00    +0.000 C 
ENDROOT
BRANCH   2   3
ATOM      3  C   UNL     1       3.030   6.721  18.604  0.00  0.00    +0.000 A 
ATOM      4  C   UNL     1       2.265   5.680  18.091  0.00  0.00    +0.000 A 
ATOM      5  C   UNL     1       2.874   4.635  17.419  0.00  0.00    +0.000 A 
ATOM      6  C   UNL     1       4.238   4.665  17.173  0.00  0.00    +0.000 A 
ATOM      7  C   UNL     1       4.785   3.599  16.426  0.00  0.00    +0.000 A 
ATOM      8  C   UNL     1       6.112   3.609  16.028  0.00  0.00    +0.000 A 
ATOM      9  C   UNL     1       6.897   4.681  16.409  0.00  0.00    +0.000 A 
ATOM     10  C   UNL     1       6.335   5.714  17.205  0.00  0.00    +0.000 A 
ATOM     11  C   UNL     1       4.987   5.772  17.634  0.00  0.00    +0.000 A 
ATOM     12  N   UNL     1       4.373   6.782  18.388  0.00  0.00    +0.000 NA
BRANCH  10  13
ATOM     13  N   UNL     1       7.229   6.795  17.535  0.00  0.00    +0.000 N 
ATOM     14  O   UNL     1       7.822   6.708  18.622  0.00  0.00    +0.000 OA
ATOM     15  O   UNL     1       7.239   7.783  16.790  0.00  0.00    +0.000 OA
ENDBRANCH  10  13
ENDBRANCH   2   3
BRANCH   1  19
ATOM     16  C   UNL     1      -0.800  10.997  22.252  0.00  0.00    +0.000 A 
ATOM     17  C   UNL     1      -0.588  10.941  20.877  0.00  0.00    +0.000 A 
ATOM     18  C   UNL     1       0.153   9.888  20.299  0.00  0.00    +0.000 A 
ATOM     19  C   UNL     1       0.728   8.852  21.064  0.00  0.00    +0.000 A 
ATOM     20  C   UNL     1       0.508   8.929  22.449  0.00  0.00    +0.000 A 
ATOM     21  C   UNL     1      -0.229   9.984  23.033  0.00  0.00    +0.000 A 
BRANCH  16  25
ATOM     22  C   UNL     1      -2.180  14.119  23.921  0.00  0.00    +0.000 C 
ATOM     23  C   UNL     1      -1.146  13.311  23.167  0.00  0.00    +0.000 C 
ATOM     24  O   UNL     1      -0.075  13.824  22.855  0.00  0.00    +0.000 OA
ATOM     25  N   UNL     1      -1.549  12.012  22.903  0.00  0.00    +0.000 N 
ATOM     26  H   UNL     1      -2.504  11.777  23.143  0.00  0.00    +0.000 HD
ENDBRANCH  16  25
ENDBRANCH   1  19
TORSDOF 4
ENDMDL
