MODEL 1
REMARK VINA RESULT:      -7.2      0.000      0.000
REMARK  Name = 
REMARK  12 active torsions:
REMARK  status: ('A' for Active; 'I' for Inactive)
REMARK    1  A    between atoms: C_1  and  C_2
REMARK    2  A    between atoms: C_2  and  C_3
REMARK    3  A    between atoms: C_2  and  C_4
REMARK    4  A    between atoms: C_4  and  N_5
REMARK    5  A    between atoms: N_8  and  C_9
REMARK    6  A    between atoms: C_15  and  C_16
REMARK    7  A    between atoms: C_16  and  C_17
REMARK    8  A    between atoms: N_29  and  C_30
REMARK    9  A    between atoms: C_30  and  C_31
REMARK   10  A    between atoms: C_31  and  C_32
REMARK   11  A    between atoms: C_32  and  C_33
REMARK   12  A    between atoms: C_33  and  O_34
REMARK                            x       y       z     vdW  Elec       q    Type
REMARK                         _______ _______ _______ _____ _____    ______ ____
ROOT
ATOM      1  N   UNL     1      -4.135  11.972  18.265  0.00  0.00    +0.000 N 
ATOM      2  C   UNL     1      -5.523  11.890  18.229  0.00  0.00    +0.000 A 
ATOM      3  O   UNL     1      -6.125  11.347  17.300  0.00  0.00    +0.000 OA
ATOM      4  N   UNL     1      -6.192  12.495  19.270  0.00  0.00    +0.000 N 
ATOM      5  C   UNL     1      -7.629  12.671  19.144  0.00  0.00    +0.000 C 
ATOM      6  C   UNL     1      -5.572  13.021  20.383  0.00  0.00    +0.000 A 
ATOM      7  O   UNL     1      -6.202  13.654  21.230  0.00  0.00    +0.000 OA
ATOM      8  C   UNL     1      -4.086  12.812  20.502  0.00  0.00    +0.000 A 
ATOM      9  C   UNL     1      -3.441  12.353  19.404  0.00  0.00    +0.000 A 
ATOM     10  N   UNL     1      -2.071  12.156  19.373  0.00  0.00    +0.000 NA
ATOM     11  C   UNL     1      -1.369  12.491  20.419  0.00  0.00    +0.000 A 
ATOM     12  C   UNL     1      -1.990  13.157  21.635  0.00  0.00    +0.000 A 
ATOM     13  O   UNL     1      -1.263  13.677  22.470  0.00  0.00    +0.000 OA
ATOM     14  N   UNL     1      -3.381  13.152  21.667  0.00  0.00    +0.000 N 
ENDROOT
BRANCH   1  15
ATOM     15  C   UNL     1      -3.435  11.616  17.020  0.00  0.00    +0.000 C 
BRANCH  15  17
ATOM     16  C   UNL     1      -3.301   9.698  15.393  0.00  0.00    +0.000 C 
ATOM     17  C   UNL     1      -3.173  10.094  16.868  0.00  0.00    +0.000 C 
ATOM     18  C   UNL     1      -1.800   9.636  17.375  0.00  0.00    +0.000 C 
ENDBRANCH  15  17
ENDBRANCH   1  15
BRANCH  11  19
ATOM     19  C   UNL     1       0.125  12.212  20.475  0.00  0.00    +0.000 C 
BRANCH  19  20
ATOM     20  C   UNL     1       0.455  10.760  20.796  0.00  0.00    +0.000 A 
ATOM     21  C   UNL     1       0.137  10.301  22.089  0.00  0.00    +0.000 A 
ATOM     22  C   UNL     1       0.454   9.008  22.491  0.00  0.00    +0.000 A 
ATOM     23  C   UNL     1       1.114   8.152  21.616  0.00  0.00    +0.000 A 
ATOM     24  C   UNL     1       1.433   8.560  20.315  0.00  0.00    +0.000 A 
ATOM     25  C   UNL     1       2.091   7.666  19.453  0.00  0.00    +0.000 A 
ATOM     26  C   UNL     1       2.403   8.027  18.145  0.00  0.00    +0.000 A 
ATOM     27  C   UNL     1       2.042   9.281  17.682  0.00  0.00    +0.000 A 
ATOM     28  C   UNL     1       1.384  10.178  18.529  0.00  0.00    +0.000 A 
ATOM     29  C   UNL     1       1.085   9.866  19.875  0.00  0.00    +0.000 A 
ENDBRANCH  19  20
ENDBRANCH  11  19
BRANCH  14  30
ATOM     30  C   UNL     1      -4.015  13.580  22.921  0.00  0.00    +0.000 C 
BRANCH  30  31
ATOM     31  C   UNL     1      -3.821  12.574  24.067  0.00  0.00    +0.000 C 
BRANCH  31  32
ATOM     32  C   UNL     1      -5.105  12.249  24.835  0.00  0.00    +0.000 C 
BRANCH  32  33
ATOM     33  C   UNL     1      -6.367  12.818  24.196  0.00  0.00    +0.000 C 
BRANCH  33  34
ATOM     34  O   UNL     1      -7.054  11.789  23.496  0.00  0.00    +0.000 OA
ATOM     35  H   UNL     1      -6.384  11.231  23.064  0.00  0.00    +0.000 HD
ENDBRANCH  33  34
ENDBRANCH  32  33
ENDBRANCH  31  32
ENDBRANCH  30  31
ENDBRANCH  14  30
TORSDOF 9
ENDMDL
MODEL 2
REMARK VINA RESULT:      -7.0      6.493     10.859
REMARK  Name = 
REMARK  12 active torsions:
REMARK  status: ('A' for Active; 'I' for Inactive)
REMARK    1  A    between atoms: C_1  and  C_2
REMARK    2  A    between atoms: C_2  and  C_3
REMARK    3  A    between atoms: C_2  and  C_4
REMARK    4  A    between atoms: C_4  and  N_5
REMARK    5  A    between atoms: N_8  and  C_9
REMARK    6  A    between atoms: C_15  and  C_16
REMARK    7  A    between atoms: C_16  and  C_17
REMARK    8  A    between atoms: N_29  and  C_30
REMARK    9  A    between atoms: C_30  and  C_31
REMARK   10  A    between atoms: C_31  and  C_32
REMARK   11  A    between atoms: C_32  and  C_33
REMARK   12  A    between atoms: C_33  and  O_34
REMARK                            x       y       z     vdW  Elec       q    Type
REMARK                         _______ _______ _______ _____ _____    ______ ____
ROOT
ATOM      1  N   UNL     1       5.847   6.435  16.804  0.00  0.00    +0.000 N 
ATOM      2  C   UNL     1       6.604   5.676  15.919  0.00  0.00    +0.000 A 
ATOM      3  O   UNL     1       7.738   6.009  15.570  0.00  0.00    +0.000 OA
ATOM      4  N   UNL     1       5.993   4.549  15.414  0.00  0.00    +0.000 N 
ATOM      5  C   UNL     1       6.629   3.874  14.294  0.00  0.00    +0.000 C 
ATOM      6  C   UNL     1       4.774   4.072  15.846  0.00  0.00    +0.000 A 
ATOM      7  O   UNL     1       4.216   3.130  15.284  0.00  0.00    +0.000 OA
ATOM      8  C   UNL     1       4.142   4.774  17.018  0.00  0.00    +0.000 A 
ATOM      9  C   UNL     1       4.685   5.957  17.391  0.00  0.00    +0.000 A 
ATOM     10  N   UNL     1       4.172   6.717  18.428  0.00  0.00    +0.000 NA
ATOM     11  C   UNL     1       3.084   6.311  19.021  0.00  0.00    +0.000 A 
ATOM     12  C   UNL     1       2.322   5.079  18.565  0.00  0.00    +0.000 A 
ATOM     13  O   UNL     1       1.189   4.888  18.982  0.00  0.00    +0.000 OA
ATOM     14  N   UNL     1       2.992   4.274  17.650  0.00  0.00    +0.000 N 
ENDROOT
BRANCH   1  15
ATOM     15  C   UNL     1       6.358   7.785  17.096  0.00  0.00    +0.000 C 
BRANCH  15  17
ATOM     16  C   UNL     1       8.205   9.222  18.025  0.00  0.00    +0.000 C 
ATOM     17  C   UNL     1       7.817   7.795  17.624  0.00  0.00    +0.000 C 
ATOM     18  C   UNL     1       8.061   6.871  18.823  0.00  0.00    +0.000 C 
ENDBRANCH  15  17
ENDBRANCH   1  15
BRANCH  11  19
ATOM     19  C   UNL     1       2.529   7.058  20.224  0.00  0.00    +0.000 C 
BRANCH  19  20
ATOM     20  C   UNL     1       1.679   8.264  19.844  0.00  0.00    +0.000 A 
ATOM     21  C   UNL     1       1.686   8.652  18.490  0.00  0.00    +0.000 A 
ATOM     22  C   UNL     1       0.987   9.775  18.061  0.00  0.00    +0.000 A 
ATOM     23  C   UNL     1       0.282  10.546  18.979  0.00  0.00    +0.000 A 
ATOM     24  C   UNL     1       0.233  10.186  20.331  0.00  0.00    +0.000 A 
ATOM     25  C   UNL     1      -0.498  10.982  21.231  0.00  0.00    +0.000 A 
ATOM     26  C   UNL     1      -0.590  10.645  22.579  0.00  0.00    +0.000 A 
ATOM     27  C   UNL     1       0.033   9.495  23.035  0.00  0.00    +0.000 A 
ATOM     28  C   UNL     1       0.760   8.693  22.149  0.00  0.00    +0.000 A 
ATOM     29  C   UNL     1       0.912   9.022  20.782  0.00  0.00    +0.000 A 
ENDBRANCH  19  20
ENDBRANCH  11  19
BRANCH  14  30
ATOM     30  C   UNL     1       2.392   2.965  17.356  0.00  0.00    +0.000 C 
BRANCH  30  31
ATOM     31  C   UNL     1       3.014   1.822  18.173  0.00  0.00    +0.000 C 
BRANCH  31  32
ATOM     32  C   UNL     1       2.945   2.031  19.689  0.00  0.00    +0.000 C 
BRANCH  32  33
ATOM     33  C   UNL     1       4.308   2.173  20.355  0.00  0.00    +0.000 C 
BRANCH  33  34
ATOM     34  O   UNL     1       5.272   2.580  19.392  0.00  0.00    +0.000 OA
ATOM     35  H   UNL     1       5.161   2.012  18.609  0.00  0.00    +0.000 HD
ENDBRANCH  33  34
ENDBRANCH  32  33
ENDBRANCH  31  32
ENDBRANCH  30  31
ENDBRANCH  14  30
TORSDOF 9
ENDMDL
MODEL 3
REMARK VINA RESULT:      -6.9      2.075      6.777
REMARK  Name = 
REMARK  12 active torsions:
REMARK  status: ('A' for Active; 'I' for Inactive)
REMARK    1  A    between atoms: C_1  and  C_2
REMARK    2  A    between atoms: C_2  and  C_3
REMARK    3  A    between atoms: C_2  and  C_4
REMARK    4  A    between atoms: C_4  and  N_5
REMARK    5  A    between atoms: N_8  and  C_9
REMARK    6  A    between atoms: C_15  and  C_16
REMARK    7  A    between atoms: C_16  and  C_17
REMARK    8  A    between atoms: N_29  and  C_30
REMARK    9  A    between atoms: C_30  and  C_31
REMARK   10  A    between atoms: C_31  and  C_32
REMARK   11  A    between atoms: C_32  and  C_33
REMARK   12  A    between atoms: C_33  and  O_34
REMARK                            x       y       z     vdW  Elec       q    Type
REMARK                         _______ _______ _______ _____ _____    ______ ____
ROOT
ATOM      1  N   UNL     1      -4.129  12.048  18.657  0.00  0.00    +0.000 N 
ATOM      2  C   UNL     1      -3.960  11.519  17.383  0.00  0.00    +0.000 A 
ATOM      3  O   UNL     1      -4.819  11.632  16.505  0.00  0.00    +0.000 OA
ATOM      4  N   UNL     1      -2.796  10.815  17.169  0.00  0.00    +0.000 N 
ATOM      5  C   UNL     1      -2.692  10.023  15.954  0.00  0.00    +0.000 C 
ATOM      6  C   UNL     1      -1.759  10.746  18.075  0.00  0.00    +0.000 A 
ATOM      7  O   UNL     1      -0.790  10.010  17.887  0.00  0.00    +0.000 OA
ATOM      8  C   UNL     1      -1.878  11.588  19.317  0.00  0.00    +0.000 A 
ATOM      9  C   UNL     1      -3.087  12.144  19.568  0.00  0.00    +0.000 A 
ATOM     10  N   UNL     1      -3.335  12.907  20.695  0.00  0.00    +0.000 NA
ATOM     11  C   UNL     1      -2.388  13.037  21.582  0.00  0.00    +0.000 A 
ATOM     12  C   UNL     1      -1.055  12.320  21.458  0.00  0.00    +0.000 A 
ATOM     13  O   UNL     1      -0.310  12.269  22.426  0.00  0.00    +0.000 OA
ATOM     14  N   UNL     1      -0.814  11.729  20.222  0.00  0.00    +0.000 N 
ENDROOT
BRANCH   1  15
ATOM     15  C   UNL     1      -5.484  12.518  18.987  0.00  0.00    +0.000 C 
BRANCH  15  17
ATOM     16  C   UNL     1      -7.398  12.315  20.611  0.00  0.00    +0.000 C 
ATOM     17  C   UNL     1      -6.270  11.550  19.911  0.00  0.00    +0.000 C 
ATOM     18  C   UNL     1      -6.878  10.342  19.188  0.00  0.00    +0.000 C 
ENDBRANCH  15  17
ENDBRANCH   1  15
BRANCH  11  19
ATOM     19  C   UNL     1      -2.575  13.937  22.794  0.00  0.00    +0.000 C 
BRANCH  19  20
ATOM     20  C   UNL     1      -3.856  14.761  22.740  0.00  0.00    +0.000 A 
ATOM     21  C   UNL     1      -3.761  16.057  22.198  0.00  0.00    +0.000 A 
ATOM     22  C   UNL     1      -4.865  16.902  22.161  0.00  0.00    +0.000 A 
ATOM     23  C   UNL     1      -6.082  16.478  22.684  0.00  0.00    +0.000 A 
ATOM     24  C   UNL     1      -6.225  15.191  23.216  0.00  0.00    +0.000 A 
ATOM     25  C   UNL     1      -7.472  14.790  23.727  0.00  0.00    +0.000 A 
ATOM     26  C   UNL     1      -7.660  13.511  24.243  0.00  0.00    +0.000 A 
ATOM     27  C   UNL     1      -6.606  12.613  24.234  0.00  0.00    +0.000 A 
ATOM     28  C   UNL     1      -5.362  12.999  23.725  0.00  0.00    +0.000 A 
ATOM     29  C   UNL     1      -5.117  14.301  23.230  0.00  0.00    +0.000 A 
ENDBRANCH  19  20
ENDBRANCH  11  19
BRANCH  14  30
ATOM     30  C   UNL     1       0.545  11.224  19.984  0.00  0.00    +0.000 C 
BRANCH  30  31
ATOM     31  C   UNL     1       0.686   9.721  20.271  0.00  0.00    +0.000 C 
BRANCH  31  32
ATOM     32  C   UNL     1       1.051   9.396  21.723  0.00  0.00    +0.000 C 
BRANCH  32  33
ATOM     33  C   UNL     1      -0.122   8.900  22.558  0.00  0.00    +0.000 C 
BRANCH  33  34
ATOM     34  O   UNL     1      -0.179   9.624  23.781  0.00  0.00    +0.000 OA
ATOM     35  H   UNL     1      -1.116   9.814  23.964  0.00  0.00    +0.000 HD
ENDBRANCH  33  34
ENDBRANCH  32  33
ENDBRANCH  31  32
ENDBRANCH  30  31
ENDBRANCH  14  30
TORSDOF 9
ENDMDL
MODEL 4
REMARK VINA RESULT:      -6.8      1.894      5.305
REMARK  Name = 
REMARK  12 active torsions:
REMARK  status: ('A' for Active; 'I' for Inactive)
REMARK    1  A    between atoms: C_1  and  C_2
REMARK    2  A    between atoms: C_2  and  C_3
REMARK    3  A    between atoms: C_2  and  C_4
REMARK    4  A    between atoms: C_4  and  N_5
REMARK    5  A    between atoms: N_8  and  C_9
REMARK    6  A    between atoms: C_15  and  C_16
REMARK    7  A    between atoms: C_16  and  C_17
REMARK    8  A    between atoms: N_29  and  C_30
REMARK    9  A    between atoms: C_30  and  C_31
REMARK   10  A    between atoms: C_31  and  C_32
REMARK   11  A    between atoms: C_32  and  C_33
REMARK   12  A    between atoms: C_33  and  O_34
REMARK                            x       y       z     vdW  Elec       q    Type
REMARK                         _______ _______ _______ _____ _____    ______ ____
ROOT
ATOM      1  N   UNL     1      -3.434  13.058  20.686  0.00  0.00    +0.000 N 
ATOM      2  C   UNL     1      -4.698  13.629  20.600  0.00  0.00    +0.000 A 
ATOM      3  O   UNL     1      -5.070  14.522  21.365  0.00  0.00    +0.000 OA
ATOM      4  N   UNL     1      -5.535  13.106  19.640  0.00  0.00    +0.000 N 
ATOM      5  C   UNL     1      -6.940  13.476  19.684  0.00  0.00    +0.000 C 
ATOM      6  C   UNL     1      -5.140  12.185  18.692  0.00  0.00    +0.000 A 
ATOM      7  O   UNL     1      -5.951  11.660  17.930  0.00  0.00    +0.000 OA
ATOM      8  C   UNL     1      -3.679  11.829  18.650  0.00  0.00    +0.000 A 
ATOM      9  C   UNL     1      -2.918  12.239  19.693  0.00  0.00    +0.000 A 
ATOM     10  N   UNL     1      -1.569  11.943  19.792  0.00  0.00    +0.000 NA
ATOM     11  C   UNL     1      -1.029  11.182  18.881  0.00  0.00    +0.000 A 
ATOM     12  C   UNL     1      -1.841  10.550  17.764  0.00  0.00    +0.000 A 
ATOM     13  O   UNL     1      -1.346   9.653  17.097  0.00  0.00    +0.000 OA
ATOM     14  N   UNL     1      -3.136  11.039  17.625  0.00  0.00    +0.000 N 
ENDROOT
BRANCH   1  15
ATOM     15  C   UNL     1      -2.659  13.383  21.895  0.00  0.00    +0.000 C 
BRANCH  15  17
ATOM     16  C   UNL     1      -1.417  15.102  23.253  0.00  0.00    +0.000 C 
ATOM     17  C   UNL     1      -2.170  14.855  21.942  0.00  0.00    +0.000 C 
ATOM     18  C   UNL     1      -1.257  15.254  20.776  0.00  0.00    +0.000 C 
ENDBRANCH  15  17
ENDBRANCH   1  15
BRANCH  11  19
ATOM     19  C   UNL     1       0.466  10.899  18.890  0.00  0.00    +0.000 C 
BRANCH  19  20
ATOM     20  C   UNL     1       0.826   9.588  19.577  0.00  0.00    +0.000 A 
ATOM     21  C   UNL     1       0.269   9.357  20.850  0.00  0.00    +0.000 A 
ATOM     22  C   UNL     1       0.588   8.215  21.577  0.00  0.00    +0.000 A 
ATOM     23  C   UNL     1       1.485   7.289  21.057  0.00  0.00    +0.000 A 
ATOM     24  C   UNL     1       2.049   7.470  19.788  0.00  0.00    +0.000 A 
ATOM     25  C   UNL     1       2.945   6.509  19.288  0.00  0.00    +0.000 A 
ATOM     26  C   UNL     1       3.507   6.641  18.021  0.00  0.00    +0.000 A 
ATOM     27  C   UNL     1       3.162   7.727  17.234  0.00  0.00    +0.000 A 
ATOM     28  C   UNL     1       2.269   8.688  17.720  0.00  0.00    +0.000 A 
ATOM     29  C   UNL     1       1.708   8.613  19.015  0.00  0.00    +0.000 A 
ENDBRANCH  19  20
ENDBRANCH  11  19
BRANCH  14  30
ATOM     30  C   UNL     1      -3.875  10.622  16.425  0.00  0.00    +0.000 C 
BRANCH  30  31
ATOM     31  C   UNL     1      -3.173  11.023  15.118  0.00  0.00    +0.000 C 
BRANCH  31  32
ATOM     32  C   UNL     1      -3.074   9.890  14.092  0.00  0.00    +0.000 C 
BRANCH  32  33
ATOM     33  C   UNL     1      -4.202   9.885  13.067  0.00  0.00    +0.000 C 
BRANCH  33  34
ATOM     34  O   UNL     1      -3.657   9.811  11.756  0.00  0.00    +0.000 OA
ATOM     35  H   UNL     1      -4.220   9.209  11.239  0.00  0.00    +0.000 HD
ENDBRANCH  33  34
ENDBRANCH  32  33
ENDBRANCH  31  32
ENDBRANCH  30  31
ENDBRANCH  14  30
TORSDOF 9
ENDMDL
MODEL 5
REMARK VINA RESULT:      -6.7      2.188      7.016
REMARK  Name = 
REMARK  12 active torsions:
REMARK  status: ('A' for Active; 'I' for Inactive)
REMARK    1  A    between atoms: C_1  and  C_2
REMARK    2  A    between atoms: C_2  and  C_3
REMARK    3  A    between atoms: C_2  and  C_4
REMARK    4  A    between atoms: C_4  and  N_5
REMARK    5  A    between atoms: N_8  and  C_9
REMARK    6  A    between atoms: C_15  and  C_16
REMARK    7  A    between atoms: C_16  and  C_17
REMARK    8  A    between atoms: N_29  and  C_30
REMARK    9  A    between atoms: C_30  and  C_31
REMARK   10  A    between atoms: C_31  and  C_32
REMARK   11  A    between atoms: C_32  and  C_33
REMARK   12  A    between atoms: C_33  and  O_34
REMARK                            x       y       z     vdW  Elec       q    Type
REMARK                         _______ _______ _______ _____ _____    ______ ____
ROOT
ATOM      1  N   UNL     1      -4.161  11.985  18.587  0.00  0.00    +0.000 N 
ATOM      2  C   UNL     1      -4.057  11.570  17.264  0.00  0.00    +0.000 A 
ATOM      3  O   UNL     1      -4.951  11.771  16.440  0.00  0.00    +0.000 OA
ATOM      4  N   UNL     1      -2.914  10.875  16.937  0.00  0.00    +0.000 N 
ATOM      5  C   UNL     1      -2.876  10.193  15.654  0.00  0.00    +0.000 C 
ATOM      6  C   UNL     1      -1.840  10.713  17.786  0.00  0.00    +0.000 A 
ATOM      7  O   UNL     1      -0.891   9.986  17.491  0.00  0.00    +0.000 OA
ATOM      8  C   UNL     1      -1.891  11.442  19.102  0.00  0.00    +0.000 A 
ATOM      9  C   UNL     1      -3.079  11.987  19.455  0.00  0.00    +0.000 A 
ATOM     10  N   UNL     1      -3.266  12.650  20.656  0.00  0.00    +0.000 NA
ATOM     11  C   UNL     1      -2.280  12.689  21.508  0.00  0.00    +0.000 A 
ATOM     12  C   UNL     1      -0.965  11.971  21.260  0.00  0.00    +0.000 A 
ATOM     13  O   UNL     1      -0.178  11.825  22.185  0.00  0.00    +0.000 OA
ATOM     14  N   UNL     1      -0.787  11.490  19.967  0.00  0.00    +0.000 N 
ENDROOT
BRANCH   1  15
ATOM     15  C   UNL     1      -5.494  12.440  19.018  0.00  0.00    +0.000 C 
BRANCH  15  17
ATOM     16  C   UNL     1      -7.377  12.110  20.657  0.00  0.00    +0.000 C 
ATOM     17  C   UNL     1      -6.248  11.406  19.896  0.00  0.00    +0.000 C 
ATOM     18  C   UNL     1      -6.850  10.233  19.113  0.00  0.00    +0.000 C 
ENDBRANCH  15  17
ENDBRANCH   1  15
BRANCH  11  19
ATOM     19  C   UNL     1      -2.400  13.479  22.801  0.00  0.00    +0.000 C 
BRANCH  19  20
ATOM     20  C   UNL     1      -3.564  14.462  22.801  0.00  0.00    +0.000 A 
ATOM     21  C   UNL     1      -3.304  15.763  22.327  0.00  0.00    +0.000 A 
ATOM     22  C   UNL     1      -4.291  16.743  22.344  0.00  0.00    +0.000 A 
ATOM     23  C   UNL     1      -5.552  16.451  22.852  0.00  0.00    +0.000 A 
ATOM     24  C   UNL     1      -5.859  15.166  23.316  0.00  0.00    +0.000 A 
ATOM     25  C   UNL     1      -7.146  14.900  23.814  0.00  0.00    +0.000 A 
ATOM     26  C   UNL     1      -7.497  13.630  24.262  0.00  0.00    +0.000 A 
ATOM     27  C   UNL     1      -6.566  12.606  24.198  0.00  0.00    +0.000 A 
ATOM     28  C   UNL     1      -5.283  12.857  23.701  0.00  0.00    +0.000 A 
ATOM     29  C   UNL     1      -4.874  14.141  23.274  0.00  0.00    +0.000 A 
ENDBRANCH  19  20
ENDBRANCH  11  19
BRANCH  14  30
ATOM     30  C   UNL     1       0.553  10.993  19.624  0.00  0.00    +0.000 C 
BRANCH  30  31
ATOM     31  C   UNL     1       0.824   9.578  20.161  0.00  0.00    +0.000 C 
BRANCH  31  32
ATOM     32  C   UNL     1       1.716   8.728  19.251  0.00  0.00    +0.000 C 
BRANCH  32  33
ATOM     33  C   UNL     1       2.107   7.384  19.853  0.00  0.00    +0.000 C 
BRANCH  33  34
ATOM     34  O   UNL     1       1.791   7.369  21.239  0.00  0.00    +0.000 OA
ATOM     35  H   UNL     1       1.861   8.284  21.564  0.00  0.00    +0.000 HD
ENDBRANCH  33  34
ENDBRANCH  32  33
ENDBRANCH  31  32
ENDBRANCH  30  31
ENDBRANCH  14  30
TORSDOF 9
ENDMDL
MODEL 6
REMARK VINA RESULT:      -6.7      2.268      8.124
REMARK  Name = 
REMARK  12 active torsions:
REMARK  status: ('A' for Active; 'I' for Inactive)
REMARK    1  A    between atoms: C_1  and  C_2
REMARK    2  A    between atoms: C_2  and  C_3
REMARK    3  A    between atoms: C_2  and  C_4
REMARK    4  A    between atoms: C_4  and  N_5
REMARK    5  A    between atoms: N_8  and  C_9
REMARK    6  A    between atoms: C_15  and  C_16
REMARK    7  A    between atoms: C_16  and  C_17
REMARK    8  A    between atoms: N_29  and  C_30
REMARK    9  A    between atoms: C_30  and  C_31
REMARK   10  A    between atoms: C_31  and  C_32
REMARK   11  A    between atoms: C_32  and  C_33
REMARK   12  A    between atoms: C_33  and  O_34
REMARK                            x       y       z     vdW  Elec       q    Type
REMARK                         _______ _______ _______ _____ _____    ______ ____
ROOT
ATOM      1  N   UNL     1      -1.648  12.596  20.722  0.00  0.00    +0.000 N 
ATOM      2  C   UNL     1      -0.444  11.902  20.708  0.00  0.00    +0.000 A 
ATOM      3  O   UNL     1       0.378  11.992  21.623  0.00  0.00    +0.000 OA
ATOM      4  N   UNL     1      -0.197  11.142  19.586  0.00  0.00    +0.000 N 
ATOM      5  C   UNL     1       1.147  10.618  19.400  0.00  0.00    +0.000 C 
ATOM      6  C   UNL     1      -1.119  10.922  18.585  0.00  0.00    +0.000 A 
ATOM      7  O   UNL     1      -0.814  10.333  17.548  0.00  0.00    +0.000 OA
ATOM      8  C   UNL     1      -2.509  11.457  18.805  0.00  0.00    +0.000 A 
ATOM      9  C   UNL     1      -2.678  12.320  19.835  0.00  0.00    +0.000 A 
ATOM     10  N   UNL     1      -3.897  12.911  20.118  0.00  0.00    +0.000 NA
ATOM     11  C   UNL     1      -4.902  12.681  19.320  0.00  0.00    +0.000 A 
ATOM     12  C   UNL     1      -4.762  11.852  18.055  0.00  0.00    +0.000 A 
ATOM     13  O   UNL     1      -5.655  11.878  17.220  0.00  0.00    +0.000 OA
ATOM     14  N   UNL     1      -3.569  11.147  17.939  0.00  0.00    +0.000 N 
ENDROOT
BRANCH   1  15
ATOM     15  C   UNL     1      -1.778  13.642  21.750  0.00  0.00    +0.000 C 
BRANCH  15  17
ATOM     16  C   UNL     1      -1.949  14.225  24.194  0.00  0.00    +0.000 C 
ATOM     17  C   UNL     1      -2.034  13.084  23.176  0.00  0.00    +0.000 C 
ATOM     18  C   UNL     1      -3.387  12.382  23.345  0.00  0.00    +0.000 C 
ENDBRANCH  15  17
ENDBRANCH   1  15
BRANCH  11  19
ATOM     19  C   UNL     1      -6.286  13.230  19.633  0.00  0.00    +0.000 C 
BRANCH  19  20
ATOM     20  C   UNL     1      -6.569  13.333  21.127  0.00  0.00    +0.000 A 
ATOM     21  C   UNL     1      -7.245  12.253  21.726  0.00  0.00    +0.000 A 
ATOM     22  C   UNL     1      -7.597  12.284  23.072  0.00  0.00    +0.000 A 
ATOM     23  C   UNL     1      -7.299  13.403  23.842  0.00  0.00    +0.000 A 
ATOM     24  C   UNL     1      -6.612  14.492  23.290  0.00  0.00    +0.000 A 
ATOM     25  C   UNL     1      -6.318  15.604  24.098  0.00  0.00    +0.000 A 
ATOM     26  C   UNL     1      -5.615  16.695  23.594  0.00  0.00    +0.000 A 
ATOM     27  C   UNL     1      -5.184  16.674  22.278  0.00  0.00    +0.000 A 
ATOM     28  C   UNL     1      -5.467  15.573  21.465  0.00  0.00    +0.000 A 
ATOM     29  C   UNL     1      -6.213  14.463  21.926  0.00  0.00    +0.000 A 
ENDBRANCH  19  20
ENDBRANCH  11  19
BRANCH  14  30
ATOM     30  C   UNL     1      -3.485  10.163  16.851  0.00  0.00    +0.000 C 
BRANCH  30  31
ATOM     31  C   UNL     1      -3.326  10.811  15.466  0.00  0.00    +0.000 C 
BRANCH  31  32
ATOM     32  C   UNL     1      -2.988   9.819  14.350  0.00  0.00    +0.000 C 
BRANCH  32  33
ATOM     33  C   UNL     1      -3.920   9.901  13.147  0.00  0.00    +0.000 C 
BRANCH  33  34
ATOM     34  O   UNL     1      -3.198   9.596  11.960  0.00  0.00    +0.000 OA
ATOM     35  H   UNL     1      -2.254   9.552  12.195  0.00  0.00    +0.000 HD
ENDBRANCH  33  34
ENDBRANCH  32  33
ENDBRANCH  31  32
ENDBRANCH  30  31
ENDBRANCH  14  30
TORSDOF 9
ENDMDL
MODEL 7
REMARK VINA RESULT:      -6.7      0.999      1.162
REMARK  Name = 
REMARK  12 active torsions:
REMARK  status: ('A' for Active; 'I' for Inactive)
REMARK    1  A    between atoms: C_1  and  C_2
REMARK    2  A    between atoms: C_2  and  C_3
REMARK    3  A    between atoms: C_2  and  C_4
REMARK    4  A    between atoms: C_4  and  N_5
REMARK    5  A    between atoms: N_8  and  C_9
REMARK    6  A    between atoms: C_15  and  C_16
REMARK    7  A    between atoms: C_16  and  C_17
REMARK    8  A    between atoms: N_29  and  C_30
REMARK    9  A    between atoms: C_30  and  C_31
REMARK   10  A    between atoms: C_31  and  C_32
REMARK   11  A    between atoms: C_32  and  C_33
REMARK   12  A    between atoms: C_33  and  O_34
REMARK                            x       y       z     vdW  Elec       q    Type
REMARK                         _______ _______ _______ _____ _____    ______ ____
ROOT
ATOM      1  N   UNL     1      -4.137  11.934  18.633  0.00  0.00    +0.000 N 
ATOM      2  C   UNL     1      -5.520  11.812  18.555  0.00  0.00    +0.000 A 
ATOM      3  O   UNL     1      -6.085  11.358  17.559  0.00  0.00    +0.000 OA
ATOM      4  N   UNL     1      -6.229  12.276  19.641  0.00  0.00    +0.000 N 
ATOM      5  C   UNL     1      -7.669  12.419  19.503  0.00  0.00    +0.000 C 
ATOM      6  C   UNL     1      -5.649  12.694  20.820  0.00  0.00    +0.000 A 
ATOM      7  O   UNL     1      -6.317  13.208  21.717  0.00  0.00    +0.000 OA
ATOM      8  C   UNL     1      -4.160  12.520  20.950  0.00  0.00    +0.000 A 
ATOM      9  C   UNL     1      -3.478  12.208  19.822  0.00  0.00    +0.000 A 
ATOM     10  N   UNL     1      -2.102  12.058  19.802  0.00  0.00    +0.000 NA
ATOM     11  C   UNL     1      -1.432  12.296  20.895  0.00  0.00    +0.000 A 
ATOM     12  C   UNL     1      -2.099  12.802  22.162  0.00  0.00    +0.000 A 
ATOM     13  O   UNL     1      -1.407  13.248  23.066  0.00  0.00    +0.000 OA
ATOM     14  N   UNL     1      -3.489  12.749  22.161  0.00  0.00    +0.000 N 
ENDROOT
BRANCH   1  15
ATOM     15  C   UNL     1      -3.401  11.742  17.372  0.00  0.00    +0.000 C 
BRANCH  15  17
ATOM     16  C   UNL     1      -3.371  10.041  15.516  0.00  0.00    +0.000 C 
ATOM     17  C   UNL     1      -3.155  10.251  17.018  0.00  0.00    +0.000 C 
ATOM     18  C   UNL     1      -1.757   9.737  17.383  0.00  0.00    +0.000 C 
ENDBRANCH  15  17
ENDBRANCH   1  15
BRANCH  11  19
ATOM     19  C   UNL     1       0.069  12.060  20.954  0.00  0.00    +0.000 C 
BRANCH  19  20
ATOM     20  C   UNL     1       0.445  10.585  21.003  0.00  0.00    +0.000 A 
ATOM     21  C   UNL     1       0.170   9.893  22.199  0.00  0.00    +0.000 A 
ATOM     22  C   UNL     1       0.531   8.559  22.356  0.00  0.00    +0.000 A 
ATOM     23  C   UNL     1       1.193   7.893  21.330  0.00  0.00    +0.000 A 
ATOM     24  C   UNL     1       1.470   8.538  20.118  0.00  0.00    +0.000 A 
ATOM     25  C   UNL     1       2.132   7.833  19.097  0.00  0.00    +0.000 A 
ATOM     26  C   UNL     1       2.403   8.430  17.870  0.00  0.00    +0.000 A 
ATOM     27  C   UNL     1       1.998   9.735  17.646  0.00  0.00    +0.000 A 
ATOM     28  C   UNL     1       1.336  10.446  18.652  0.00  0.00    +0.000 A 
ATOM     29  C   UNL     1       1.077   9.890  19.926  0.00  0.00    +0.000 A 
ENDBRANCH  19  20
ENDBRANCH  11  19
BRANCH  14  30
ATOM     30  C   UNL     1      -4.162  13.014  23.441  0.00  0.00    +0.000 C 
BRANCH  30  31
ATOM     31  C   UNL     1      -3.891  14.428  23.980  0.00  0.00    +0.000 C 
BRANCH  31  32
ATOM     32  C   UNL     1      -4.560  15.542  23.170  0.00  0.00    +0.000 C 
BRANCH  32  33
ATOM     33  C   UNL     1      -5.836  16.085  23.802  0.00  0.00    +0.000 C 
BRANCH  33  34
ATOM     34  O   UNL     1      -6.640  15.005  24.259  0.00  0.00    +0.000 OA
ATOM     35  H   UNL     1      -7.337  14.858  23.596  0.00  0.00    +0.000 HD
ENDBRANCH  33  34
ENDBRANCH  32  33
ENDBRANCH  31  32
ENDBRANCH  30  31
ENDBRANCH  14  30
TORSDOF 9
ENDMDL
MODEL 8
REMARK VINA RESULT:      -6.6      1.833      2.656
REMARK  Name = 
REMARK  12 active torsions:
REMARK  status: ('A' for Active; 'I' for Inactive)
REMARK    1  A    between atoms: C_1  and  C_2
REMARK    2  A    between atoms: C_2  and  C_3
REMARK    3  A    between atoms: C_2  and  C_4
REMARK    4  A    between atoms: C_4  and  N_5
REMARK    5  A    between atoms: N_8  and  C_9
REMARK    6  A    between atoms: C_15  and  C_16
REMARK    7  A    between atoms: C_16  and  C_17
REMARK    8  A    between atoms: N_29  and  C_30
REMARK    9  A    between atoms: C_30  and  C_31
REMARK   10  A    between atoms: C_31  and  C_32
REMARK   11  A    between atoms: C_32  and  C_33
REMARK   12  A    between atoms: C_33  and  O_34
REMARK                            x       y       z     vdW  Elec       q    Type
REMARK                         _______ _______ _______ _____ _____    ______ ____
ROOT
ATOM      1  N   UNL     1      -4.813  12.598  20.157  0.00  0.00    +0.000 N 
ATOM      2  C   UNL     1      -5.874  13.046  20.936  0.00  0.00    +0.000 A 
ATOM      3  O   UNL     1      -6.995  12.534  20.878  0.00  0.00    +0.000 OA
ATOM      4  N   UNL     1      -5.615  14.131  21.744  0.00  0.00    +0.000 N 
ATOM      5  C   UNL     1      -6.745  14.800  22.369  0.00  0.00    +0.000 C 
ATOM      6  C   UNL     1      -4.362  14.674  21.927  0.00  0.00    +0.000 A 
ATOM      7  O   UNL     1      -4.199  15.714  22.566  0.00  0.00    +0.000 OA
ATOM      8  C   UNL     1      -3.204  13.957  21.287  0.00  0.00    +0.000 A 
ATOM      9  C   UNL     1      -3.503  12.993  20.384  0.00  0.00    +0.000 A 
ATOM     10  N   UNL     1      -2.530  12.287  19.699  0.00  0.00    +0.000 NA
ATOM     11  C   UNL     1      -1.280  12.612  19.879  0.00  0.00    +0.000 A 
ATOM     12  C   UNL     1      -0.863  13.782  20.753  0.00  0.00    +0.000 A 
ATOM     13  O   UNL     1       0.285  14.199  20.688  0.00  0.00    +0.000 OA
ATOM     14  N   UNL     1      -1.873  14.318  21.546  0.00  0.00    +0.000 N 
ENDROOT
BRANCH   1  15
ATOM     15  C   UNL     1      -5.158  11.662  19.074  0.00  0.00    +0.000 C 
BRANCH  15  17
ATOM     16  C   UNL     1      -4.663  11.507  16.610  0.00  0.00    +0.000 C 
ATOM     17  C   UNL     1      -5.343  12.348  17.695  0.00  0.00    +0.000 C 
ATOM     18  C   UNL     1      -6.806  12.569  17.291  0.00  0.00    +0.000 C 
ENDBRANCH  15  17
ENDBRANCH   1  15
BRANCH  11  19
ATOM     19  C   UNL     1      -0.166  11.811  19.223  0.00  0.00    +0.000 C 
BRANCH  19  20
ATOM     20  C   UNL     1       0.183  10.534  19.976  0.00  0.00    +0.000 A 
ATOM     21  C   UNL     1      -0.322  10.404  21.285  0.00  0.00    +0.000 A 
ATOM     22  C   UNL     1      -0.009   9.299  22.069  0.00  0.00    +0.000 A 
ATOM     23  C   UNL     1       0.832   8.310  21.571  0.00  0.00    +0.000 A 
ATOM     24  C   UNL     1       1.342   8.390  20.269  0.00  0.00    +0.000 A 
ATOM     25  C   UNL     1       2.181   7.368  19.792  0.00  0.00    +0.000 A 
ATOM     26  C   UNL     1       2.688   7.399  18.496  0.00  0.00    +0.000 A 
ATOM     27  C   UNL     1       2.343   8.446  17.657  0.00  0.00    +0.000 A 
ATOM     28  C   UNL     1       1.506   9.467  18.119  0.00  0.00    +0.000 A 
ATOM     29  C   UNL     1       1.004   9.494  19.440  0.00  0.00    +0.000 A 
ENDBRANCH  19  20
ENDBRANCH  11  19
BRANCH  14  30
ATOM     30  C   UNL     1      -1.465  15.295  22.565  0.00  0.00    +0.000 C 
BRANCH  30  31
ATOM     31  C   UNL     1      -1.129  14.648  23.917  0.00  0.00    +0.000 C 
BRANCH  31  32
ATOM     32  C   UNL     1      -1.419  15.543  25.125  0.00  0.00    +0.000 C 
BRANCH  32  33
ATOM     33  C   UNL     1      -2.762  15.266  25.790  0.00  0.00    +0.000 C 
BRANCH  33  34
ATOM     34  O   UNL     1      -3.408  14.185  25.131  0.00  0.00    +0.000 OA
ATOM     35  H   UNL     1      -2.797  13.428  25.143  0.00  0.00    +0.000 HD
ENDBRANCH  33  34
ENDBRANCH  32  33
ENDBRANCH  31  32
ENDBRANCH  30  31
ENDBRANCH  14  30
TORSDOF 9
ENDMDL
MODEL 9
REMARK VINA RESULT:      -6.5      2.409      7.004
REMARK  Name = 
REMARK  12 active torsions:
REMARK  status: ('A' for Active; 'I' for Inactive)
REMARK    1  A    between atoms: C_1  and  C_2
REMARK    2  A    between atoms: C_2  and  C_3
REMARK    3  A    between atoms: C_2  and  C_4
REMARK    4  A    between atoms: C_4  and  N_5
REMARK    5  A    between atoms: N_8  and  C_9
REMARK    6  A    between atoms: C_15  and  C_16
REMARK    7  A    between atoms: C_16  and  C_17
REMARK    8  A    between atoms: N_29  and  C_30
REMARK    9  A    between atoms: C_30  and  C_31
REMARK   10  A    between atoms: C_31  and  C_32
REMARK   11  A    between atoms: C_32  and  C_33
REMARK   12  A    between atoms: C_33  and  O_34
REMARK                            x       y       z     vdW  Elec       q    Type
REMARK                         _______ _______ _______ _____ _____    ______ ____
ROOT
ATOM      1  N   UNL     1      -4.097  12.003  18.621  0.00  0.00    +0.000 N 
ATOM      2  C   UNL     1      -3.943  11.509  17.331  0.00  0.00    +0.000 A 
ATOM      3  O   UNL     1      -4.813  11.641  16.467  0.00  0.00    +0.000 OA
ATOM      4  N   UNL     1      -2.778  10.816  17.084  0.00  0.00    +0.000 N 
ATOM      5  C   UNL     1      -2.686  10.056  15.848  0.00  0.00    +0.000 C 
ATOM      6  C   UNL     1      -1.729  10.728  17.975  0.00  0.00    +0.000 A 
ATOM      7  O   UNL     1      -0.760  10.002  17.756  0.00  0.00    +0.000 OA
ATOM      8  C   UNL     1      -1.836  11.537  19.240  0.00  0.00    +0.000 A 
ATOM      9  C   UNL     1      -3.044  12.080  19.521  0.00  0.00    +0.000 A 
ATOM     10  N   UNL     1      -3.282  12.813  20.671  0.00  0.00    +0.000 NA
ATOM     11  C   UNL     1      -2.324  12.924  21.549  0.00  0.00    +0.000 A 
ATOM     12  C   UNL     1      -0.989  12.217  21.389  0.00  0.00    +0.000 A 
ATOM     13  O   UNL     1      -0.231  12.144  22.345  0.00  0.00    +0.000 OA
ATOM     14  N   UNL     1      -0.762  11.659  20.134  0.00  0.00    +0.000 N 
ENDROOT
BRANCH   1  15
ATOM     15  C   UNL     1      -5.451  12.458  18.980  0.00  0.00    +0.000 C 
BRANCH  15  17
ATOM     16  C   UNL     1      -7.342  12.182  20.620  0.00  0.00    +0.000 C 
ATOM     17  C   UNL     1      -6.232  11.447  19.861  0.00  0.00    +0.000 C 
ATOM     18  C   UNL     1      -6.864  10.288  19.081  0.00  0.00    +0.000 C 
ENDBRANCH  15  17
ENDBRANCH   1  15
BRANCH  11  19
ATOM     19  C   UNL     1      -2.500  13.791  22.786  0.00  0.00    +0.000 C 
BRANCH  19  20
ATOM     20  C   UNL     1      -3.747  14.665  22.737  0.00  0.00    +0.000 A 
ATOM     21  C   UNL     1      -3.601  15.960  22.203  0.00  0.00    +0.000 A 
ATOM     22  C   UNL     1      -4.671  16.848  22.171  0.00  0.00    +0.000 A 
ATOM     23  C   UNL     1      -5.904  16.469  22.690  0.00  0.00    +0.000 A 
ATOM     24  C   UNL     1      -6.098  15.185  23.214  0.00  0.00    +0.000 A 
ATOM     25  C   UNL     1      -7.360  14.830  23.722  0.00  0.00    +0.000 A 
ATOM     26  C   UNL     1      -7.599  13.555  24.229  0.00  0.00    +0.000 A 
ATOM     27  C   UNL     1      -6.580  12.617  24.215  0.00  0.00    +0.000 A 
ATOM     28  C   UNL     1      -5.321  12.957  23.709  0.00  0.00    +0.000 A 
ATOM     29  C   UNL     1      -5.026  14.251  23.223  0.00  0.00    +0.000 A 
ENDBRANCH  19  20
ENDBRANCH  11  19
BRANCH  14  30
ATOM     30  C   UNL     1       0.597  11.167  19.866  0.00  0.00    +0.000 C 
BRANCH  30  31
ATOM     31  C   UNL     1       1.465  12.185  19.110  0.00  0.00    +0.000 C 
BRANCH  31  32
ATOM     32  C   UNL     1       2.187  13.184  20.018  0.00  0.00    +0.000 C 
BRANCH  32  33
ATOM     33  C   UNL     1       2.355  14.568  19.404  0.00  0.00    +0.000 C 
BRANCH  33  34
ATOM     34  O   UNL     1       1.330  15.431  19.881  0.00  0.00    +0.000 OA
ATOM     35  H   UNL     1       1.711  16.323  19.959  0.00  0.00    +0.000 HD
ENDBRANCH  33  34
ENDBRANCH  32  33
ENDBRANCH  31  32
ENDBRANCH  30  31
ENDBRANCH  14  30
TORSDOF 9
ENDMDL
