MODEL 1
REMARK VINA RESULT:      -7.7      0.000      0.000
REMARK  Name = 
REMARK  4 active torsions:
REMARK  status: ('A' for Active; 'I' for Inactive)
REMARK    1  A    between atoms: N_3  and  C_4
REMARK    2  A    between atoms: N_13  and  C_14
REMARK    3  A    between atoms: C_14  and  C_15
REMARK    4  A    between atoms: C_15  and  C_16
REMARK                            x       y       z     vdW  Elec       q    Type
REMARK                         _______ _______ _______ _____ _____    ______ ____
ROOT
ATOM      1  O   UNL     1       6.059   4.998  19.843  0.00  0.00    +0.000 OA
ATOM      2  C   UNL     1       5.176   4.975  18.996  0.00  0.00    +0.000 C 
ATOM      3  N   UNL     1       3.887   4.597  19.256  0.00  0.00    +0.000 N 
ATOM      4  N   UNL     1       5.350   5.359  17.674  0.00  0.00    +0.000 N 
ATOM      5  C   UNL     1       6.648   5.906  17.275  0.00  0.00    +0.000 C 
ATOM      6  C   UNL     1       7.492   4.841  16.545  0.00  0.00    +0.000 C 
ATOM      7  N   UNL     1       6.801   4.205  15.392  0.00  0.00    +0.000 NA
ATOM      8  C   UNL     1       5.512   3.651  15.886  0.00  0.00    +0.000 C 
ATOM      9  C   UNL     1       4.614   4.698  16.584  0.00  0.00    +0.000 C 
ATOM     10  H   UNL     1       3.214   5.089  18.691  0.00  0.00    +0.000 HD
ENDROOT
BRANCH   3  11
ATOM     11  C   UNL     1       3.427   4.074  20.531  0.00  0.00    +0.000 C 
ATOM     12  C   UNL     1       2.120   4.775  20.916  0.00  0.00    +0.000 C 
ATOM     13  C   UNL     1       0.971   4.410  19.972  0.00  0.00    +0.000 C 
ATOM     14  C   UNL     1       0.767   2.899  19.902  0.00  0.00    +0.000 C 
ATOM     15  C   UNL     1       2.055   2.161  19.547  0.00  0.00    +0.000 C 
ATOM     16  C   UNL     1       3.223   2.554  20.455  0.00  0.00    +0.000 C 
ENDBRANCH   3  11
BRANCH   7  17
ATOM     17  C   UNL     1       6.541   5.139  14.278  0.00  0.00    +0.000 C 
BRANCH  17  18
ATOM     18  C   UNL     1       7.356   4.878  13.006  0.00  0.00    +0.000 C 
BRANCH  18  19
ATOM     19  C   UNL     1       6.768   3.705  12.256  0.00  0.00    +0.000 A 
ATOM     20  C   UNL     1       5.378   3.551  12.163  0.00  0.00    +0.000 A 
ATOM     21  C   UNL     1       4.834   2.435  11.527  0.00  0.00    +0.000 A 
ATOM     22  C   UNL     1       5.674   1.467  10.986  0.00  0.00    +0.000 A 
ATOM     23  C   UNL     1       7.058   1.608  11.078  0.00  0.00    +0.000 A 
ATOM     24  C   UNL     1       7.604   2.722  11.713  0.00  0.00    +0.000 A 
ENDBRANCH  18  19
ENDBRANCH  17  18
ENDBRANCH   7  17
TORSDOF 4
ENDMDL
MODEL 2
REMARK VINA RESULT:      -7.5      3.805      6.498
REMARK  Name = 
REMARK  4 active torsions:
REMARK  status: ('A' for Active; 'I' for Inactive)
REMARK    1  A    between atoms: N_3  and  C_4
REMARK    2  A    between atoms: N_13  and  C_14
REMARK    3  A    between atoms: C_14  and  C_15
REMARK    4  A    between atoms: C_15  and  C_16
REMARK                            x       y       z     vdW  Elec       q    Type
REMARK                         _______ _______ _______ _____ _____    ______ ____
ROOT
ATOM      1  O   UNL     1       5.523   3.205  19.215  0.00  0.00    +0.000 OA
ATOM      2  C   UNL     1       4.875   4.211  18.961  0.00  0.00    +0.000 C 
ATOM      3  N   UNL     1       3.523   4.208  18.749  0.00  0.00    +0.000 N 
ATOM      4  N   UNL     1       5.412   5.489  18.885  0.00  0.00    +0.000 N 
ATOM      5  C   UNL     1       6.828   5.667  19.210  0.00  0.00    +0.000 C 
ATOM      6  C   UNL     1       7.676   5.785  17.927  0.00  0.00    +0.000 C 
ATOM      7  N   UNL     1       7.205   6.835  16.984  0.00  0.00    +0.000 NA
ATOM      8  C   UNL     1       5.775   6.565  16.683  0.00  0.00    +0.000 C 
ATOM      9  C   UNL     1       4.881   6.485  17.942  0.00  0.00    +0.000 C 
ATOM     10  H   UNL     1       3.077   5.056  19.062  0.00  0.00    +0.000 HD
ENDROOT
BRANCH   3  11
ATOM     11  C   UNL     1       2.705   3.010  18.691  0.00  0.00    +0.000 C 
ATOM     12  C   UNL     1       3.087   2.088  19.855  0.00  0.00    +0.000 C 
ATOM     13  C   UNL     1       2.708   2.686  21.212  0.00  0.00    +0.000 C 
ATOM     14  C   UNL     1       1.223   3.034  21.272  0.00  0.00    +0.000 C 
ATOM     15  C   UNL     1       0.796   3.931  20.112  0.00  0.00    +0.000 C 
ATOM     16  C   UNL     1       1.212   3.365  18.752  0.00  0.00    +0.000 C 
ENDBRANCH   3  11
BRANCH   7  17
ATOM     17  C   UNL     1       7.347   8.205  17.517  0.00  0.00    +0.000 C 
BRANCH  17  18
ATOM     18  C   UNL     1       8.512   8.407  18.494  0.00  0.00    +0.000 C 
BRANCH  18  19
ATOM     19  C   UNL     1       8.812   9.882  18.631  0.00  0.00    +0.000 A 
ATOM     20  C   UNL     1       8.357  10.788  17.663  0.00  0.00    +0.000 A 
ATOM     21  C   UNL     1       8.687  12.140  17.753  0.00  0.00    +0.000 A 
ATOM     22  C   UNL     1       9.476  12.592  18.806  0.00  0.00    +0.000 A 
ATOM     23  C   UNL     1       9.939  11.698  19.771  0.00  0.00    +0.000 A 
ATOM     24  C   UNL     1       9.609  10.347  19.683  0.00  0.00    +0.000 A 
ENDBRANCH  18  19
ENDBRANCH  17  18
ENDBRANCH   7  17
TORSDOF 4
ENDMDL
MODEL 3
REMARK VINA RESULT:      -7.5      0.276      1.045
REMARK  Name = 
REMARK  4 active torsions:
REMARK  status: ('A' for Active; 'I' for Inactive)
REMARK    1  A    between atoms: N_3  and  C_4
REMARK    2  A    between atoms: N_13  and  C_14
REMARK    3  A    between atoms: C_14  and  C_15
REMARK    4  A    between atoms: C_15  and  C_16
REMARK                            x       y       z     vdW  Elec       q    Type
REMARK                         _______ _______ _______ _____ _____    ______ ____
ROOT
ATOM      1  O   UNL     1       5.841   5.489  19.692  0.00  0.00    +0.000 OA
ATOM      2  C   UNL     1       5.053   5.160  18.815  0.00  0.00    +0.000 C 
ATOM      3  N   UNL     1       3.891   4.478  19.058  0.00  0.00    +0.000 N 
ATOM      4  N   UNL     1       5.210   5.459  17.469  0.00  0.00    +0.000 N 
ATOM      5  C   UNL     1       6.347   6.291  17.072  0.00  0.00    +0.000 C 
ATOM      6  C   UNL     1       7.485   5.427  16.491  0.00  0.00    +0.000 C 
ATOM      7  N   UNL     1       7.061   4.533  15.381  0.00  0.00    +0.000 NA
ATOM      8  C   UNL     1       5.929   3.704  15.874  0.00  0.00    +0.000 C 
ATOM      9  C   UNL     1       4.746   4.534  16.423  0.00  0.00    +0.000 C 
ATOM     10  H   UNL     1       3.154   4.725  18.418  0.00  0.00    +0.000 HD
ENDROOT
BRANCH   3  11
ATOM     11  C   UNL     1       3.497   3.967  20.359  0.00  0.00    +0.000 C 
ATOM     12  C   UNL     1       2.255   4.725  20.839  0.00  0.00    +0.000 C 
ATOM     13  C   UNL     1       1.027   4.423  19.976  0.00  0.00    +0.000 C 
ATOM     14  C   UNL     1       0.746   2.925  19.912  0.00  0.00    +0.000 C 
ATOM     15  C   UNL     1       1.970   2.129  19.463  0.00  0.00    +0.000 C 
ATOM     16  C   UNL     1       3.216   2.459  20.290  0.00  0.00    +0.000 C 
ENDBRANCH   3  11
BRANCH   7  17
ATOM     17  C   UNL     1       6.644   5.264  14.167  0.00  0.00    +0.000 C 
BRANCH  17  18
ATOM     18  C   UNL     1       7.414   4.901  12.892  0.00  0.00    +0.000 C 
BRANCH  18  19
ATOM     19  C   UNL     1       6.801   3.673  12.259  0.00  0.00    +0.000 A 
ATOM     20  C   UNL     1       7.620   2.692  11.682  0.00  0.00    +0.000 A 
ATOM     21  C   UNL     1       7.054   1.590  11.042  0.00  0.00    +0.000 A 
ATOM     22  C   UNL     1       5.670   1.464  10.971  0.00  0.00    +0.000 A 
ATOM     23  C   UNL     1       4.847   2.438  11.537  0.00  0.00    +0.000 A 
ATOM     24  C   UNL     1       5.411   3.539  12.177  0.00  0.00    +0.000 A 
ENDBRANCH  18  19
ENDBRANCH  17  18
ENDBRANCH   7  17
TORSDOF 4
ENDMDL
MODEL 4
REMARK VINA RESULT:      -7.5      3.907      6.614
REMARK  Name = 
REMARK  4 active torsions:
REMARK  status: ('A' for Active; 'I' for Inactive)
REMARK    1  A    between atoms: N_3  and  C_4
REMARK    2  A    between atoms: N_13  and  C_14
REMARK    3  A    between atoms: C_14  and  C_15
REMARK    4  A    between atoms: C_15  and  C_16
REMARK                            x       y       z     vdW  Elec       q    Type
REMARK                         _______ _______ _______ _____ _____    ______ ____
ROOT
ATOM      1  O   UNL     1       5.606   3.232  19.124  0.00  0.00    +0.000 OA
ATOM      2  C   UNL     1       4.950   4.251  18.954  0.00  0.00    +0.000 C 
ATOM      3  N   UNL     1       3.589   4.259  18.800  0.00  0.00    +0.000 N 
ATOM      4  N   UNL     1       5.485   5.531  18.927  0.00  0.00    +0.000 N 
ATOM      5  C   UNL     1       6.914   5.691  19.200  0.00  0.00    +0.000 C 
ATOM      6  C   UNL     1       7.706   5.881  17.890  0.00  0.00    +0.000 C 
ATOM      7  N   UNL     1       7.198   6.981  17.028  0.00  0.00    +0.000 NA
ATOM      8  C   UNL     1       5.755   6.728  16.774  0.00  0.00    +0.000 C 
ATOM      9  C   UNL     1       4.915   6.577  18.063  0.00  0.00    +0.000 C 
ATOM     10  H   UNL     1       3.160   5.087  19.179  0.00  0.00    +0.000 HD
ENDROOT
BRANCH   3  11
ATOM     11  C   UNL     1       2.768   3.064  18.712  0.00  0.00    +0.000 C 
ATOM     12  C   UNL     1       3.119   2.129  19.875  0.00  0.00    +0.000 C 
ATOM     13  C   UNL     1       2.711   2.716  21.228  0.00  0.00    +0.000 C 
ATOM     14  C   UNL     1       1.226   3.070  21.257  0.00  0.00    +0.000 C 
ATOM     15  C   UNL     1       0.830   3.981  20.097  0.00  0.00    +0.000 C 
ATOM     16  C   UNL     1       1.276   3.426  18.741  0.00  0.00    +0.000 C 
ENDBRANCH   3  11
BRANCH   7  17
ATOM     17  C   UNL     1       7.365   8.320  17.629  0.00  0.00    +0.000 C 
BRANCH  17  18
ATOM     18  C   UNL     1       8.623   8.496  18.488  0.00  0.00    +0.000 C 
BRANCH  18  19
ATOM     19  C   UNL     1       8.906   9.968  18.680  0.00  0.00    +0.000 A 
ATOM     20  C   UNL     1       9.423  10.436  19.896  0.00  0.00    +0.000 A 
ATOM     21  C   UNL     1       9.625  11.801  20.098  0.00  0.00    +0.000 A 
ATOM     22  C   UNL     1       9.309  12.705  19.088  0.00  0.00    +0.000 A 
ATOM     23  C   UNL     1       8.790  12.250  17.876  0.00  0.00    +0.000 A 
ATOM     24  C   UNL     1       8.587  10.887  17.674  0.00  0.00    +0.000 A 
ENDBRANCH  18  19
ENDBRANCH  17  18
ENDBRANCH   7  17
TORSDOF 4
ENDMDL
MODEL 5
REMARK VINA RESULT:      -7.1      1.547      7.409
REMARK  Name = 
REMARK  4 active torsions:
REMARK  status: ('A' for Active; 'I' for Inactive)
REMARK    1  A    between atoms: N_3  and  C_4
REMARK    2  A    between atoms: N_13  and  C_14
REMARK    3  A    between atoms: C_14  and  C_15
REMARK    4  A    between atoms: C_15  and  C_16
REMARK                            x       y       z     vdW  Elec       q    Type
REMARK                         _______ _______ _______ _____ _____    ______ ____
ROOT
ATOM      1  O   UNL     1       7.933   5.351  14.177  0.00  0.00    +0.000 OA
ATOM      2  C   UNL     1       6.978   4.643  14.471  0.00  0.00    +0.000 C 
ATOM      3  N   UNL     1       6.205   3.992  13.549  0.00  0.00    +0.000 N 
ATOM      4  N   UNL     1       6.572   4.379  15.772  0.00  0.00    +0.000 N 
ATOM      5  C   UNL     1       7.380   4.909  16.872  0.00  0.00    +0.000 C 
ATOM      6  C   UNL     1       6.733   6.176  17.468  0.00  0.00    +0.000 C 
ATOM      7  N   UNL     1       5.315   5.996  17.880  0.00  0.00    +0.000 NA
ATOM      8  C   UNL     1       4.561   5.488  16.704  0.00  0.00    +0.000 C 
ATOM      9  C   UNL     1       5.151   4.191  16.104  0.00  0.00    +0.000 C 
ATOM     10  H   UNL     1       5.849   3.113  13.889  0.00  0.00    +0.000 HD
ENDROOT
BRANCH   3  11
ATOM     11  C   UNL     1       6.346   4.139  12.111  0.00  0.00    +0.000 C 
ATOM     12  C   UNL     1       7.286   3.048  11.587  0.00  0.00    +0.000 C 
ATOM     13  C   UNL     1       6.676   1.650  11.721  0.00  0.00    +0.000 C 
ATOM     14  C   UNL     1       5.320   1.564  11.027  0.00  0.00    +0.000 C 
ATOM     15  C   UNL     1       4.361   2.654  11.503  0.00  0.00    +0.000 C 
ATOM     16  C   UNL     1       4.979   4.053  11.417  0.00  0.00    +0.000 C 
ENDBRANCH   3  11
BRANCH   7  17
ATOM     17  C   UNL     1       5.149   5.062  19.013  0.00  0.00    +0.000 C 
BRANCH  17  18
ATOM     18  C   UNL     1       3.882   5.273  19.850  0.00  0.00    +0.000 C 
BRANCH  18  19
ATOM     19  C   UNL     1       2.933   4.116  19.635  0.00  0.00    +0.000 A 
ATOM     20  C   UNL     1       3.402   2.906  19.105  0.00  0.00    +0.000 A 
ATOM     21  C   UNL     1       2.517   1.860  18.846  0.00  0.00    +0.000 A 
ATOM     22  C   UNL     1       1.160   2.018  19.111  0.00  0.00    +0.000 A 
ATOM     23  C   UNL     1       0.682   3.220  19.633  0.00  0.00    +0.000 A 
ATOM     24  C   UNL     1       1.565   4.266  19.892  0.00  0.00    +0.000 A 
ENDBRANCH  18  19
ENDBRANCH  17  18
ENDBRANCH   7  17
TORSDOF 4
ENDMDL
MODEL 6
REMARK VINA RESULT:      -7.1      1.555      7.355
REMARK  Name = 
REMARK  4 active torsions:
REMARK  status: ('A' for Active; 'I' for Inactive)
REMARK    1  A    between atoms: N_3  and  C_4
REMARK    2  A    between atoms: N_13  and  C_14
REMARK    3  A    between atoms: C_14  and  C_15
REMARK    4  A    between atoms: C_15  and  C_16
REMARK                            x       y       z     vdW  Elec       q    Type
REMARK                         _______ _______ _______ _____ _____    ______ ____
ROOT
ATOM      1  O   UNL     1       7.987   5.301  14.208  0.00  0.00    +0.000 OA
ATOM      2  C   UNL     1       7.000   4.635  14.493  0.00  0.00    +0.000 C 
ATOM      3  N   UNL     1       6.207   4.019  13.562  0.00  0.00    +0.000 N 
ATOM      4  N   UNL     1       6.571   4.386  15.789  0.00  0.00    +0.000 N 
ATOM      5  C   UNL     1       7.391   4.878  16.897  0.00  0.00    +0.000 C 
ATOM      6  C   UNL     1       6.794   6.171  17.490  0.00  0.00    +0.000 C 
ATOM      7  N   UNL     1       5.366   6.052  17.890  0.00  0.00    +0.000 NA
ATOM      8  C   UNL     1       4.602   5.579  16.706  0.00  0.00    +0.000 C 
ATOM      9  C   UNL     1       5.140   4.259  16.108  0.00  0.00    +0.000 C 
ATOM     10  H   UNL     1       5.811   3.157  13.897  0.00  0.00    +0.000 HD
ENDROOT
BRANCH   3  11
ATOM     11  C   UNL     1       6.368   4.163  12.125  0.00  0.00    +0.000 C 
ATOM     12  C   UNL     1       7.294   3.055  11.613  0.00  0.00    +0.000 C 
ATOM     13  C   UNL     1       6.658   1.668  11.741  0.00  0.00    +0.000 C 
ATOM     14  C   UNL     1       5.309   1.606  11.031  0.00  0.00    +0.000 C 
ATOM     15  C   UNL     1       4.364   2.713  11.495  0.00  0.00    +0.000 C 
ATOM     16  C   UNL     1       5.007   4.101  11.416  0.00  0.00    +0.000 C 
ENDBRANCH   3  11
BRANCH   7  17
ATOM     17  C   UNL     1       5.150   5.125  19.019  0.00  0.00    +0.000 C 
BRANCH  17  18
ATOM     18  C   UNL     1       3.856   5.353  19.810  0.00  0.00    +0.000 C 
BRANCH  18  19
ATOM     19  C   UNL     1       2.907   4.200  19.577  0.00  0.00    +0.000 A 
ATOM     20  C   UNL     1       1.577   4.280  20.012  0.00  0.00    +0.000 A 
ATOM     21  C   UNL     1       0.717   3.193  19.855  0.00  0.00    +0.000 A 
ATOM     22  C   UNL     1       1.182   2.021  19.267  0.00  0.00    +0.000 A 
ATOM     23  C   UNL     1       2.505   1.929  18.835  0.00  0.00    +0.000 A 
ATOM     24  C   UNL     1       3.365   3.014  18.992  0.00  0.00    +0.000 A 
ENDBRANCH  18  19
ENDBRANCH  17  18
ENDBRANCH   7  17
TORSDOF 4
ENDMDL
MODEL 7
REMARK VINA RESULT:      -6.9      1.606      2.437
REMARK  Name = 
REMARK  4 active torsions:
REMARK  status: ('A' for Active; 'I' for Inactive)
REMARK    1  A    between atoms: N_3  and  C_4
REMARK    2  A    between atoms: N_13  and  C_14
REMARK    3  A    between atoms: C_14  and  C_15
REMARK    4  A    between atoms: C_15  and  C_16
REMARK                            x       y       z     vdW  Elec       q    Type
REMARK                         _______ _______ _______ _____ _____    ______ ____
ROOT
ATOM      1  O   UNL     1       2.604   6.741  18.419  0.00  0.00    +0.000 OA
ATOM      2  C   UNL     1       2.920   5.590  18.148  0.00  0.00    +0.000 C 
ATOM      3  N   UNL     1       2.222   4.492  18.574  0.00  0.00    +0.000 N 
ATOM      4  N   UNL     1       4.003   5.243  17.352  0.00  0.00    +0.000 N 
ATOM      5  C   UNL     1       4.774   6.317  16.723  0.00  0.00    +0.000 C 
ATOM      6  C   UNL     1       6.079   6.584  17.500  0.00  0.00    +0.000 C 
ATOM      7  N   UNL     1       6.918   5.373  17.710  0.00  0.00    +0.000 NA
ATOM      8  C   UNL     1       6.074   4.347  18.377  0.00  0.00    +0.000 C 
ATOM      9  C   UNL     1       4.775   4.017  17.607  0.00  0.00    +0.000 C 
ATOM     10  H   UNL     1       2.250   3.733  17.912  0.00  0.00    +0.000 HD
ENDROOT
BRANCH   3  11
ATOM     11  C   UNL     1       1.089   4.542  19.481  0.00  0.00    +0.000 C 
ATOM     12  C   UNL     1       0.506   3.133  19.630  0.00  0.00    +0.000 C 
ATOM     13  C   UNL     1       1.469   2.185  20.351  0.00  0.00    +0.000 C 
ATOM     14  C   UNL     1       1.882   2.739  21.711  0.00  0.00    +0.000 C 
ATOM     15  C   UNL     1       2.444   4.156  21.608  0.00  0.00    +0.000 C 
ATOM     16  C   UNL     1       1.510   5.101  20.848  0.00  0.00    +0.000 C 
ENDBRANCH   3  11
BRANCH   7  17
ATOM     17  C   UNL     1       7.469   4.818  16.457  0.00  0.00    +0.000 C 
BRANCH  17  18
ATOM     18  C   UNL     1       7.366   5.741  15.236  0.00  0.00    +0.000 C 
BRANCH  18  19
ATOM     19  C   UNL     1       6.934   4.940  14.029  0.00  0.00    +0.000 A 
ATOM     20  C   UNL     1       5.774   4.154  14.080  0.00  0.00    +0.000 A 
ATOM     21  C   UNL     1       5.409   3.365  12.990  0.00  0.00    +0.000 A 
ATOM     22  C   UNL     1       6.201   3.354  11.846  0.00  0.00    +0.000 A 
ATOM     23  C   UNL     1       7.360   4.127  11.787  0.00  0.00    +0.000 A 
ATOM     24  C   UNL     1       7.726   4.916  12.875  0.00  0.00    +0.000 A 
ENDBRANCH  18  19
ENDBRANCH  17  18
ENDBRANCH   7  17
TORSDOF 4
ENDMDL
MODEL 8
REMARK VINA RESULT:      -6.8      3.644      6.641
REMARK  Name = 
REMARK  4 active torsions:
REMARK  status: ('A' for Active; 'I' for Inactive)
REMARK    1  A    between atoms: N_3  and  C_4
REMARK    2  A    between atoms: N_13  and  C_14
REMARK    3  A    between atoms: C_14  and  C_15
REMARK    4  A    between atoms: C_15  and  C_16
REMARK                            x       y       z     vdW  Elec       q    Type
REMARK                         _______ _______ _______ _____ _____    ______ ____
ROOT
ATOM      1  O   UNL     1       5.250   3.161  17.394  0.00  0.00    +0.000 OA
ATOM      2  C   UNL     1       4.995   4.135  18.089  0.00  0.00    +0.000 C 
ATOM      3  N   UNL     1       3.789   4.328  18.709  0.00  0.00    +0.000 N 
ATOM      4  N   UNL     1       5.894   5.153  18.371  0.00  0.00    +0.000 N 
ATOM      5  C   UNL     1       7.266   5.023  17.877  0.00  0.00    +0.000 C 
ATOM      6  C   UNL     1       7.478   5.877  16.610  0.00  0.00    +0.000 C 
ATOM      7  N   UNL     1       7.099   7.306  16.772  0.00  0.00    +0.000 NA
ATOM      8  C   UNL     1       5.690   7.351  17.244  0.00  0.00    +0.000 C 
ATOM      9  C   UNL     1       5.445   6.544  18.540  0.00  0.00    +0.000 C 
ATOM     10  H   UNL     1       3.876   4.814  19.587  0.00  0.00    +0.000 HD
ENDROOT
BRANCH   3  11
ATOM     11  C   UNL     1       2.632   3.468  18.537  0.00  0.00    +0.000 C 
ATOM     12  C   UNL     1       2.800   2.223  19.417  0.00  0.00    +0.000 C 
ATOM     13  C   UNL     1       2.745   2.562  20.908  0.00  0.00    +0.000 C 
ATOM     14  C   UNL     1       1.458   3.299  21.266  0.00  0.00    +0.000 C 
ATOM     15  C   UNL     1       1.240   4.533  20.392  0.00  0.00    +0.000 C 
ATOM     16  C   UNL     1       1.340   4.214  18.897  0.00  0.00    +0.000 C 
ENDBRANCH   3  11
BRANCH   7  17
ATOM     17  C   UNL     1       7.962   8.035  17.724  0.00  0.00    +0.000 C 
BRANCH  17  18
ATOM     18  C   UNL     1       7.726   9.549  17.788  0.00  0.00    +0.000 C 
BRANCH  18  19
ATOM     19  C   UNL     1       8.930  10.226  18.401  0.00  0.00    +0.000 A 
ATOM     20  C   UNL     1       9.099  10.243  19.793  0.00  0.00    +0.000 A 
ATOM     21  C   UNL     1      10.175  10.922  20.364  0.00  0.00    +0.000 A 
ATOM     22  C   UNL     1      11.085  11.590  19.549  0.00  0.00    +0.000 A 
ATOM     23  C   UNL     1      10.922  11.584  18.164  0.00  0.00    +0.000 A 
ATOM     24  C   UNL     1       9.848  10.906  17.592  0.00  0.00    +0.000 A 
ENDBRANCH  18  19
ENDBRANCH  17  18
ENDBRANCH   7  17
TORSDOF 4
ENDMDL
MODEL 9
REMARK VINA RESULT:      -6.8      1.549      7.655
REMARK  Name = 
REMARK  4 active torsions:
REMARK  status: ('A' for Active; 'I' for Inactive)
REMARK    1  A    between atoms: N_3  and  C_4
REMARK    2  A    between atoms: N_13  and  C_14
REMARK    3  A    between atoms: C_14  and  C_15
REMARK    4  A    between atoms: C_15  and  C_16
REMARK                            x       y       z     vdW  Elec       q    Type
REMARK                         _______ _______ _______ _____ _____    ______ ____
ROOT
ATOM      1  O   UNL     1       7.948   5.384  14.234  0.00  0.00    +0.000 OA
ATOM      2  C   UNL     1       7.083   4.563  14.507  0.00  0.00    +0.000 C 
ATOM      3  N   UNL     1       6.399   3.842  13.565  0.00  0.00    +0.000 N 
ATOM      4  N   UNL     1       6.703   4.226  15.798  0.00  0.00    +0.000 N 
ATOM      5  C   UNL     1       7.434   4.827  16.916  0.00  0.00    +0.000 C 
ATOM      6  C   UNL     1       6.636   5.996  17.529  0.00  0.00    +0.000 C 
ATOM      7  N   UNL     1       5.247   5.641  17.926  0.00  0.00    +0.000 NA
ATOM      8  C   UNL     1       4.568   5.069  16.733  0.00  0.00    +0.000 C 
ATOM      9  C   UNL     1       5.312   3.864  16.114  0.00  0.00    +0.000 C 
ATOM     10  H   UNL     1       6.148   2.921  13.886  0.00  0.00    +0.000 HD
ENDROOT
BRANCH   3  11
ATOM     11  C   UNL     1       6.531   4.033  12.132  0.00  0.00    +0.000 C 
ATOM     12  C   UNL     1       7.288   2.840  11.536  0.00  0.00    +0.000 C 
ATOM     13  C   UNL     1       6.480   1.543  11.627  0.00  0.00    +0.000 C 
ATOM     14  C   UNL     1       5.112   1.691  10.967  0.00  0.00    +0.000 C 
ATOM     15  C   UNL     1       4.336   2.887  11.515  0.00  0.00    +0.000 C 
ATOM     16  C   UNL     1       5.153   4.182  11.473  0.00  0.00    +0.000 C 
ENDBRANCH   3  11
BRANCH   7  17
ATOM     17  C   UNL     1       5.187   4.672  19.039  0.00  0.00    +0.000 C 
BRANCH  17  18
ATOM     18  C   UNL     1       4.457   3.361  18.722  0.00  0.00    +0.000 C 
BRANCH  18  19
ATOM     19  C   UNL     1       3.254   3.217  19.625  0.00  0.00    +0.000 A 
ATOM     20  C   UNL     1       2.018   3.763  19.249  0.00  0.00    +0.000 A 
ATOM     21  C   UNL     1       0.923   3.687  20.109  0.00  0.00    +0.000 A 
ATOM     22  C   UNL     1       1.057   3.071  21.350  0.00  0.00    +0.000 A 
ATOM     23  C   UNL     1       2.283   2.531  21.736  0.00  0.00    +0.000 A 
ATOM     24  C   UNL     1       3.379   2.605  20.878  0.00  0.00    +0.000 A 
ENDBRANCH  18  19
ENDBRANCH  17  18
ENDBRANCH   7  17
TORSDOF 4
ENDMDL
