MODEL 1
REMARK VINA RESULT:      -9.4      0.000      0.000
REMARK  Name = 
REMARK  3 active torsions:
REMARK  status: ('A' for Active; 'I' for Inactive)
REMARK    1  A    between atoms: C_1  and  N_2
REMARK    2  A    between atoms: N_5  and  C_6
REMARK    3  A    between atoms: C_16  and  C_17
REMARK                            x       y       z     vdW  Elec       q    Type
REMARK                         _______ _______ _______ _____ _____    ______ ____
ROOT
ATOM      1  C   UNL     1      -1.464  12.048  22.799  0.00  0.00    +0.000 A 
ATOM      2  C   UNL     1      -0.444  12.245  21.879  0.00  0.00    +0.000 A 
ATOM      3  C   UNL     1       0.408  11.199  21.537  0.00  0.00    +0.000 A 
ATOM      4  C   UNL     1       0.225   9.933  22.082  0.00  0.00    +0.000 A 
ATOM      5  N   UNL     1       0.978   8.838  21.667  0.00  0.00    +0.000 N 
ATOM      6  C   UNL     1       1.461   8.580  20.387  0.00  0.00    +0.000 A 
ATOM      7  N   UNL     1       1.282   9.491  19.411  0.00  0.00    +0.000 NA
ATOM      8  C   UNL     1       1.757   9.219  18.187  0.00  0.00    +0.000 A 
ATOM      9  C   UNL     1       2.436   8.070  17.901  0.00  0.00    +0.000 A 
ATOM     10  F   UNL     1       2.919   7.860  16.670  0.00  0.00    +0.000 F 
ATOM     11  C   UNL     1       2.598   7.188  18.949  0.00  0.00    +0.000 A 
ATOM     12  N   UNL     1       2.086   7.414  20.185  0.00  0.00    +0.000 NA
ATOM     13  N   UNL     1      -0.706   9.715  23.028  0.00  0.00    +0.000 NA
ATOM     14  C   UNL     1      -1.519  10.760  23.347  0.00  0.00    +0.000 A 
ATOM     15  H   UNL     1       0.766   7.994  22.168  0.00  0.00    +0.000 HD
ENDROOT
BRANCH  11  16
ATOM     16  C   UNL     1       3.361   5.967  18.756  0.00  0.00    +0.000 A 
ATOM     17  C   UNL     1       4.748   5.766  18.934  0.00  0.00    +0.000 A 
ATOM     18  N   UNL     1       5.118   4.512  18.698  0.00  0.00    +0.000 NA
ATOM     19  N   UNL     1       3.972   3.895  18.351  0.00  0.00    +0.000 N 
ATOM     20  C   UNL     1       2.873   4.724  18.366  0.00  0.00    +0.000 A 
ATOM     21  C   UNL     1       1.506   4.283  17.952  0.00  0.00    +0.000 C 
ATOM     22  C   UNL     1       0.951   3.008  18.588  0.00  0.00    +0.000 C 
ATOM     23  C   UNL     1       1.918   2.099  19.331  0.00  0.00    +0.000 C 
ATOM     24  C   UNL     1       3.010   1.535  18.437  0.00  0.00    +0.000 C 
ATOM     25  C   UNL     1       4.061   2.517  17.921  0.00  0.00    +0.000 C 
ENDBRANCH  11  16
BRANCH   1  30
ATOM     26  C   UNL     1      -5.453  15.939  23.318  0.00  0.00    +0.000 C 
ATOM     27  N   UNL     1      -4.408  15.012  23.746  0.00  0.00    +0.000 NA
ATOM     28  C   UNL     1      -3.115  15.374  23.122  0.00  0.00    +0.000 C 
ATOM     29  C   UNL     1      -1.983  14.381  23.476  0.00  0.00    +0.000 C 
ATOM     30  N   UNL     1      -2.399  13.019  23.097  0.00  0.00    +0.000 N 
ATOM     31  C   UNL     1      -3.661  12.607  23.737  0.00  0.00    +0.000 C 
ATOM     32  C   UNL     1      -4.766  13.624  23.373  0.00  0.00    +0.000 C 
ENDBRANCH   1  30
TORSDOF 2
ENDMDL
MODEL 2
REMARK VINA RESULT:      -8.8      0.927      1.304
REMARK  Name = 
REMARK  3 active torsions:
REMARK  status: ('A' for Active; 'I' for Inactive)
REMARK    1  A    between atoms: C_1  and  N_2
REMARK    2  A    between atoms: N_5  and  C_6
REMARK    3  A    between atoms: C_16  and  C_17
REMARK                            x       y       z     vdW  Elec       q    Type
REMARK                         _______ _______ _______ _____ _____    ______ ____
ROOT
ATOM      1  C   UNL     1      -1.743  12.509  22.649  0.00  0.00    +0.000 A 
ATOM      2  C   UNL     1      -0.731  12.646  21.709  0.00  0.00    +0.000 A 
ATOM      3  C   UNL     1       0.137  11.590  21.451  0.00  0.00    +0.000 A 
ATOM      4  C   UNL     1      -0.021  10.371  22.102  0.00  0.00    +0.000 A 
ATOM      5  N   UNL     1       0.749   9.258  21.774  0.00  0.00    +0.000 N 
ATOM      6  C   UNL     1       1.230   8.902  20.517  0.00  0.00    +0.000 A 
ATOM      7  N   UNL     1       1.030   9.725  19.470  0.00  0.00    +0.000 NA
ATOM      8  C   UNL     1       1.504   9.360  18.270  0.00  0.00    +0.000 A 
ATOM      9  C   UNL     1       2.202   8.203  18.076  0.00  0.00    +0.000 A 
ATOM     10  F   UNL     1       2.682   7.899  16.865  0.00  0.00    +0.000 F 
ATOM     11  C   UNL     1       2.385   7.415  19.193  0.00  0.00    +0.000 A 
ATOM     12  N   UNL     1       1.874   7.734  20.410  0.00  0.00    +0.000 NA
ATOM     13  N   UNL     1      -0.944  10.217  23.068  0.00  0.00    +0.000 NA
ATOM     14  C   UNL     1      -1.773  11.271  23.303  0.00  0.00    +0.000 A 
ATOM     15  H   UNL     1       0.554   8.455  22.346  0.00  0.00    +0.000 HD
ENDROOT
BRANCH  11  16
ATOM     16  C   UNL     1       3.168   6.195  19.099  0.00  0.00    +0.000 A 
ATOM     17  C   UNL     1       4.533   6.056  18.763  0.00  0.00    +0.000 A 
ATOM     18  N   UNL     1       4.944   4.794  18.796  0.00  0.00    +0.000 NA
ATOM     19  N   UNL     1       3.840   4.103  19.141  0.00  0.00    +0.000 N 
ATOM     20  C   UNL     1       2.731   4.895  19.337  0.00  0.00    +0.000 A 
ATOM     21  C   UNL     1       1.377   4.349  19.658  0.00  0.00    +0.000 C 
ATOM     22  C   UNL     1       1.270   3.362  20.820  0.00  0.00    +0.000 C 
ATOM     23  C   UNL     1       2.554   2.746  21.357  0.00  0.00    +0.000 C 
ATOM     24  C   UNL     1       3.291   1.910  20.323  0.00  0.00    +0.000 C 
ATOM     25  C   UNL     1       3.935   2.660  19.157  0.00  0.00    +0.000 C 
ENDBRANCH  11  16
BRANCH   1  30
ATOM     26  C   UNL     1      -5.306  16.537  24.200  0.00  0.00    +0.000 C 
ATOM     27  N   UNL     1      -4.653  15.585  23.306  0.00  0.00    +0.000 NA
ATOM     28  C   UNL     1      -4.863  14.201  23.789  0.00  0.00    +0.000 C 
ATOM     29  C   UNL     1      -4.128  13.149  22.926  0.00  0.00    +0.000 C 
ATOM     30  N   UNL     1      -2.694  13.486  22.871  0.00  0.00    +0.000 N 
ATOM     31  C   UNL     1      -2.445  14.841  22.350  0.00  0.00    +0.000 C 
ATOM     32  C   UNL     1      -3.200  15.865  23.227  0.00  0.00    +0.000 C 
ENDBRANCH   1  30
TORSDOF 2
ENDMDL
MODEL 3
REMARK VINA RESULT:      -8.6      8.097     12.101
REMARK  Name = 
REMARK  3 active torsions:
REMARK  status: ('A' for Active; 'I' for Inactive)
REMARK    1  A    between atoms: C_1  and  N_2
REMARK    2  A    between atoms: N_5  and  C_6
REMARK    3  A    between atoms: C_16  and  C_17
REMARK                            x       y       z     vdW  Elec       q    Type
REMARK                         _______ _______ _______ _____ _____    ______ ____
ROOT
ATOM      1  C   UNL     1       5.994   5.719  17.962  0.00  0.00    +0.000 A 
ATOM      2  C   UNL     1       7.150   5.961  18.691  0.00  0.00    +0.000 A 
ATOM      3  C   UNL     1       7.922   7.089  18.432  0.00  0.00    +0.000 A 
ATOM      4  C   UNL     1       7.526   8.009  17.466  0.00  0.00    +0.000 A 
ATOM      5  N   UNL     1       8.207   9.208  17.271  0.00  0.00    +0.000 N 
ATOM      6  C   UNL     1       8.835   9.991  18.235  0.00  0.00    +0.000 A 
ATOM      7  N   UNL     1       8.896   9.558  19.509  0.00  0.00    +0.000 NA
ATOM      8  C   UNL     1       9.507  10.330  20.419  0.00  0.00    +0.000 A 
ATOM      9  C   UNL     1      10.090  11.521  20.099  0.00  0.00    +0.000 A 
ATOM     10  F   UNL     1      10.717  12.241  21.038  0.00  0.00    +0.000 F 
ATOM     11  C   UNL     1      10.006  11.898  18.775  0.00  0.00    +0.000 A 
ATOM     12  N   UNL     1       9.351  11.161  17.842  0.00  0.00    +0.000 NA
ATOM     13  N   UNL     1       6.453   7.777  16.690  0.00  0.00    +0.000 NA
ATOM     14  C   UNL     1       5.722   6.662  16.963  0.00  0.00    +0.000 A 
ATOM     15  H   UNL     1       7.835   9.760  16.519  0.00  0.00    +0.000 HD
ENDROOT
BRANCH  11  16
ATOM     16  C   UNL     1      10.650  13.120  18.326  0.00  0.00    +0.000 A 
ATOM     17  C   UNL     1      11.715  13.261  17.409  0.00  0.00    +0.000 A 
ATOM     18  N   UNL     1      12.047  14.530  17.200  0.00  0.00    +0.000 NA
ATOM     19  N   UNL     1      11.206  15.220  17.993  0.00  0.00    +0.000 N 
ATOM     20  C   UNL     1      10.336  14.423  18.702  0.00  0.00    +0.000 A 
ATOM     21  C   UNL     1       9.357  14.957  19.698  0.00  0.00    +0.000 C 
ATOM     22  C   UNL     1       8.446  16.100  19.251  0.00  0.00    +0.000 C 
ATOM     23  C   UNL     1       8.800  16.838  17.968  0.00  0.00    +0.000 C 
ATOM     24  C   UNL     1      10.147  17.540  18.038  0.00  0.00    +0.000 C 
ATOM     25  C   UNL     1      11.390  16.652  18.074  0.00  0.00    +0.000 C 
ENDBRANCH  11  16
BRANCH   1  30
ATOM     26  C   UNL     1       1.996   1.968  19.093  0.00  0.00    +0.000 C 
ATOM     27  N   UNL     1       3.335   2.459  18.774  0.00  0.00    +0.000 NA
ATOM     28  C   UNL     1       3.826   3.348  19.852  0.00  0.00    +0.000 C 
ATOM     29  C   UNL     1       5.208   3.964  19.535  0.00  0.00    +0.000 C 
ATOM     30  N   UNL     1       5.138   4.673  18.245  0.00  0.00    +0.000 N 
ATOM     31  C   UNL     1       4.698   3.805  17.139  0.00  0.00    +0.000 C 
ATOM     32  C   UNL     1       3.320   3.200  17.491  0.00  0.00    +0.000 C 
ENDBRANCH   1  30
TORSDOF 2
ENDMDL
MODEL 4
REMARK VINA RESULT:      -8.1      2.406      3.049
REMARK  Name = 
REMARK  3 active torsions:
REMARK  status: ('A' for Active; 'I' for Inactive)
REMARK    1  A    between atoms: C_1  and  N_2
REMARK    2  A    between atoms: N_5  and  C_6
REMARK    3  A    between atoms: C_16  and  C_17
REMARK                            x       y       z     vdW  Elec       q    Type
REMARK                         _______ _______ _______ _____ _____    ______ ____
ROOT
ATOM      1  C   UNL     1      -0.755  13.935  19.586  0.00  0.00    +0.000 A 
ATOM      2  C   UNL     1      -1.247  12.684  19.932  0.00  0.00    +0.000 A 
ATOM      3  C   UNL     1      -0.623  11.530  19.470  0.00  0.00    +0.000 A 
ATOM      4  C   UNL     1       0.526  11.613  18.689  0.00  0.00    +0.000 A 
ATOM      5  N   UNL     1       1.244  10.480  18.318  0.00  0.00    +0.000 N 
ATOM      6  C   UNL     1       1.432   9.316  19.058  0.00  0.00    +0.000 A 
ATOM      7  N   UNL     1       0.809   9.174  20.244  0.00  0.00    +0.000 NA
ATOM      8  C   UNL     1       1.005   8.043  20.938  0.00  0.00    +0.000 A 
ATOM      9  C   UNL     1       1.788   7.025  20.477  0.00  0.00    +0.000 A 
ATOM     10  F   UNL     1       1.926   5.902  21.193  0.00  0.00    +0.000 F 
ATOM     11  C   UNL     1       2.383   7.229  19.249  0.00  0.00    +0.000 A 
ATOM     12  N   UNL     1       2.243   8.382  18.548  0.00  0.00    +0.000 NA
ATOM     13  N   UNL     1       0.995  12.803  18.274  0.00  0.00    +0.000 NA
ATOM     14  C   UNL     1       0.358  13.914  18.736  0.00  0.00    +0.000 A 
ATOM     15  H   UNL     1       2.031  10.682  17.725  0.00  0.00    +0.000 HD
ENDROOT
BRANCH  11  16
ATOM     16  C   UNL     1       3.184   6.177  18.649  0.00  0.00    +0.000 A 
ATOM     17  C   UNL     1       4.561   6.201  18.329  0.00  0.00    +0.000 A 
ATOM     18  N   UNL     1       4.987   5.054  17.812  0.00  0.00    +0.000 NA
ATOM     19  N   UNL     1       3.883   4.282  17.780  0.00  0.00    +0.000 N 
ATOM     20  C   UNL     1       2.758   4.907  18.271  0.00  0.00    +0.000 A 
ATOM     21  C   UNL     1       1.403   4.276  18.274  0.00  0.00    +0.000 C 
ATOM     22  C   UNL     1       1.276   2.876  18.873  0.00  0.00    +0.000 C 
ATOM     23  C   UNL     1       2.551   2.084  19.122  0.00  0.00    +0.000 C 
ATOM     24  C   UNL     1       3.329   1.794  17.849  0.00  0.00    +0.000 C 
ATOM     25  C   UNL     1       3.997   2.982  17.158  0.00  0.00    +0.000 C 
ENDBRANCH  11  16
BRANCH   1  30
ATOM     26  C   UNL     1      -3.444  18.539  21.289  0.00  0.00    +0.000 C 
ATOM     27  N   UNL     1      -2.377  17.543  21.232  0.00  0.00    +0.000 NA
ATOM     28  C   UNL     1      -1.783  17.506  19.876  0.00  0.00    +0.000 C 
ATOM     29  C   UNL     1      -0.697  16.415  19.728  0.00  0.00    +0.000 C 
ATOM     30  N   UNL     1      -1.272  15.109  20.098  0.00  0.00    +0.000 N 
ATOM     31  C   UNL     1      -1.831  15.096  21.462  0.00  0.00    +0.000 C 
ATOM     32  C   UNL     1      -2.903  16.202  21.577  0.00  0.00    +0.000 C 
ENDBRANCH   1  30
TORSDOF 2
ENDMDL
MODEL 5
REMARK VINA RESULT:      -8.0      2.228      2.988
REMARK  Name = 
REMARK  3 active torsions:
REMARK  status: ('A' for Active; 'I' for Inactive)
REMARK    1  A    between atoms: C_1  and  N_2
REMARK    2  A    between atoms: N_5  and  C_6
REMARK    3  A    between atoms: C_16  and  C_17
REMARK                            x       y       z     vdW  Elec       q    Type
REMARK                         _______ _______ _______ _____ _____    ______ ____
ROOT
ATOM      1  C   UNL     1      -1.321  13.886  20.004  0.00  0.00    +0.000 A 
ATOM      2  C   UNL     1      -1.658  12.606  20.419  0.00  0.00    +0.000 A 
ATOM      3  C   UNL     1      -1.033  11.497  19.858  0.00  0.00    +0.000 A 
ATOM      4  C   UNL     1      -0.033  11.658  18.904  0.00  0.00    +0.000 A 
ATOM      5  N   UNL     1       0.699  10.578  18.418  0.00  0.00    +0.000 N 
ATOM      6  C   UNL     1       1.088   9.437  19.114  0.00  0.00    +0.000 A 
ATOM      7  N   UNL     1       0.675   9.258  20.383  0.00  0.00    +0.000 NA
ATOM      8  C   UNL     1       1.062   8.150  21.033  0.00  0.00    +0.000 A 
ATOM      9  C   UNL     1       1.834   7.188  20.448  0.00  0.00    +0.000 A 
ATOM     10  F   UNL     1       2.167   6.085  21.128  0.00  0.00    +0.000 F 
ATOM     11  C   UNL     1       2.208   7.426  19.142  0.00  0.00    +0.000 A 
ATOM     12  N   UNL     1       1.873   8.561  18.476  0.00  0.00    +0.000 NA
ATOM     13  N   UNL     1       0.275  12.876  18.424  0.00  0.00    +0.000 NA
ATOM     14  C   UNL     1      -0.360  13.941  18.987  0.00  0.00    +0.000 A 
ATOM     15  H   UNL     1       1.364  10.832  17.708  0.00  0.00    +0.000 HD
ENDROOT
BRANCH  11  16
ATOM     16  C   UNL     1       2.979   6.431  18.417  0.00  0.00    +0.000 A 
ATOM     17  C   UNL     1       4.224   6.592  17.769  0.00  0.00    +0.000 A 
ATOM     18  N   UNL     1       4.667   5.466  17.221  0.00  0.00    +0.000 NA
ATOM     19  N   UNL     1       3.700   4.569  17.499  0.00  0.00    +0.000 N 
ATOM     20  C   UNL     1       2.651   5.094  18.219  0.00  0.00    +0.000 A 
ATOM     21  C   UNL     1       1.432   4.309  18.585  0.00  0.00    +0.000 C 
ATOM     22  C   UNL     1       1.640   2.957  19.267  0.00  0.00    +0.000 C 
ATOM     23  C   UNL     1       3.033   2.345  19.235  0.00  0.00    +0.000 C 
ATOM     24  C   UNL     1       3.519   2.046  17.826  0.00  0.00    +0.000 C 
ATOM     25  C   UNL     1       3.838   3.245  16.933  0.00  0.00    +0.000 C 
ENDBRANCH  11  16
BRANCH   1  30
ATOM     26  C   UNL     1      -2.950  18.360  22.947  0.00  0.00    +0.000 C 
ATOM     27  N   UNL     1      -2.872  17.451  21.806  0.00  0.00    +0.000 NA
ATOM     28  C   UNL     1      -3.370  16.109  22.185  0.00  0.00    +0.000 C 
ATOM     29  C   UNL     1      -3.239  15.078  21.040  0.00  0.00    +0.000 C 
ATOM     30  N   UNL     1      -1.835  15.023  20.597  0.00  0.00    +0.000 N 
ATOM     31  C   UNL     1      -1.319  16.335  20.167  0.00  0.00    +0.000 C 
ATOM     32  C   UNL     1      -1.473  17.342  21.329  0.00  0.00    +0.000 C 
ENDBRANCH   1  30
TORSDOF 2
ENDMDL
MODEL 6
REMARK VINA RESULT:      -8.0      2.793      3.911
REMARK  Name = 
REMARK  3 active torsions:
REMARK  status: ('A' for Active; 'I' for Inactive)
REMARK    1  A    between atoms: C_1  and  N_2
REMARK    2  A    between atoms: N_5  and  C_6
REMARK    3  A    between atoms: C_16  and  C_17
REMARK                            x       y       z     vdW  Elec       q    Type
REMARK                         _______ _______ _______ _____ _____    ______ ____
ROOT
ATOM      1  C   UNL     1       0.354  13.815  20.165  0.00  0.00    +0.000 A 
ATOM      2  C   UNL     1      -0.245  12.640  20.598  0.00  0.00    +0.000 A 
ATOM      3  C   UNL     1       0.069  11.427  19.996  0.00  0.00    +0.000 A 
ATOM      4  C   UNL     1       1.017  11.367  18.980  0.00  0.00    +0.000 A 
ATOM      5  N   UNL     1       1.446  10.155  18.445  0.00  0.00    +0.000 N 
ATOM      6  C   UNL     1       1.601   8.943  19.113  0.00  0.00    +0.000 A 
ATOM      7  N   UNL     1       1.238   8.844  20.406  0.00  0.00    +0.000 NA
ATOM      8  C   UNL     1       1.396   7.666  21.026  0.00  0.00    +0.000 A 
ATOM      9  C   UNL     1       1.885   6.561  20.392  0.00  0.00    +0.000 A 
ATOM     10  F   UNL     1       1.994   5.399  21.046  0.00  0.00    +0.000 F 
ATOM     11  C   UNL     1       2.222   6.727  19.064  0.00  0.00    +0.000 A 
ATOM     12  N   UNL     1       2.120   7.919  18.424  0.00  0.00    +0.000 NA
ATOM     13  N   UNL     1       1.570  12.488  18.483  0.00  0.00    +0.000 NA
ATOM     14  C   UNL     1       1.237  13.661  19.088  0.00  0.00    +0.000 A 
ATOM     15  H   UNL     1       2.106  10.260  17.695  0.00  0.00    +0.000 HD
ENDROOT
BRANCH  11  16
ATOM     16  C   UNL     1       2.693   5.593  18.289  0.00  0.00    +0.000 A 
ATOM     17  C   UNL     1       1.983   4.425  17.929  0.00  0.00    +0.000 A 
ATOM     18  N   UNL     1       2.707   3.594  17.187  0.00  0.00    +0.000 NA
ATOM     19  N   UNL     1       3.898   4.213  17.074  0.00  0.00    +0.000 N 
ATOM     20  C   UNL     1       3.953   5.427  17.722  0.00  0.00    +0.000 A 
ATOM     21  C   UNL     1       5.189   6.264  17.795  0.00  0.00    +0.000 C 
ATOM     22  C   UNL     1       5.915   6.570  16.484  0.00  0.00    +0.000 C 
ATOM     23  C   UNL     1       5.545   5.755  15.254  0.00  0.00    +0.000 C 
ATOM     24  C   UNL     1       5.834   4.271  15.415  0.00  0.00    +0.000 C 
ATOM     25  C   UNL     1       4.960   3.498  16.401  0.00  0.00    +0.000 C 
ENDBRANCH  11  16
BRANCH   1  30
ATOM     26  C   UNL     1      -1.141  18.568  22.715  0.00  0.00    +0.000 C 
ATOM     27  N   UNL     1      -0.241  17.554  22.170  0.00  0.00    +0.000 NA
ATOM     28  C   UNL     1      -0.451  17.413  20.711  0.00  0.00    +0.000 C 
ATOM     29  C   UNL     1       0.420  16.297  20.088  0.00  0.00    +0.000 C 
ATOM     30  N   UNL     1       0.157  15.030  20.792  0.00  0.00    +0.000 N 
ATOM     31  C   UNL     1       0.402  15.120  22.242  0.00  0.00    +0.000 C 
ATOM     32  C   UNL     1      -0.474  16.248  22.831  0.00  0.00    +0.000 C 
ENDBRANCH   1  30
TORSDOF 2
ENDMDL
MODEL 7
REMARK VINA RESULT:      -7.9      1.322      2.328
REMARK  Name = 
REMARK  3 active torsions:
REMARK  status: ('A' for Active; 'I' for Inactive)
REMARK    1  A    between atoms: C_1  and  N_2
REMARK    2  A    between atoms: N_5  and  C_6
REMARK    3  A    between atoms: C_16  and  C_17
REMARK                            x       y       z     vdW  Elec       q    Type
REMARK                         _______ _______ _______ _____ _____    ______ ____
ROOT
ATOM      1  C   UNL     1      -1.541  12.671  22.793  0.00  0.00    +0.000 A 
ATOM      2  C   UNL     1      -0.516  12.793  21.866  0.00  0.00    +0.000 A 
ATOM      3  C   UNL     1       0.271  11.695  21.538  0.00  0.00    +0.000 A 
ATOM      4  C   UNL     1       0.017  10.449  22.104  0.00  0.00    +0.000 A 
ATOM      5  N   UNL     1       0.702   9.306  21.703  0.00  0.00    +0.000 N 
ATOM      6  C   UNL     1       1.163   9.000  20.425  0.00  0.00    +0.000 A 
ATOM      7  N   UNL     1       1.032   9.904  19.436  0.00  0.00    +0.000 NA
ATOM      8  C   UNL     1       1.485   9.586  18.214  0.00  0.00    +0.000 A 
ATOM      9  C   UNL     1       2.093   8.395  17.943  0.00  0.00    +0.000 A 
ATOM     10  F   UNL     1       2.557   8.137  16.715  0.00  0.00    +0.000 F 
ATOM     11  C   UNL     1       2.209   7.522  19.005  0.00  0.00    +0.000 A 
ATOM     12  N   UNL     1       1.717   7.796  20.239  0.00  0.00    +0.000 NA
ATOM     13  N   UNL     1      -0.921  10.302  23.057  0.00  0.00    +0.000 NA
ATOM     14  C   UNL     1      -1.669  11.398  23.362  0.00  0.00    +0.000 A 
ATOM     15  H   UNL     1       0.444   8.484  22.219  0.00  0.00    +0.000 HD
ENDROOT
BRANCH  11  16
ATOM     16  C   UNL     1       2.897   6.255  18.829  0.00  0.00    +0.000 A 
ATOM     17  C   UNL     1       2.521   4.981  19.312  0.00  0.00    +0.000 A 
ATOM     18  N   UNL     1       3.366   4.024  18.945  0.00  0.00    +0.000 NA
ATOM     19  N   UNL     1       4.305   4.675  18.232  0.00  0.00    +0.000 N 
ATOM     20  C   UNL     1       4.078   6.029  18.128  0.00  0.00    +0.000 A 
ATOM     21  C   UNL     1       5.019   6.970  17.445  0.00  0.00    +0.000 C 
ATOM     22  C   UNL     1       5.470   6.613  16.028  0.00  0.00    +0.000 C 
ATOM     23  C   UNL     1       5.215   5.199  15.530  0.00  0.00    +0.000 C 
ATOM     24  C   UNL     1       5.938   4.141  16.348  0.00  0.00    +0.000 C 
ATOM     25  C   UNL     1       5.444   3.911  17.776  0.00  0.00    +0.000 C 
ENDBRANCH  11  16
BRANCH   1  30
ATOM     26  C   UNL     1      -4.833  16.812  24.623  0.00  0.00    +0.000 C 
ATOM     27  N   UNL     1      -4.210  15.909  23.658  0.00  0.00    +0.000 NA
ATOM     28  C   UNL     1      -4.568  14.505  23.964  0.00  0.00    +0.000 C 
ATOM     29  C   UNL     1      -3.874  13.493  23.022  0.00  0.00    +0.000 C 
ATOM     30  N   UNL     1      -2.416  13.701  23.080  0.00  0.00    +0.000 N 
ATOM     31  C   UNL     1      -2.020  15.077  22.734  0.00  0.00    +0.000 C 
ATOM     32  C   UNL     1      -2.737  16.061  23.686  0.00  0.00    +0.000 C 
ENDBRANCH   1  30
TORSDOF 2
ENDMDL
MODEL 8
REMARK VINA RESULT:      -7.8      2.394     10.778
REMARK  Name = 
REMARK  3 active torsions:
REMARK  status: ('A' for Active; 'I' for Inactive)
REMARK    1  A    between atoms: C_1  and  N_2
REMARK    2  A    between atoms: N_5  and  C_6
REMARK    3  A    between atoms: C_16  and  C_17
REMARK                            x       y       z     vdW  Elec       q    Type
REMARK                         _______ _______ _______ _____ _____    ______ ____
ROOT
ATOM      1  C   UNL     1       2.918   6.975  18.337  0.00  0.00    +0.000 A 
ATOM      2  C   UNL     1       2.304   8.082  17.767  0.00  0.00    +0.000 A 
ATOM      3  C   UNL     1       1.461   8.887  18.525  0.00  0.00    +0.000 A 
ATOM      4  C   UNL     1       1.252   8.619  19.874  0.00  0.00    +0.000 A 
ATOM      5  N   UNL     1       0.517   9.476  20.689  0.00  0.00    +0.000 N 
ATOM      6  C   UNL     1       0.451  10.864  20.615  0.00  0.00    +0.000 A 
ATOM      7  N   UNL     1       1.084  11.509  19.616  0.00  0.00    +0.000 NA
ATOM      8  C   UNL     1       1.005  12.847  19.566  0.00  0.00    +0.000 A 
ATOM      9  C   UNL     1       0.287  13.574  20.471  0.00  0.00    +0.000 A 
ATOM     10  F   UNL     1       0.212  14.906  20.359  0.00  0.00    +0.000 F 
ATOM     11  C   UNL     1      -0.349  12.851  21.458  0.00  0.00    +0.000 A 
ATOM     12  N   UNL     1      -0.247  11.502  21.562  0.00  0.00    +0.000 NA
ATOM     13  N   UNL     1       1.771   7.519  20.448  0.00  0.00    +0.000 NA
ATOM     14  C   UNL     1       2.586   6.746  19.678  0.00  0.00    +0.000 A 
ATOM     15  H   UNL     1       0.415   9.142  21.631  0.00  0.00    +0.000 HD
ENDROOT
BRANCH  11  16
ATOM     16  C   UNL     1      -1.187  13.532  22.429  0.00  0.00    +0.000 A 
ATOM     17  C   UNL     1      -0.791  14.424  23.452  0.00  0.00    +0.000 A 
ATOM     18  N   UNL     1      -1.819  14.892  24.150  0.00  0.00    +0.000 NA
ATOM     19  N   UNL     1      -2.890  14.294  23.592  0.00  0.00    +0.000 N 
ATOM     20  C   UNL     1      -2.571  13.457  22.546  0.00  0.00    +0.000 A 
ATOM     21  C   UNL     1      -3.583  12.633  21.817  0.00  0.00    +0.000 C 
ATOM     22  C   UNL     1      -4.826  13.346  21.286  0.00  0.00    +0.000 C 
ATOM     23  C   UNL     1      -5.125  14.746  21.801  0.00  0.00    +0.000 C 
ATOM     24  C   UNL     1      -5.375  14.786  23.300  0.00  0.00    +0.000 C 
ATOM     25  C   UNL     1      -4.177  14.520  24.211  0.00  0.00    +0.000 C 
ENDBRANCH  11  16
BRANCH   1  30
ATOM     26  C   UNL     1       6.256   3.948  15.018  0.00  0.00    +0.000 C 
ATOM     27  N   UNL     1       5.824   4.634  16.233  0.00  0.00    +0.000 NA
ATOM     28  C   UNL     1       4.565   4.039  16.738  0.00  0.00    +0.000 C 
ATOM     29  C   UNL     1       4.014   4.774  17.981  0.00  0.00    +0.000 C 
ATOM     30  N   UNL     1       3.842   6.203  17.662  0.00  0.00    +0.000 N 
ATOM     31  C   UNL     1       5.088   6.840  17.201  0.00  0.00    +0.000 C 
ATOM     32  C   UNL     1       5.616   6.076  15.966  0.00  0.00    +0.000 C 
ENDBRANCH   1  30
TORSDOF 2
ENDMDL
MODEL 9
REMARK VINA RESULT:      -7.8      2.332      3.645
REMARK  Name = 
REMARK  3 active torsions:
REMARK  status: ('A' for Active; 'I' for Inactive)
REMARK    1  A    between atoms: C_1  and  N_2
REMARK    2  A    between atoms: N_5  and  C_6
REMARK    3  A    between atoms: C_16  and  C_17
REMARK                            x       y       z     vdW  Elec       q    Type
REMARK                         _______ _______ _______ _____ _____    ______ ____
ROOT
ATOM      1  C   UNL     1       0.093  12.951  21.384  0.00  0.00    +0.000 A 
ATOM      2  C   UNL     1      -0.465  11.701  21.612  0.00  0.00    +0.000 A 
ATOM      3  C   UNL     1      -0.086  10.610  20.837  0.00  0.00    +0.000 A 
ATOM      4  C   UNL     1       0.886  10.747  19.852  0.00  0.00    +0.000 A 
ATOM      5  N   UNL     1       1.377   9.651  19.148  0.00  0.00    +0.000 N 
ATOM      6  C   UNL     1       1.569   8.357  19.623  0.00  0.00    +0.000 A 
ATOM      7  N   UNL     1       1.182   8.042  20.873  0.00  0.00    +0.000 NA
ATOM      8  C   UNL     1       1.377   6.788  21.307  0.00  0.00    +0.000 A 
ATOM      9  C   UNL     1       1.926   5.816  20.523  0.00  0.00    +0.000 A 
ATOM     10  F   UNL     1       2.070   4.571  20.991  0.00  0.00    +0.000 F 
ATOM     11  C   UNL     1       2.285   6.201  19.248  0.00  0.00    +0.000 A 
ATOM     12  N   UNL     1       2.146   7.474  18.798  0.00  0.00    +0.000 NA
ATOM     13  N   UNL     1       1.401  11.952  19.552  0.00  0.00    +0.000 NA
ATOM     14  C   UNL     1       1.005  13.003  20.322  0.00  0.00    +0.000 A 
ATOM     15  H   UNL     1       2.049   9.898  18.442  0.00  0.00    +0.000 HD
ENDROOT
BRANCH  11  16
ATOM     16  C   UNL     1       2.821   5.222  18.319  0.00  0.00    +0.000 A 
ATOM     17  C   UNL     1       2.188   4.069  17.802  0.00  0.00    +0.000 A 
ATOM     18  N   UNL     1       2.956   3.401  16.948  0.00  0.00    +0.000 NA
ATOM     19  N   UNL     1       4.100   4.112  16.917  0.00  0.00    +0.000 N 
ATOM     20  C   UNL     1       4.081   5.224  17.728  0.00  0.00    +0.000 A 
ATOM     21  C   UNL     1       5.258   6.127  17.911  0.00  0.00    +0.000 C 
ATOM     22  C   UNL     1       5.942   6.662  16.653  0.00  0.00    +0.000 C 
ATOM     23  C   UNL     1       5.611   6.003  15.322  0.00  0.00    +0.000 C 
ATOM     24  C   UNL     1       6.003   4.534  15.273  0.00  0.00    +0.000 C 
ATOM     25  C   UNL     1       5.198   3.573  16.146  0.00  0.00    +0.000 C 
ENDBRANCH  11  16
BRANCH   1  30
ATOM     26  C   UNL     1      -0.379  17.198  25.000  0.00  0.00    +0.000 C 
ATOM     27  N   UNL     1      -0.690  16.383  23.828  0.00  0.00    +0.000 NA
ATOM     28  C   UNL     1      -1.101  15.022  24.244  0.00  0.00    +0.000 C 
ATOM     29  C   UNL     1      -1.368  14.085  23.043  0.00  0.00    +0.000 C 
ATOM     30  N   UNL     1      -0.169  14.045  22.187  0.00  0.00    +0.000 N 
ATOM     31  C   UNL     1       0.242  15.378  21.714  0.00  0.00    +0.000 C 
ATOM     32  C   UNL     1       0.490  16.290  22.937  0.00  0.00    +0.000 C 
ENDBRANCH   1  30
TORSDOF 2
ENDMDL
